 
data_pvl-un1_auto_a
 
_audit_creation_method            'SHELXL-2018/3'
_shelx_SHELXL_version_number      '2018/3'
_chemical_name_systematic         ?
_chemical_name_common             ?
_chemical_melting_point           ?
_chemical_formula_moiety          ?
_chemical_formula_sum
 'C3.08 H1.85 N0.92 O0.77 S0.15 Zn0.15' 
_chemical_formula_weight          79.04

loop_
 _atom_type_symbol
 _atom_type_description
 _atom_type_scat_dispersion_real
 _atom_type_scat_dispersion_imag
 _atom_type_scat_source
 'C'  'C'   0.0033   0.0016
 'International Tables Vol C Tables 4.2.6.8 and 6.1.1.4'
 'H'  'H'   0.0000   0.0000
 'International Tables Vol C Tables 4.2.6.8 and 6.1.1.4'
 'N'  'N'   0.0061   0.0033
 'International Tables Vol C Tables 4.2.6.8 and 6.1.1.4'
 'O'  'O'   0.0106   0.0060
 'International Tables Vol C Tables 4.2.6.8 and 6.1.1.4'
 'S'  'S'   0.1246   0.1234
 'International Tables Vol C Tables 4.2.6.8 and 6.1.1.4'
 'Zn'  'Zn'   0.2839   1.4301
 'International Tables Vol C Tables 4.2.6.8 and 6.1.1.4'
 
_space_group_crystal_system       monoclinic
_space_group_IT_number            14
_space_group_name_H-M_alt         'P 21/n'
_space_group_name_Hall            '-P 2yn'
 
_shelx_space_group_comment
;
The symmetry employed for this shelxl refinement is uniquely defined
by the following loop, which should always be used as a source of
symmetry information in preference to the above space-group names.
They are only intended as comments.
;
 
loop_
 _space_group_symop_operation_xyz
 'x, y, z'
 '-x+1/2, y+1/2, -z+1/2'
 '-x, -y, -z'
 'x-1/2, -y-1/2, z-1/2'
 
_cell_length_a                    8.9594(3)
_cell_length_b                    16.7475(6)
_cell_length_c                    15.0722(6)
_cell_angle_alpha                 90
_cell_angle_beta                  94.027(3)
_cell_angle_gamma                 90
_cell_volume                      2255.96(14)
_cell_formula_units_Z             26
_cell_measurement_temperature     130(2)
_cell_measurement_reflns_used     ?
_cell_measurement_theta_min       ?
_cell_measurement_theta_max       ?
 
_exptl_crystal_description        ?
_exptl_crystal_colour             ?
_exptl_crystal_density_meas       ?
_exptl_crystal_density_method     ?
_exptl_crystal_density_diffrn     1.513          
_exptl_crystal_F_000              1040
_exptl_transmission_factor_min    ?
_exptl_transmission_factor_max    ?
_exptl_crystal_size_max           ?
_exptl_crystal_size_mid           ?
_exptl_crystal_size_min           ?
_exptl_absorpt_coefficient_mu     1.225
_shelx_estimated_absorpt_T_min    ?
_shelx_estimated_absorpt_T_max    ?
_exptl_absorpt_correction_type    ?
_exptl_absorpt_correction_T_min   ?
_exptl_absorpt_correction_T_max   ?
_exptl_absorpt_process_details    ?
_exptl_absorpt_special_details    ?
_diffrn_ambient_temperature       130(2)
_diffrn_radiation_wavelength      0.71073
_diffrn_radiation_type            MoK\a
_diffrn_source                    ?
_diffrn_measurement_device_type   ?
_diffrn_measurement_method        ?
_diffrn_detector_area_resol_mean  ?
_diffrn_reflns_number             12263
_diffrn_reflns_av_unetI/netI      0.0296
_diffrn_reflns_av_R_equivalents   0.0212
_diffrn_reflns_limit_h_min        -11
_diffrn_reflns_limit_h_max        9
_diffrn_reflns_limit_k_min        -21
_diffrn_reflns_limit_k_max        22
_diffrn_reflns_limit_l_min        -15
_diffrn_reflns_limit_l_max        20
_diffrn_reflns_theta_min          2.568
_diffrn_reflns_theta_max          28.962
_diffrn_reflns_theta_full         25.242
_diffrn_measured_fraction_theta_max   0.839
_diffrn_measured_fraction_theta_full  1.000
_diffrn_reflns_Laue_measured_fraction_max    0.839
_diffrn_reflns_Laue_measured_fraction_full   1.000
_diffrn_reflns_point_group_measured_fraction_max   0.839
_diffrn_reflns_point_group_measured_fraction_full  1.000
_reflns_number_total              5014
_reflns_number_gt                 4373
_reflns_threshold_expression      'I > 2\s(I)'
_reflns_Friedel_coverage          0.000
_reflns_Friedel_fraction_max      .
_reflns_Friedel_fraction_full     .
 
_reflns_special_details
;
 Reflections were merged by SHELXL according to the crystal
 class for the calculation of statistics and refinement.
 
 _reflns_Friedel_fraction is defined as the number of unique
 Friedel pairs measured divided by the number that would be
 possible theoretically, ignoring centric projections and
 systematic absences.
;
 
_computing_data_collection        ?
_computing_cell_refinement        ?
_computing_data_reduction         ?
_computing_structure_solution     'SHELXT 2018/2 (Sheldrick, 2018)'
_computing_structure_refinement 'SHELXL-2018/3 (Sheldrick, 2018)'
_computing_molecular_graphics     ?
_computing_publication_material   ?
_refine_special_details           ?
_refine_ls_structure_factor_coef  Fsqd
_refine_ls_matrix_type            full
_refine_ls_weighting_scheme       calc
_refine_ls_weighting_details
'w=1/[\s^2^(Fo^2^)+(0.1744P)^2^+25.1179P] where P=(Fo^2^+2Fc^2^)/3'
_atom_sites_solution_primary      ?
_atom_sites_solution_secondary    ?
_atom_sites_solution_hydrogens    geom
_refine_ls_hydrogen_treatment     constr
_refine_ls_extinction_method      none
_refine_ls_extinction_coef        .
_refine_ls_number_reflns          5014
_refine_ls_number_parameters      298
_refine_ls_number_restraints      0
_refine_ls_R_factor_all           0.1021
_refine_ls_R_factor_gt            0.0940
_refine_ls_wR_factor_ref          0.2886
_refine_ls_wR_factor_gt           0.2796
_refine_ls_goodness_of_fit_ref    1.057
_refine_ls_restrained_S_all       1.057
_refine_ls_shift/su_max           0.000
_refine_ls_shift/su_mean          0.000
 
loop_
 _atom_site_label
 _atom_site_type_symbol
 _atom_site_fract_x
 _atom_site_fract_y
 _atom_site_fract_z
 _atom_site_U_iso_or_equiv
 _atom_site_adp_type
 _atom_site_occupancy
 _atom_site_site_symmetry_order  
 _atom_site_calc_flag
 _atom_site_refinement_flags_posn
 _atom_site_refinement_flags_adp
 _atom_site_refinement_flags_occupancy
 _atom_site_disorder_assembly
 _atom_site_disorder_group
Zn01 Zn 0.82524(7) 0.31589(4) 0.79014(4) 0.0143(3) Uani 1 1 d . . . . .
S002 S 0.20756(17) 0.46977(9) 0.98750(10) 0.0177(4) Uani 1 1 d . . . . .
O003 O 0.9738(5) 0.3206(3) 0.7025(3) 0.0196(9) Uani 1 1 d . . . . .
O004 O 1.3821(5) 0.2599(3) 0.3856(3) 0.0241(10) Uani 1 1 d . . . . .
O005 O 1.1596(5) 0.2201(3) 0.4237(3) 0.0236(10) Uani 1 1 d . . . . .
N006 N 0.5834(5) 0.5232(3) 0.8111(3) 0.0144(10) Uani 1 1 d . . . . .
O007 O 1.1265(6) 0.3890(4) 0.7981(3) 0.0355(13) Uani 1 1 d . . . . .
N008 N 0.7498(6) 0.4274(3) 0.8065(3) 0.0158(10) Uani 1 1 d . . . . .
N009 N 0.0272(6) 0.6835(3) 0.8334(4) 0.0159(10) Uani 1 1 d . . . . .
N00A N -0.1695(6) 0.7551(3) 0.7884(3) 0.0165(10) Uani 1 1 d . . . . .
N00B N 0.1142(6) 0.5443(3) 0.9439(3) 0.0171(10) Uani 1 1 d . . . . .
N00C N 0.3588(6) 0.4743(3) 0.9364(3) 0.0164(10) Uani 1 1 d . . . . .
C00D C 1.1847(7) 0.3158(3) 0.5774(4) 0.0153(11) Uani 1 1 d . . . . .
H00D H 1.100688 0.281198 0.569641 0.018 Uiso 1 1 calc R U . . .
C00E C 0.6135(7) 0.4450(3) 0.8278(4) 0.0154(11) Uani 1 1 d . . . . .
H00E H 0.546046 0.408283 0.851514 0.019 Uiso 1 1 calc R U . . .
C00F C 0.2023(7) 0.5770(3) 0.8846(4) 0.0151(11) Uani 1 1 d . . . . .
C00G C 0.3432(6) 0.5370(3) 0.8807(4) 0.0148(11) Uani 1 1 d . . . . .
C00H C 0.1666(7) 0.6438(4) 0.8288(4) 0.0168(11) Uani 1 1 d . . . . .
C00I C -0.0472(7) 0.7211(4) 0.7636(4) 0.0181(12) Uani 1 1 d . . . . .
H00I H -0.015095 0.722446 0.704879 0.022 Uiso 1 1 calc R U . . .
C00K C 0.4448(6) 0.5630(3) 0.8186(4) 0.0139(11) Uani 1 1 d . . . . .
C00L C -0.0541(7) 0.6951(4) 0.9069(4) 0.0171(12) Uani 1 1 d . . . . .
H00L H -0.030206 0.676022 0.965559 0.021 Uiso 1 1 calc R U . . .
C00M C 1.2027(7) 0.3639(4) 0.6526(4) 0.0162(11) Uani 1 1 d . . . . .
C00N C 1.2731(7) 0.2620(4) 0.4359(4) 0.0184(12) Uani 1 1 d . . . . .
C00O C 0.2668(7) 0.6669(4) 0.7701(4) 0.0181(12) Uani 1 1 d . . . . .
H00O H 0.243823 0.711080 0.732047 0.022 Uiso 1 1 calc R U . . .
C00P C 1.2892(7) 0.3181(4) 0.5134(4) 0.0166(12) Uani 1 1 d . . . . .
C00Q C 0.8112(7) 0.4962(4) 0.7758(4) 0.0199(12) Uani 1 1 d . . . . .
H00Q H 0.909479 0.501017 0.756509 0.024 Uiso 1 1 calc R U . . .
C00R C 1.0951(7) 0.3585(4) 0.7240(4) 0.0183(12) Uani 1 1 d . . . . .
C00S C 0.7101(7) 0.5562(4) 0.7773(4) 0.0198(12) Uani 1 1 d . . . . .
H00S H 0.723059 0.609858 0.759039 0.024 Uiso 1 1 calc R U . . .
C00T C 0.4051(7) 0.6263(4) 0.7644(4) 0.0190(12) Uani 1 1 d . . . . .
H00T H 0.471751 0.643523 0.721967 0.023 Uiso 1 1 calc R U . . .
C00U C -0.1750(7) 0.7391(4) 0.8783(4) 0.0178(12) Uani 1 1 d . . . . .
H00U H -0.251687 0.756404 0.914270 0.021 Uiso 1 1 calc R U . . .
C00V C 1.3240(7) 0.4156(4) 0.6624(4) 0.0225(13) Uani 1 1 d . . . . .
H00V H 1.336234 0.448536 0.713719 0.027 Uiso 1 1 calc R U . . .
C00W C 1.4111(7) 0.3703(4) 0.5245(4) 0.0223(13) Uani 1 1 d . . . . .
H00W H 1.483095 0.371819 0.481206 0.027 Uiso 1 1 calc R U . . .
C00X C 1.4275(8) 0.4196(4) 0.5983(5) 0.0282(15) Uani 1 1 d . . . . .
H00X H 1.508920 0.455953 0.604956 0.034 Uiso 1 1 calc R U . . .
O1 O 0.8303(8) 0.2241(4) 0.4136(5) 0.0494(16) Uani 1 1 d . . . . .
 
loop_
 _atom_site_aniso_label
 _atom_site_aniso_U_11
 _atom_site_aniso_U_22
 _atom_site_aniso_U_33
 _atom_site_aniso_U_23
 _atom_site_aniso_U_13
 _atom_site_aniso_U_12
Zn01 0.0135(4) 0.0139(4) 0.0158(4) -0.0019(2) 0.0026(3) 0.0004(2)
S002 0.0164(7) 0.0200(7) 0.0168(7) 0.0044(5) 0.0026(5) 0.0028(5)
O003 0.016(2) 0.025(2) 0.018(2) -0.0050(17) 0.0046(17) -0.0036(17)
O004 0.023(2) 0.030(3) 0.020(2) -0.0073(19) 0.0066(18) -0.0002(19)
O005 0.028(2) 0.023(2) 0.021(2) -0.0061(19) 0.0052(18) -0.0043(19)
N006 0.011(2) 0.013(2) 0.019(2) -0.0010(19) 0.0019(18) -0.0008(18)
O007 0.028(3) 0.053(4) 0.026(3) -0.019(2) 0.007(2) -0.011(2)
N008 0.015(2) 0.015(2) 0.018(2) -0.0030(19) 0.0040(19) -0.0001(18)
N009 0.014(2) 0.015(2) 0.018(3) 0.0016(19) 0.0010(19) 0.0019(18)
N00A 0.018(2) 0.013(2) 0.018(2) 0.0026(18) 0.002(2) 0.0019(18)
N00B 0.015(2) 0.019(2) 0.017(2) 0.003(2) 0.0013(19) -0.0002(19)
N00C 0.015(2) 0.017(2) 0.017(2) 0.0050(19) 0.0012(19) 0.0000(18)
C00D 0.015(3) 0.013(3) 0.018(3) -0.001(2) -0.002(2) 0.001(2)
C00E 0.015(3) 0.013(3) 0.018(3) -0.002(2) 0.001(2) -0.002(2)
C00F 0.017(3) 0.014(3) 0.014(3) -0.001(2) 0.002(2) -0.001(2)
C00G 0.015(3) 0.014(3) 0.015(3) -0.001(2) -0.002(2) 0.000(2)
C00H 0.015(3) 0.015(3) 0.020(3) -0.001(2) 0.000(2) 0.001(2)
C00I 0.018(3) 0.016(3) 0.021(3) 0.006(2) 0.002(2) 0.001(2)
C00K 0.011(2) 0.011(2) 0.019(3) -0.003(2) 0.000(2) 0.000(2)
C00L 0.018(3) 0.016(3) 0.017(3) 0.000(2) 0.001(2) -0.001(2)
C00M 0.016(3) 0.016(3) 0.016(3) 0.001(2) -0.001(2) 0.002(2)
C00N 0.019(3) 0.019(3) 0.017(3) 0.001(2) 0.002(2) 0.003(2)
C00O 0.019(3) 0.012(2) 0.023(3) 0.005(2) 0.003(2) 0.002(2)
C00P 0.016(3) 0.018(3) 0.015(3) 0.002(2) 0.000(2) 0.003(2)
C00Q 0.016(3) 0.018(3) 0.026(3) -0.002(2) 0.006(2) -0.003(2)
C00R 0.016(3) 0.019(3) 0.021(3) -0.002(2) 0.003(2) 0.002(2)
C00S 0.016(3) 0.017(3) 0.027(3) 0.002(2) 0.007(2) -0.004(2)
C00T 0.017(3) 0.018(3) 0.024(3) 0.002(2) 0.007(2) 0.000(2)
C00U 0.021(3) 0.016(3) 0.017(3) 0.000(2) 0.003(2) 0.003(2)
C00V 0.019(3) 0.025(3) 0.023(3) -0.008(3) 0.001(2) -0.003(2)
C00W 0.021(3) 0.024(3) 0.023(3) -0.001(3) 0.009(2) -0.003(2)
C00X 0.019(3) 0.029(3) 0.037(4) -0.007(3) 0.007(3) -0.010(3)
O1 0.049(4) 0.045(4) 0.055(4) 0.009(3) 0.008(3) 0.005(3)
 
_geom_special_details
;
 All esds (except the esd in the dihedral angle between two l.s. planes)
 are estimated using the full covariance matrix.  The cell esds are taken
 into account individually in the estimation of esds in distances, angles
 and torsion angles; correlations between esds in cell parameters are only
 used when they are defined by crystal symmetry.  An approximate (isotropic)
 treatment of cell esds is used for estimating esds involving l.s. planes.
;
 
loop_
 _geom_bond_atom_site_label_1
 _geom_bond_atom_site_label_2
 _geom_bond_distance
 _geom_bond_site_symmetry_2
 _geom_bond_publ_flag
Zn01 O003 1.941(5) . ?
Zn01 O004 1.959(5) 4_566 ?
Zn01 N008 2.007(5) . ?
Zn01 N00A 2.038(5) 2_546 ?
S002 N00C 1.607(5) . ?
S002 N00B 1.616(5) . ?
O003 C00R 1.280(8) . ?
O004 C00N 1.278(8) . ?
O005 C00N 1.238(8) . ?
N006 C00E 1.357(8) . ?
N006 C00S 1.390(7) . ?
N006 C00K 1.421(7) . ?
O007 C00R 1.242(8) . ?
N008 C00E 1.318(8) . ?
N008 C00Q 1.371(8) . ?
N009 C00I 1.359(8) . ?
N009 C00L 1.382(8) . ?
N009 C00H 1.421(8) . ?
N00A C00I 1.312(8) . ?
N00A C00U 1.385(8) . ?
N00B C00F 1.349(8) . ?
N00C C00G 1.345(8) . ?
C00D C00P 1.391(9) . ?
C00D C00M 1.391(8) . ?
C00F C00H 1.423(8) . ?
C00F C00G 1.434(8) . ?
C00G C00K 1.419(8) . ?
C00H C00O 1.360(9) . ?
C00K C00T 1.370(9) . ?
C00L C00U 1.356(9) . ?
C00M C00V 1.389(9) . ?
C00M C00R 1.496(8) . ?
C00N C00P 1.498(9) . ?
C00O C00T 1.421(8) . ?
C00P C00W 1.399(9) . ?
C00Q C00S 1.354(9) . ?
C00V C00X 1.387(9) . ?
C00W C00X 1.385(10) . ?
 
loop_
 _geom_angle_atom_site_label_1
 _geom_angle_atom_site_label_2
 _geom_angle_atom_site_label_3
 _geom_angle
 _geom_angle_site_symmetry_1
 _geom_angle_site_symmetry_3
 _geom_angle_publ_flag
O003 Zn01 O004 111.8(2) . 4_566 ?
O003 Zn01 N008 107.4(2) . . ?
O004 Zn01 N008 125.8(2) 4_566 . ?
O003 Zn01 N00A 95.71(19) . 2_546 ?
O004 Zn01 N00A 103.6(2) 4_566 2_546 ?
N008 Zn01 N00A 108.3(2) . 2_546 ?
N00C S002 N00B 101.4(3) . . ?
C00R O003 Zn01 117.3(4) . . ?
C00N O004 Zn01 106.5(4) . 4_665 ?
C00E N006 C00S 107.1(5) . . ?
C00E N006 C00K 127.0(5) . . ?
C00S N006 C00K 125.7(5) . . ?
C00E N008 C00Q 107.1(5) . . ?
C00E N008 Zn01 124.4(4) . . ?
C00Q N008 Zn01 126.4(4) . . ?
C00I N009 C00L 107.3(5) . . ?
C00I N009 C00H 124.3(5) . . ?
C00L N009 C00H 128.3(5) . . ?
C00I N00A C00U 106.4(5) . . ?
C00I N00A Zn01 127.1(4) . 2_556 ?
C00U N00A Zn01 126.5(4) . 2_556 ?
C00F N00B S002 105.8(4) . . ?
C00G N00C S002 106.4(4) . . ?
C00P C00D C00M 120.2(6) . . ?
N008 C00E N006 110.3(5) . . ?
N00B C00F C00H 126.4(5) . . ?
N00B C00F C00G 113.3(5) . . ?
C00H C00F C00G 120.3(5) . . ?
N00C C00G C00K 127.4(5) . . ?
N00C C00G C00F 113.1(5) . . ?
C00K C00G C00F 119.4(5) . . ?
C00O C00H N009 121.4(5) . . ?
C00O C00H C00F 118.5(6) . . ?
N009 C00H C00F 120.1(5) . . ?
N00A C00I N009 110.8(5) . . ?
C00T C00K C00G 118.6(5) . . ?
C00T C00K N006 120.5(5) . . ?
C00G C00K N006 120.9(5) . . ?
C00U C00L N009 106.0(5) . . ?
C00V C00M C00D 119.5(6) . . ?
C00V C00M C00R 120.0(5) . . ?
C00D C00M C00R 120.5(5) . . ?
O005 C00N O004 123.3(6) . . ?
O005 C00N C00P 120.3(6) . . ?
O004 C00N C00P 116.4(5) . . ?
C00H C00O C00T 121.4(6) . . ?
C00D C00P C00W 119.5(6) . . ?
C00D C00P C00N 119.3(5) . . ?
C00W C00P C00N 121.1(6) . . ?
C00S C00Q N008 109.5(5) . . ?
O007 C00R O003 124.4(6) . . ?
O007 C00R C00M 120.3(6) . . ?
O003 C00R C00M 115.3(5) . . ?
C00Q C00S N006 106.0(5) . . ?
C00K C00T C00O 121.7(5) . . ?
C00L C00U N00A 109.5(5) . . ?
C00X C00V C00M 120.8(6) . . ?
C00X C00W C00P 120.4(6) . . ?
C00W C00X C00V 119.5(6) . . ?
 
_refine_diff_density_max    5.780
_refine_diff_density_min   -0.574
_refine_diff_density_rms    0.276

_shelx_res_file
;
TITL pvl-un1_auto_a.res in P2(1)/n
    pvl-un1_auto_a.res
    created by SHELXL-2018/3 at 16:55:01 on 21-Mar-2022
REM Old TITL pvl-un1_auto in P2(1)/n
REM SHELXT solution in P2(1)/n: R1 0.075, Rweak 0.043, Alpha 0.029
REM <I/s>   0.669 for  172 systematic absences,  Orientation as input
REM Formula found by SHELXT:  C24 N8 O4 S Zn
CELL  0.71073   8.9594  16.7475  15.0722   90.000   94.027   90.000
ZERR   26.000   0.0003   0.0006   0.0006    0.000    0.003    0.000
LATT  1
SYMM 1/2-X, 1/2+Y, 1/2-Z
SFAC C H N O S ZN
UNIT 80 48 24 20 4 4
ACTA
TEMP -143
L.S. 10
BOND
LIST 6
FMAP 2
PLAN 20
WGHT    0.174400   25.117901
FVAR       0.41764
ZN01  6    0.825236    0.315894    0.790136    11.00000    0.01348    0.01394 =
         0.01576   -0.00194    0.00261    0.00038
S002  5    0.207558    0.469770    0.987504    11.00000    0.01643    0.02001 =
         0.01683    0.00445    0.00260    0.00284
O003  4    0.973754    0.320604    0.702531    11.00000    0.01612    0.02480 =
         0.01829   -0.00503    0.00456   -0.00361
O004  4    1.382121    0.259878    0.385634    11.00000    0.02275    0.03048 =
         0.01974   -0.00731    0.00658   -0.00024
O005  4    1.159622    0.220103    0.423716    11.00000    0.02764    0.02261 =
         0.02090   -0.00607    0.00516   -0.00430
N006  3    0.583398    0.523245    0.811129    11.00000    0.01091    0.01341 =
         0.01915   -0.00102    0.00191   -0.00078
O007  4    1.126481    0.388966    0.798057    11.00000    0.02850    0.05326 =
         0.02551   -0.01947    0.00708   -0.01087
N008  3    0.749803    0.427371    0.806491    11.00000    0.01504    0.01453 =
         0.01829   -0.00301    0.00404   -0.00007
N009  3    0.027219    0.683516    0.833383    11.00000    0.01413    0.01520 =
         0.01836    0.00163    0.00100    0.00191
N00A  3   -0.169511    0.755102    0.788378    11.00000    0.01825    0.01302 =
         0.01841    0.00261    0.00187    0.00194
N00B  3    0.114187    0.544282    0.943855    11.00000    0.01473    0.01930 =
         0.01714    0.00273    0.00125   -0.00019
N00C  3    0.358774    0.474302    0.936354    11.00000    0.01470    0.01711 =
         0.01744    0.00504    0.00119    0.00001
C00D  1    1.184654    0.315775    0.577364    11.00000    0.01488    0.01307 =
         0.01751   -0.00099   -0.00196    0.00060
AFIX  43
H00D  2    1.100688    0.281198    0.569641    11.00000   -1.20000
AFIX   0
C00E  1    0.613547    0.445040    0.827826    11.00000    0.01504    0.01332 =
         0.01794   -0.00155    0.00128   -0.00241
AFIX  43
H00E  2    0.546046    0.408283    0.851514    11.00000   -1.20000
AFIX   0
C00F  1    0.202287    0.577015    0.884610    11.00000    0.01669    0.01425 =
         0.01450   -0.00149    0.00219   -0.00055
C00G  1    0.343154    0.537013    0.880702    11.00000    0.01515    0.01425 =
         0.01452   -0.00060   -0.00225    0.00036
C00H  1    0.166606    0.643824    0.828779    11.00000    0.01525    0.01502 =
         0.01992   -0.00059   -0.00027    0.00092
C00I  1   -0.047219    0.721050    0.763600    11.00000    0.01753    0.01628 =
         0.02054    0.00577    0.00194    0.00072
AFIX  43
H00I  2   -0.015095    0.722446    0.704879    11.00000   -1.20000
AFIX   0
C00K  1    0.444834    0.563049    0.818643    11.00000    0.01132    0.01112 =
         0.01913   -0.00269   -0.00013   -0.00002
C00L  1   -0.054116    0.695069    0.906908    11.00000    0.01821    0.01576 =
         0.01740    0.00019    0.00083   -0.00120
AFIX  43
H00L  2   -0.030206    0.676022    0.965559    11.00000   -1.20000
AFIX   0
C00M  1    1.202654    0.363900    0.652609    11.00000    0.01645    0.01586 =
         0.01614    0.00092   -0.00093    0.00201
C00N  1    1.273078    0.262015    0.435919    11.00000    0.01934    0.01891 =
         0.01698    0.00052    0.00156    0.00259
C00O  1    0.266796    0.666884    0.770095    11.00000    0.01935    0.01224 =
         0.02301    0.00503    0.00272    0.00178
AFIX  43
H00O  2    0.243823    0.711080    0.732047    11.00000   -1.20000
AFIX   0
C00P  1    1.289194    0.318128    0.513422    11.00000    0.01647    0.01819 =
         0.01494    0.00167   -0.00047    0.00275
C00Q  1    0.811210    0.496178    0.775827    11.00000    0.01605    0.01832 =
         0.02593   -0.00197    0.00590   -0.00285
AFIX  43
H00Q  2    0.909479    0.501017    0.756509    11.00000   -1.20000
AFIX   0
C00R  1    1.095115    0.358452    0.723954    11.00000    0.01559    0.01891 =
         0.02078   -0.00175    0.00294    0.00243
C00S  1    0.710076    0.556174    0.777344    11.00000    0.01614    0.01716 =
         0.02675    0.00160    0.00670   -0.00416
AFIX  43
H00S  2    0.723059    0.609858    0.759039    11.00000   -1.20000
AFIX   0
C00T  1    0.405131    0.626321    0.764429    11.00000    0.01665    0.01750 =
         0.02365    0.00242    0.00707   -0.00014
AFIX  43
H00T  2    0.471751    0.643523    0.721967    11.00000   -1.20000
AFIX   0
C00U  1   -0.175022    0.739140    0.878250    11.00000    0.02067    0.01580 =
         0.01708    0.00014    0.00296    0.00278
AFIX  43
H00U  2   -0.251687    0.756404    0.914270    11.00000   -1.20000
AFIX   0
C00V  1    1.323981    0.415563    0.662436    11.00000    0.01930    0.02498 =
         0.02309   -0.00768    0.00106   -0.00306
AFIX  43
H00V  2    1.336234    0.448536    0.713719    11.00000   -1.20000
AFIX   0
C00W  1    1.411098    0.370263    0.524538    11.00000    0.02120    0.02368 =
         0.02314   -0.00051    0.00872   -0.00310
AFIX  43
H00W  2    1.483095    0.371819    0.481206    11.00000   -1.20000
AFIX   0
C00X  1    1.427474    0.419619    0.598318    11.00000    0.01932    0.02901 =
         0.03690   -0.00679    0.00671   -0.00962
AFIX  43
H00X  2    1.508920    0.455953    0.604956    11.00000   -1.20000
AFIX   0
O1    4    0.830321    0.224092    0.413633    11.00000    0.04867    0.04511 =
         0.05506    0.00906    0.00790    0.00529
HKLF 4




REM  pvl-un1_auto_a.res in P2(1)/n
REM wR2 = 0.2886, GooF = S = 1.057, Restrained GooF = 1.057 for all data
REM R1 = 0.0940 for 4373 Fo > 4sig(Fo) and 0.1021 for all 5014 data
REM 298 parameters refined using 0 restraints

END

WGHT      0.1744     25.1179

REM Highest difference peak  5.780,  deepest hole -0.574,  1-sigma level  0.276
Q1    1   1.0177  0.5482  0.5614  11.00000  0.05    5.78
Q2    1   0.9896  0.5716  0.6157  11.00000  0.05    5.38
Q3    1   0.9575  0.4876  0.5043  11.00000  0.05    5.03
Q4    1   1.8261  0.4551  0.5405  11.00000  0.05    4.06
Q5    1  -0.3398  0.9179  1.0046  11.00000  0.05    3.64
Q6    1   0.3682  0.4990  0.9153  11.00000  0.05    0.81
Q7    1   0.3366  0.5447  0.8589  11.00000  0.05    0.77
Q8    1   0.7750  0.1724  0.3871  11.00000  0.05    0.62
Q9    1   0.3847  0.4577  0.9578  11.00000  0.05    0.60
Q10   1   1.0065  0.3272  0.7126  11.00000  0.05    0.59
Q11   1   0.3938  0.5852  0.7903  11.00000  0.05    0.58
Q12   1   0.3450  0.7021  0.6305  11.00000  0.05    0.56
Q13   1   0.1544  0.5432  0.9566  11.00000  0.05    0.54
Q14   1   0.9440  0.2112  0.4325  11.00000  0.05    0.54
Q15   1   0.3273  0.6324  0.7624  11.00000  0.05    0.49
Q16   1   0.4302  0.6323  0.7064  11.00000  0.05    0.48
Q17   1  -0.3607  0.8987  0.9400  11.00000  0.05    0.47
Q18   1   0.3570  0.6427  0.7776  11.00000  0.05    0.45
Q19   1   0.4839  0.5914  0.9429  11.00000  0.05    0.43
Q20   1   0.0012  0.7026  0.8059  11.00000  0.05    0.43
;
_shelx_res_checksum   81482

_shelx_hkl_file
;
   0   0   2 3315.34   54.31
   0   0  -2 3288.72   54.28
   0   0   3    0.51    0.73
   0   0  -3    1.66    0.68
   0   0   4 1641.83   29.20
   0   0  -4 1660.86   29.15
   0   0  -5    1.75    0.89
   0   0   5    1.45    1.05
   0   0  -6  125.47    4.68
   0   0   6  130.36    4.86
   0   0  -7    1.22    0.93
   0   0   7    5.81    1.41
   0   0  -8  665.31   15.33
   0   0   8  678.70   15.68
   0   0   9   -1.06    1.99
   0   0  -9    0.02    1.00
   0   0  10 2787.32   55.40
   0   0 -10 2655.08   49.51
   0   0  11    4.37    2.55
   0   0 -11    5.12    1.66
   0   0  12  287.36   13.38
   0   0 -12  288.20    9.99
   0   0  12  297.10   12.44
   0   0  13    2.10    2.49
   0   0  14  690.37   23.61
   0   0  15    3.23    3.35
   0   0  16   21.11    4.65
   0   0  17   -1.79    3.55
   0   0  18  188.23   13.20
   0  -1   2   82.88    3.01
   0   1  -2   83.17    3.00
   0  -1  -2   80.43    2.73
   0   1   2   79.90    2.79
   0   1  -3 2789.88   48.13
   0  -1   3 2714.24   48.03
   0   1   3 2830.80   47.25
   0   1  -3 2782.21   46.05
   0  -1  -3 2739.26   47.13
   0  -1   4  177.52    6.23
   0  -1  -4  168.26    5.28
   0   1   4  182.88    5.49
   0   1  -4  170.12    4.54
   0  -1   5 2858.88   52.58
   0   1  -5 2911.24   49.48
   0   1   5 2934.70   50.97
   0  -1  -5 2920.41   50.62
   0  -1   6  336.73   10.87
   0   1   6  364.31    9.63
   0   1  -6  349.61    8.49
   0  -1  -6  327.73    9.10
   0  -1   7 1119.15   25.35
   0  -1  -7 1087.93   22.50
   0   1  -7 1078.17   21.41
   0   1   7 1143.74   22.96
   0  -1   8  812.88   21.27
   0   1   8  859.83   18.97
   0   1  -8  829.64   17.49
   0  -1  -8  798.82   18.36
   0  -1   9  156.78    8.45
   0   1  -9  180.95    6.40
   0  -1  -9  173.52    6.89
   0   1   9  179.44    7.25
   0  -1  10    1.71    1.96
   0   1 -10    3.59    1.21
   0   1  10    0.79    1.43
   0  -1 -10    3.10    1.40
   0  -1  11    5.70    2.81
   0   1  11    5.67    1.79
   0   1  11    3.36    1.86
   0  -1 -11    3.67    1.34
   0   1 -11    5.22    1.49
   0  -1  12   -0.74    2.22
   0   1 -12    2.68    1.20
   0   1  12   -0.08    2.22
   0  -1  13   11.85    3.46
   0   1  13   12.40    3.77
   0   1 -13    9.83    1.98
   0  -1  14  376.27   16.77
   0   1  14  396.17   17.06
   0  -1  15   68.20    7.34
   0   1  15   63.09    7.29
   0   1  16  396.65   18.49
   0  -1  16  410.27   18.77
   0   1  17   81.09    8.63
   0  -1  17   74.39    8.23
   0  -1  18  161.57   12.30
   0   1  18  136.27   11.55
   0   2   1 1472.01   25.74
   0  -2  -1 1498.44   25.78
   0   2  -2 2133.07   37.08
   0  -2  -2 2109.40   37.11
   0   2   2 2203.76   37.19
   0   2   2 2113.96   37.22
   0  -2   3  275.32    7.30
   0   2  -3  272.15    7.29
   0  -2  -3  252.25    6.93
   0   2   3  263.04    7.11
   0   2  -4  228.97    7.27
   0  -2   4  220.73    7.17
   0   2   4  233.43    6.92
   0  -2  -4  222.08    6.71
   0  -2   5  163.69    6.49
   0   2  -5  160.94    6.52
   0   2   5  176.29    6.12
   0   2  -5  170.09    4.67
   0  -2  -5  166.65    5.89
   0  -2   6 1917.47   38.54
   0   2  -6 1988.02   34.75
   0  -2  -6 1969.42   36.95
   0   2   6 2033.03   37.37
   0  -2   7  856.27   21.51
   0   2  -7  919.63   18.06
   0  -2  -7  881.22   19.87
   0  -2   8  138.37    7.36
   0   2  -8  146.81    5.18
   0   2   8  150.65    6.63
   0  -2  -8  148.32    6.38
   0  -2   9  661.39   19.41
   0   2  -9  693.48   15.28
   0  -2  -9  678.97   17.16
   0   2   9  728.35   17.76
   0  -2  10  185.33    9.48
   0  -2 -10  180.84    7.74
   0   2  10  187.86    8.14
   0   2 -10  190.58    6.62
   0   2  10  195.96    9.43
   0  -2  11  741.20   22.61
   0   2  11  826.04   20.63
   0   2 -11  783.31   17.78
   0   2  11  811.74   22.70
   0  -2  12  231.35   11.73
   0   2  12  257.06   10.34
   0   2 -12  232.09    8.06
   0  -2  13  264.18   13.17
   0   2  13  285.89   11.30
   0   2 -13  267.91    9.11
   0  -2  13  284.03   12.28
   0  -2  14  240.09   13.26
   0   2  14  264.05   13.82
   0   2  15  817.08   27.35
   0  -2  15  821.99   27.27
   0   2  16  257.06   14.78
   0  -2  16  237.87   14.00
   0  -2  17    3.61    3.94
   0   2  17    7.43    3.94
   0  -2  18   11.71    4.49
   0   2  18   14.77    4.44
   0  -3   0    1.39    0.64
   0   3   0    0.55    0.55
   0   3  -1  815.01   14.18
   0  -3   1  817.13   14.20
   0   3   1  818.63   15.43
   0  -3  -1  830.69   15.56
   0  -3   2 1529.31   25.85
   0   3   2 1599.56   28.44
   0   3   2 1513.81   28.02
   0   3  -3 1693.41   31.18
   0   3   3 1727.80   31.39
   0   3   3 1649.01   31.32
   0  -3   4  273.99    8.31
   0   3  -4  291.60    8.45
   0  -3  -4  267.92    8.06
   0   3   4  282.88    8.32
   0   3   4  276.52    8.46
   0   3  -5    4.53    1.52
   0  -3   5    2.53    1.57
   0   3   5    4.77    1.64
   0   3   5    6.37    1.69
   0  -3  -5    3.11    1.25
   0  -3   6   53.45    4.02
   0   3  -6   48.47    3.84
   0  -3  -6   46.42    3.40
   0   3   6   54.95    3.78
   0  -3   7 1156.96   26.43
   0   3  -7 1175.72   22.09
   0  -3  -7 1138.71   24.96
   0   3   7 1182.83   26.58
   0  -3   8  176.78    8.41
   0   3   8  178.05    7.65
   0  -3  -8  171.30    7.31
   0   3  -8  188.24    5.77
   0   3   8  179.54    8.42
   0  -3   9  156.16    8.31
   0  -3  -9  153.71    7.15
   0   3   9  167.91    7.66
   0   3  -9  164.90    5.61
   0   3   9  162.06    8.32
   0  -3  10   10.47    3.02
   0   3 -10    8.45    1.46
   0   3  10    7.29    2.38
   0   3  10    9.51    2.62
   0  -3  11   78.33    6.47
   0   3 -11   80.57    4.11
   0   3  11   77.30    5.52
   0   3  11   91.04    6.84
   0  -3  12   62.40    6.30
   0   3  12   80.07    5.88
   0   3 -12   72.24    4.04
   0  -3  13    1.15    2.45
   0   3  13    6.03    2.52
   0   3 -13    0.37    1.10
   0  -3  14    0.33    2.73
   0   3  14    2.03    1.86
   0   3 -14    4.28    1.46
   0   3  15   14.74    4.29
   0  -3  15    7.94    2.92
   0   3  16   74.00    8.07
   0  -3  16   64.60    7.41
   0   3  17  227.98   14.31
   0  -3  17  189.22   13.22
   0  -3  18   24.34    5.66
   0   3  18   24.64    5.55
   0  -4   0 2112.55   35.41
   0   4   0 2033.44   35.35
   0   4  -1 1666.31   28.25
   0  -4   1 1686.13   28.31
   0   4   1 1635.02   29.57
   0  -4  -1 1667.18   29.78
   0   4  -2 2323.50   38.67
   0  -4   2 2344.16   38.68
   0   4   2 2385.06   42.05
   0   4   2 2252.24   41.03
   0  -4   3  104.41    3.06
   0   4  -3  108.18    4.64
   0   4   3  107.31    4.86
   0   4   3  109.77    4.72
   0   4  -4   61.18    3.77
   0  -4   4   56.06    2.48
   0   4   4   63.63    3.94
   0   4   4   63.82    3.84
   0   4  -5  664.62   16.27
   0   4   5  679.14   16.27
   0   4   5  648.44   16.33
   0  -4   6  670.42   17.33
   0   4  -6  714.28   17.77
   0   4   6  703.43   17.18
   0   4   6  673.82   17.57
   0   4  -7   20.49    2.82
   0  -4   7   22.20    2.95
   0   4   7   19.95    2.83
   0   4   7   16.95    2.66
   0  -4   8   10.94    2.56
   0   4   8    6.55    2.07
   0   4  -8    7.62    1.24
   0   4   8    8.37    2.37
   0  -4   9  897.25   23.96
   0   4  -9  948.66   18.92
   0   4   9  933.40   23.05
   0   4   9  974.80   24.56
   0  -4  10   64.24    5.77
   0   4  10   81.51    5.65
   0   4 -10   76.91    3.71
   0   4  10   77.23    6.09
   0  -4  11  778.34   23.17
   0   4  11  805.40   21.60
   0   4 -11  784.07   16.89
   0  -4  12    1.73    2.37
   0   4 -12    4.59    1.19
   0   4  12    4.55    2.20
   0  -4  13 1246.21   34.27
   0   4 -13 1314.44   26.19
   0  -4  14   29.75    5.04
   0   4 -14   34.21    2.79
   0   4  14   36.46    4.62
   0  -4  14   36.25    4.54
   0  -4  15  104.10    9.11
   0   4  15  115.10    7.97
   0  -4  16  144.84   11.22
   0  -4  17    1.06    3.07
   0   4  17    6.16    3.83
   0   4  18   18.69    4.90
   0  -4  18    4.36    3.49
   0   5   0    0.31    0.76
   0  -5   0    0.80    0.92
   0   5  -1 1966.54   33.55
   0   5   1 1935.01   34.90
   0  -5   1 1970.42   33.60
   0  -5  -1 2000.49   35.15
   0   5  -2  365.62    7.39
   0   5   2  375.05   10.31
   0   5   2  350.30    9.28
   0  -5   2  358.56    7.38
   0  -5   3  290.59    6.36
   0   5   3  311.12    9.45
   0   5   3  300.06    8.80
   0  -5   4  968.92   17.77
   0   5  -4  985.93   21.25
   0   5   4  965.73   21.51
   0   5   4  965.32   21.21
   0  -5   5  213.01    5.85
   0   5  -5  217.62    8.12
   0   5   5  222.47    8.34
   0   5   5  218.80    8.33
   0   5  -6    8.87    2.05
   0   5   6   10.14    2.20
   0   5   6    6.20    1.91
   0   5  -7  523.37   15.32
   0   5   7  485.57   14.48
   0   5   7  491.96   15.10
   0   5  -8  553.79   16.95
   0  -5   8  548.66   16.57
   0   5   8  547.14   16.06
   0   5   8  552.79   16.86
   0   5  -9  301.28   12.29
   0  -5   9  285.29   11.77
   0   5   9  304.60   11.59
   0   5  -9  294.94    7.87
   0   5   9  294.03   11.92
   0  -5  10  154.86    8.77
   0   5 -10  165.35    5.60
   0   5  10  163.41    8.49
   0   5  10  172.77    9.22
   0  -5  11   23.47    3.91
   0   5  11   18.62    3.28
   0   5 -11   19.12    1.93
   0  -5  12    9.18    3.11
   0   5  12   11.35    3.03
   0   5 -12    6.90    1.23
   0  -5  13  117.41    8.90
   0   5 -13  118.28    4.85
   0   5  13  125.16    8.13
   0  -5  14  453.94   18.93
   0   5  14  492.97   17.59
   0   5 -14  486.36   11.77
   0  -5  14  483.32   16.58
   0  -5  15   -0.31    2.82
   0   5  15   -2.01    2.59
   0  -5  16    6.39    3.25
   0   5  16   14.18    3.36
   0  -5  17   74.57    8.32
   0   5  18  258.17   16.03
   0   6   0  243.26    6.44
   0  -6   0  237.83    6.53
   0   6  -1   10.10    1.16
   0  -6   1   13.98    1.32
   0   6   1   10.13    1.50
   0  -6  -1   11.14    1.78
   0   6  -2  593.33   11.65
   0   6   2  634.64   15.32
   0  -6   2  608.00   11.72
   0   6   2  596.28   13.85
   0  -6   3  103.60    3.17
   0   6  -3  101.99    3.16
   0   6   3  105.69    5.48
   0   6   3  103.00    4.93
   0  -6   4 3191.93   53.68
   0   6  -4 3318.81   58.50
   0   6   4 3259.86   59.03
   0   6   4 3117.35   58.12
   0  -6   5  569.11   11.84
   0   6  -5  580.55   15.49
   0   6   5  589.69   15.91
   0   6   5  580.79   15.58
   0  -6   6  273.59    7.35
   0   6  -6  288.50   10.35
   0   6   6  281.29   10.36
   0   6   6  269.39   10.22
   0  -6   7  123.88    4.87
   0   6  -7  136.15    7.27
   0   6   7  130.54    7.14
   0   6   7  136.56    7.33
   0  -6   8   74.67    4.04
   0   6  -8   85.93    6.10
   0   6   8   76.17    5.66
   0   6   8   84.05    6.06
   0   6  -9  212.35   10.27
   0   6   9  198.06    9.47
   0   6   9  208.96   10.01
   0   6 -10  157.72    5.40
   0   6  10  162.42    8.71
   0   6 -11  100.80    4.23
   0   6  11   99.40    7.09
   0  -6  12   40.07    5.07
   0   6 -12   43.42    2.73
   0   6  12   35.18    4.69
   0   6  13    1.21    2.12
   0   6 -13   -0.04    0.85
   0  -6  14  421.43   18.39
   0   6  14  472.10   17.50
   0  -6  14  473.89   16.00
   0  -6  15  422.71   18.87
   0   6  15  437.92   17.24
   0   6  16  143.27    9.79
   0   6  17   50.57    6.40
   0   7   0   -0.49    0.89
   0  -7   0    3.55    1.14
   0   7  -1  140.99    4.49
   0  -7   1  143.37    4.59
   0   7   1  138.96    5.20
   0  -7  -1  151.84    5.54
   0   7  -2  113.60    3.71
   0   7   2  115.24    5.92
   0  -7   2  121.06    3.83
   0   7   2  119.75    5.20
   0   7  -3  192.23    5.02
   0   7   3  213.49    8.42
   0  -7   3  196.98    5.06
   0   7   3  206.29    7.48
   0  -7   4  491.75   10.06
   0   7   4  503.54   14.47
   0   7   4  483.73   13.61
   0  -7   5   29.62    1.84
   0   7  -5   30.11    3.22
   0   7   5   24.83    3.24
   0   7   5   31.79    3.43
   0  -7   6  570.37   12.30
   0   7  -6  604.52   16.90
   0   7   6  595.07   17.01
   0   7   6  566.50   16.40
   0  -7   7  147.24    5.16
   0   7  -7  147.49    7.88
   0   7   7  141.32    7.69
   0   7   7  140.76    7.69
   0   7  -8   99.74    6.71
   0  -7   8   90.83    4.35
   0   7   8   99.78    6.64
   0   7   8   98.26    6.67
   0  -7   9   11.15    1.84
   0   7  -9    9.99    2.67
   0   7   9   12.54    2.69
   0   7   9   14.51    3.28
   0  -7  10  609.92   15.93
   0   7 -10  662.61   14.24
   0   7  10  643.37   20.00
   0  -7  11    2.06    1.53
   0   7 -11    2.71    0.99
   0   7  11   -1.15    2.66
   0  -7  12    5.57    1.86
   0   7 -12    6.37    1.25
   0   7  12    2.48    2.58
   0   7 -13    5.01    1.10
   0   7  13    4.45    2.76
   0   7  14   19.74    3.89
   0  -7  14   21.23    3.54
   0   7  15    2.26    2.86
   0  -7  16  178.72    9.86
   0   7  16  200.76   11.98
   0   7  17   41.88    5.98
   0   7  18   60.00    7.04
   0  -8   0 2281.75   40.85
   0   8   0 2250.04   40.45
   0   8  -1   53.45    2.79
   0   8   1   60.81    3.54
   0  -8   1   56.40    2.91
   0  -8  -1   53.41    3.50
   0   8  -2  644.97   13.15
   0   8   2  658.75   17.33
   0   8   2  641.34   15.39
   0  -8   2  647.01   13.28
   0   8  -3   27.09    1.73
   0  -8   3   26.50    1.73
   0   8   3   24.42    3.27
   0   8   3   27.87    2.85
   0  -8   4   21.41    1.56
   0   8   4   27.14    3.64
   0   8   4   21.93    2.72
   0  -8   5   96.80    3.41
   0   8  -5  103.72    6.16
   0   8   5  102.30    6.38
   0   8   5   99.08    5.76
   0  -8   6   32.69    2.07
   0   8  -6   29.59    3.57
   0   8   6   26.75    3.68
   0   8   6   30.39    3.61
   0  -8   7    1.13    0.84
   0   8  -7    6.04    2.23
   0   8   7    3.09    2.35
   0   8   7    1.42    1.59
   0  -8   8  620.98   14.15
   0   8  -8  658.76   19.57
   0   8   8  645.45   19.39
   0   8   8  595.89   18.69
   0  -8   9  403.94   10.98
   0   8   9  420.17   15.35
   0  -8  10  565.87   14.45
   0   8  10  554.44   18.80
   0  -8  11  214.60    8.31
   0   8  11  217.24   11.41
   0   8 -11  225.09    6.86
   0  -8  12  197.10    8.48
   0   8 -12  226.55    6.66
   0   8  12  208.28   11.43
   0  -8  13    3.39    1.98
   0   8  13    3.26    2.47
   0  -8  14   82.98    5.88
   0   8  14   94.90    8.08
   0  -8  15   75.06    5.88
   0   8  15   77.88    7.72
   0   8  16   64.82    7.27
   0   8  17   26.69    5.50
   0   8  18   -6.55    4.14
   0   9   0    0.90    0.99
   0  -9   0    0.61    1.20
   0   9  -1   16.72    1.73
   0   9   1   16.18    1.98
   0  -9   1   16.12    1.81
   0   9  -2   31.93    2.15
   0   9   2   28.64    2.78
   0   9   2   36.52    3.82
   0  -9   2   31.53    2.20
   0   9  -3  322.43    7.72
   0   9   3  320.88   11.83
   0  -9   3  320.28    7.80
   0   9   3  331.82   10.56
   0   9  -4 2598.58   44.49
   0  -9   4 2610.84   44.55
   0   9   4 2513.08   49.74
   0   9   5  675.40   19.64
   0  -9   5  700.45   13.76
   0   9   5  694.39   18.71
   0  -9   6  803.57   15.82
   0   9  -6  814.66   21.88
   0   9   6  847.15   22.72
   0   9   6  796.57   21.42
   0  -9   7    2.87    1.08
   0   9  -7    0.74    1.78
   0   9   7    1.17    1.64
   0  -9   8  481.94   11.32
   0   9   8  491.17   16.93
   0   9   8  446.16   16.02
   0  -9   9    6.60    1.56
   0   9   9    2.62    2.23
   0  -9  10  287.37    8.99
   0   9  10  272.35   13.00
   0   9  11   27.83    4.56
   0  -9  11   19.81    2.50
   0  -9  12  119.77    6.22
   0   9 -12  115.07    4.55
   0   9  12  114.73    8.77
   0  -9  13   33.56    3.61
   0   9  13   35.71    5.28
   0  -9  14  251.64   10.28
   0   9  14  255.77   13.77
   0   9  15   -0.80    3.08
   0   9  16    7.39    3.62
   0   9  17    8.97    4.09
   0   9  18  183.23   12.66
   0 -10   0   82.71    4.31
   0  10   0   76.74    4.06
   0  10  -1 1033.94   21.03
   0  10   1 1089.26   25.63
   0  10   1 1034.30   22.37
   0 -10   1 1063.38   21.53
   0  10  -2  187.95    5.88
   0  10   2  201.85    9.23
   0  10   2  182.20    7.46
   0 -10   2  184.63    5.96
   0  10  -3 1105.64   20.98
   0  10   3 1119.97   27.20
   0  10   3 1080.85   24.76
   0 -10   3 1116.36   21.15
   0  10  -4   87.76    3.35
   0  10   4   89.30    6.44
   0  10   4   88.12    5.52
   0 -10   4   90.95    3.43
   0  10   5   -0.94    1.70
   0 -10   5    0.58    0.72
   0 -10   6   17.72    1.48
   0  10  -6   15.56    2.75
   0  10   6   22.46    3.77
   0  10   6   21.65    3.35
   0 -10   7    1.81    0.88
   0  10   7   -0.66    2.17
   0  10   7    3.48    1.77
   0 -10   8   35.17    2.38
   0  10   8   36.09    4.81
   0 -10   9  346.14    9.21
   0  10   9  349.77   14.81
   0 -10  10  225.75    7.43
   0  10  10  232.37   12.14
   0 -10  11  206.90    7.54
   0  10  11  212.40   11.94
   0  10  12   12.49    3.50
   0 -10  12    8.48    2.00
   0 -10  13  373.96   11.93
   0  10  13  384.43   17.28
   0  10  14  122.73   10.02
   0  10  15   16.86    4.41
   0  10  16   64.41    7.79
   0  10  17   24.29    5.65
   0  10  18   43.25    6.70
   0  11   0    0.24    1.12
   0  11  -1  109.41    4.77
   0  11   1  117.57    7.11
   0 -11   1  112.90    5.08
   0  11   1  110.35    5.40
   0  11  -2   71.58    3.51
   0  11   2   67.67    5.51
   0 -11   2   62.00    3.44
   0  11   2   66.48    4.48
   0  11  -3  635.87   13.56
   0  11   3  660.25   19.48
   0 -11   3  627.78   13.75
   0  11   3  627.48   17.03
   0  11  -4   23.12    1.77
   0 -11   4   20.11    1.71
   0  11   4   26.35    3.78
   0  11   4   21.18    3.02
   0  11   5  551.79   18.27
   0  11   5  538.13   16.70
   0 -11   5  556.05   11.61
   0  11   6  271.72   12.39
   0  11   6  252.43   11.02
   0 -11   6  262.20    6.55
   0  11   7  586.58   19.85
   0 -11   7  595.58   12.28
   0 -11   8   20.29    1.71
   0  11   8   19.06    3.91
   0 -11   9  235.12    6.75
   0  11   9  225.81   12.11
   0 -11  10   91.94    4.22
   0  11  10   90.38    7.76
   0 -11  11  335.96    9.59
   0  11  11  336.14   15.78
   0 -11  12    1.47    1.44
   0  11  12   -1.82    2.70
   0  11  13   48.19    6.46
   0  11  14   22.50    5.28
   0  11  15    6.85    3.43
   0  11  16   51.24    7.34
   0  11  17  242.93   14.96
   0  12   0    3.09    1.17
   0  12   0    5.72    2.20
   0  12  -1  969.86   20.57
   0  12   1 1002.28   25.69
   0  12   1  944.43   21.71
   0  12  -2  507.07   12.27
   0  12   2  531.56   17.37
   0 -12   2  510.64   12.67
   0  12   2  503.64   14.50
   0  12  -3  280.62    7.70
   0  12   3  280.02   12.25
   0  12   3  269.64   10.31
   0 -12   3  276.82    7.92
   0  12  -4   50.72    2.67
   0 -12   4   46.20    2.62
   0  12   4   45.83    5.26
   0  12   4   47.65    4.40
   0  12   5  340.54   14.28
   0 -12   5  336.05    8.03
   0  12   5  336.29   12.67
   0  12   6    4.77    2.51
   0 -12   6    3.91    0.92
   0  12   6    1.74    2.11
   0  12   7   33.64    4.88
   0 -12   7   25.80    1.68
   0  12   8   -1.87    2.52
   0 -12   8   -0.17    0.71
   0  12   9   27.52    4.62
   0 -12   9   31.22    2.05
   0 -12  10  132.84    4.66
   0  12  10  112.37    9.19
   0  12  11  598.80   22.60
   0  12  12   98.31    8.97
   0  12  13  318.59   16.62
   0  12  14   12.32    3.71
   0  12  15   76.37    8.62
   0  12  16    5.96    3.80
   0  13   0    0.36    1.23
   0  13   0   -0.52    2.14
   0  13  -1  276.00    8.74
   0  13   1  266.94   12.16
   0  13  -1  279.11   11.87
   0  13   1  284.24    9.82
   0  13   2    7.84    2.09
   0  13  -2    7.51    1.57
   0  13   2   11.54    3.02
   0  13  -3   90.85    4.08
   0  13   3   97.39    7.49
   0  13   3   85.44    5.79
   0  13  -4   35.95    2.35
   0  13   4   34.95    4.76
   0  13   4   34.27    4.01
   0 -13   4   33.35    2.42
   0  13   5  439.36   17.01
   0  13   5  437.00   15.06
   0 -13   5  415.82    9.63
   0  13   6  251.85   12.83
   0 -13   6  260.69    6.30
   0  13   7   57.51    6.37
   0 -13   7   59.96    2.31
   0  13   8   44.11    5.89
   0 -13   8   37.69    1.66
   0  13   9  176.90   11.61
   0 -13   9  163.70    4.22
   0  13  10  277.28   14.76
   0  13  11    7.34    3.94
   0  13  12   34.30    6.01
   0  13  13    1.40    3.78
   0  13  14    7.93    4.12
   0  13  15   65.94    8.03
   0  14   0  966.77   22.17
   0  14   0 1014.51   27.23
   0  14  -1   71.28    4.25
   0  14  -1   82.26    6.66
   0  14   1   73.15    6.43
   0  14   1   78.60    5.12
   0  14   2    4.22    1.90
   0  14  -2    5.04    1.36
   0  14  -2    8.68    2.53
   0  14   2    7.41    2.77
   0  14  -3  126.77    5.09
   0  14   3  120.42    8.57
   0  14   3  128.20    7.13
   0  14  -4  360.43    9.06
   0  14   4  357.87   15.62
   0  14   4  365.29   13.39
   0  14   5   33.24    5.08
   0  14   6   22.02    4.28
   0  14   7   15.77    4.31
   0  14   8   44.93    6.24
   0  14   9   -0.12    2.88
   0  14  10  360.09   17.50
   0  14  11  135.21   10.84
   0  14  12  324.21   17.43
   0  14  13   65.94    8.05
   0  14  14  298.59   17.29
   0  15   0    3.16    1.70
   0  15   0    8.99    3.26
   0  15  -1  127.42    5.95
   0  15  -1  116.38    8.07
   0  15   1  124.84    8.80
   0  15   1  115.67    6.39
   0  15   2   18.39    2.92
   0  15  -2   23.93    2.51
   0  15  -2   21.68    3.68
   0  15   2   21.96    4.11
   0  15  -3  221.26    7.22
   0  15   3  229.90   12.39
   0  15  -3  228.97   11.22
   0  15   3  228.55    9.94
   0  15  -4  660.14   14.20
   0  15   4  651.86   22.73
   0  15  -4  643.95   20.24
   0  15   4  657.52   19.57
   0  15   5   -0.82    2.80
   0  15  -5   -0.45    1.99
   0  15  -6   80.22    6.24
   0  15   6   80.76    7.83
   0  15   7  136.22   10.52
   0  15  -7  149.44    8.36
   0  15   8  142.31   10.76
   0  15  -8  160.35    8.40
   0  15   9   46.23    6.88
   0  15  -9   41.05    4.22
   0  15  10   46.46    7.03
   0  15  11    8.87    4.16
   0  15  12    1.95    3.27
   0  15  13   60.12    8.07
   0  16   0  545.36   15.28
   0  16   0  554.83   20.08
   0  16  -1    4.09    1.76
   0  16   1    5.05    2.13
   0  16   1    3.46    2.63
   0  16  -1    4.44    2.92
   0  16  -2  998.00   21.86
   0  16   2 1015.66   29.96
   0  16  -2  990.79   28.37
   0  16   2 1045.96   25.22
   0  16  -3   83.41    4.24
   0  16  -3   82.14    7.05
   0  16   3   76.48    7.61
   0  16   3   80.29    6.05
   0  16   4   34.01    5.43
   0  16  -4   23.54    4.17
   0  16   5    9.11    3.53
   0  16  -5    9.58    2.77
   0  16   6   -3.25    2.99
   0  16  -6    0.79    1.84
   0  16   7   18.18    4.94
   0  16  -7   16.92    3.37
   0  16   8  142.69   11.10
   0  16  -8  152.85    8.60
   0  16  -9   97.85    6.70
   0  16   9  102.64    9.77
   0  16  10  182.40   12.96
   0  16  11   94.07    9.68
   0  17   0    3.24    1.85
   0  17   0    0.06    2.88
   0  17   1  108.56    6.53
   0  17   1  105.30    8.81
   0  17  -1  101.75    8.35
   0  17   2   31.40    3.98
   0  17  -2   34.00    5.00
   0  17   2   34.60    5.56
   0  17   3  569.65   22.14
   0  17  -3  581.69   20.53
   0  17   4  123.87   10.12
   0  17  -4  105.28    8.14
   0  17   5  118.69    9.96
   0  17  -5  108.69    7.98
   0  17   6  131.34   10.68
   0  17  -6  123.26    8.40
   0  17  -7  234.13   11.42
   0  17   7  235.09   14.47
   0  17  -8   93.83    6.99
   0  17   8  109.99   10.22
   0  17   9   31.79    6.27
   0  17  10   92.67    9.56
   0  18   0  407.29   18.04
   0  18   1  218.28   13.01
   0  18  -1  218.12   12.72
   0  18   2   21.95    4.79
   0  18  -2   23.31    4.58
   0  18  -3  115.92    8.98
   0  18   3  137.00   10.76
   0  18   4   -2.51    3.34
   0  18  -4    2.53    2.53
   0  18   5   78.85    8.52
   0  18  -5   73.09    6.81
   0  18   6  123.36   10.63
   0  18  -6  119.68    8.60
   0  18   7   43.64    6.94
   0  18  -7   28.76    4.51
   0  18   8   11.37    4.28
   0  19   0   10.25    4.29
   0  19   1   12.18    4.11
   0  19  -1   18.07    4.36
   0  19   2   67.13    7.93
   0  19  -2   63.42    7.13
   0  19   3   25.41    5.08
   0  19  -3   29.47    5.15
   0  19   4    2.91    3.22
   0  19  -4    3.50    2.47
   0  19  -5  184.95   11.37
   0  19   5  201.16   13.79
   0  19   6   12.61    4.32
   0  19  -6   16.13    3.64
   0  19  -7   19.65    4.02
   0  20   0  365.08   18.28
   0  20  -1  193.94   13.00
   0  20   1  174.57   12.75
   0  20  -2    2.82    3.27
   0  20   2   -0.59    3.21
   0  20  -3  283.49   15.18
   0  20   3  304.10   17.23
   0  20  -4   48.71    6.36
   0  20   4   59.29    7.76
   0  20  -5   78.96    7.74
   0  20  -6    7.16    3.22
   0  21   0   -2.43    3.43
   0  21  -1   37.93    6.13
   0  21   1   38.08    6.53
   0  21  -2   -3.79    3.39
   0  21   2   -1.48    3.39
   0  21  -3   84.47    8.67
   0  21  -4   20.47    5.01
   0  21  -5   -1.63    3.09
   0  22  -1   14.84    4.78
   0  22  -2  100.25    9.78
   0  22  -3  144.30   11.60
   0  22  -4   11.71    4.10
  -1   0  19    2.83    3.22
  -1   0  18    5.65    4.33
  -1   0  17  389.93   18.54
  -1   0  16   -0.43    3.28
  -1   0  15   11.61    3.62
   1   0 -15    8.18    2.41
  -1   0  14    0.47    2.33
   1   0 -14   -0.33    1.68
   1   0 -13 1538.55   33.90
  -1   0  13 1586.90   38.54
   1   0 -12    0.97    1.59
  -1   0  12   -3.19    2.66
   1   0 -11  272.98   10.11
  -1   0  11  278.65   12.11
   1   0 -10    0.24    1.38
  -1   0  10    1.53    1.90
   1   0  -9  338.76   10.69
  -1   0   9  328.10   12.17
   1   0  -8   -0.94    1.15
  -1   0   8    0.64    1.76
   1   0  -7   14.91    2.10
  -1   0   7   15.42    2.47
   1   0  -6   -0.28    1.08
  -1   0   6   -2.04    1.52
   1   0  -5  340.48    9.15
  -1   0   5  330.47    9.51
   1   0  -4    5.10    1.28
  -1   0   4    4.05    1.47
   1   0  -3 4548.96   75.23
  -1   0   3 4423.98   74.71
  -1   0   2    0.77    0.54
   1   0  -2    0.74    0.63
   1   0  -1 1333.81   23.11
  -1   0   1 1309.73   23.13
   1   0   0    3.20    0.63
  -1   0   0    2.80    0.64
   1   0   1  676.12   12.41
  -1   0  -1  664.37   12.41
   1   0   2    1.30    0.72
  -1   0  -2    1.56    0.87
  -1   0  -3 2998.78   50.34
   1   0   3 2896.31   50.27
   1   0   4    0.43    0.67
   1   0   4    1.78    1.14
   1   0   5   18.07    1.52
   1   0   5   19.01    2.08
   1   0   6    0.23    0.78
   1   0   6    1.65    1.20
   1   0   7  120.85    4.53
   1   0   7  107.80    5.52
   1   0   8   -0.74    0.97
   1   0   8    1.19    1.48
   1   0   9 3449.22   60.32
   1   0   9 3406.58   63.95
   1   0  10    0.40    1.06
   1   0  10    0.99    1.66
   1   0  11  806.59   23.98
   1   0  11  804.65   18.50
   1   0  11  758.50   21.42
   1   0  12   10.66    3.65
   1   0  12    2.19    2.18
   1   0  13 1064.06   30.77
   1   0  14    4.99    3.67
   1   0  15   20.32    4.93
   1   0  16    5.71    4.07
   1   0  17   12.61    4.07
   1   0  18   -1.30    3.39
  -1   1  19  113.41   10.64
  -1   1  18  110.94   10.02
  -1  -1  18  106.36    9.93
  -1  -1  17   24.94    5.57
  -1   1  17   18.33    5.23
  -1   1  16    1.98    3.12
  -1  -1  16    0.24    2.80
  -1   1  15    1.07    2.68
  -1  -1  15    0.53    3.36
   1   1 -15    1.91    2.10
   1  -1 -15    2.56    1.97
   1  -1 -14  139.04    7.88
   1   1 -14  156.59    7.89
  -1  -1  14  161.65   10.33
  -1   1  14  156.96   10.14
   1   1 -13  566.43   16.32
   1  -1 -13  574.42   17.09
  -1  -1  13  545.81   19.50
  -1   1  13  616.18   20.61
   1  -1 -12  270.97   10.68
   1   1 -12  282.37   10.33
  -1  -1  12  247.60   12.04
   1   1 -11  777.35   19.20
   1  -1 -11  755.70   19.84
  -1   1  11  824.43   22.96
  -1  -1  11  762.15   22.17
   1   1 -10    6.77    1.66
   1  -1 -10    2.81    1.50
  -1   1  10   10.89    3.01
  -1  -1  10    6.59    2.34
   1  -1  -9  286.65    9.97
   1   1  -9  300.65    9.71
  -1  -1   9  292.33   11.29
   1   1  -8  237.26    8.08
   1  -1  -8  234.27    8.54
  -1  -1   8  227.73    9.25
  -1   1   7  807.59   18.68
   1   1  -7  809.85   17.79
   1  -1  -7  792.90   18.50
  -1  -1   7  788.90   19.33
   1  -1  -6  173.67    6.56
  -1   1   6  164.98    6.54
   1   1  -6  171.67    6.09
  -1  -1   6  164.15    6.69
  -1   1   5  481.43   12.18
   1   1  -5  488.62   11.52
   1  -1  -5  498.20   12.22
  -1  -1   5  469.28   12.07
  -1   1   4  968.04   20.07
   1  -1  -4  985.85   20.11
  -1  -1   4  983.27   19.75
   1   1  -4 1014.81   19.99
  -1   1   3  180.60    5.83
   1  -1  -3  192.62    5.86
  -1  -1   3  183.62    5.31
   1   1  -3  185.51    5.38
   1  -1  -2  204.44    5.76
  -1   1   2  208.18    5.84
  -1  -1   2  199.41    5.31
   1   1  -2  204.15    5.03
  -1  -1   1  823.44   15.05
   1   1  -1  812.94   15.04
   1  -1  -1  812.63   15.46
  -1   1   1  806.94   15.42
   1  -1   0  460.49    8.63
   1   1   0  446.86    9.13
  -1  -1   0  456.50    9.12
  -1   1   0  460.75    8.64
   1  -1   1 2827.85   47.33
   1  -1   1 2835.26   46.72
  -1   1  -1 2839.73   46.75
   1   1   1 2840.76   47.68
  -1  -1  -1 2850.40   47.73
   1  -1   2   11.94    1.52
   1  -1   2   10.96    1.01
  -1  -1  -2   14.13    1.59
  -1   1  -2   12.14    1.08
   1   1   2   15.21    1.51
   1   1   3 6416.09  106.76
  -1  -1  -3 6544.86  106.82
  -1   1  -3 6436.44  105.68
   1  -1   3 6378.87  105.64
  -1  -1  -4 4688.87   79.31
   1  -1   4 4632.85   78.12
   1   1   4 4674.17   79.20
   1   1   5  862.93   16.90
   1  -1   5  828.66   15.25
   1   1   5  842.23   18.32
   1  -1   5  850.53   17.55
   1  -1   6  366.65   11.88
   1   1   6  380.32    9.50
   1  -1   6  376.99    8.22
   1   1   6  379.09   10.90
   1  -1   6  385.77   10.38
   1  -1   7  522.97   15.54
   1   1   7  542.40   12.61
   1  -1   7  522.07   11.14
   1  -1   7  505.45   13.46
   1   1   7  504.71   14.17
   1  -1   8  400.81   14.04
   1  -1   8  430.26   10.04
   1   1   8  439.54   11.41
   1   1   8  411.88   12.96
   1  -1   8  417.54   12.51
   1  -1   9   18.18    3.39
   1   1   9   14.58    2.07
   1  -1   9   13.27    2.51
   1   1   9   14.57    2.79
   1  -1  10   85.22    6.71
   1   1  10   80.42    4.64
   1   1  10   72.79    5.46
   1  -1  10   77.24    5.42
   1  -1  11  190.54   10.42
   1   1  11  184.14    7.63
   1   1  11  181.68    9.18
   1  -1  11  193.54    9.16
   1  -1  12   -1.86    2.56
   1   1  12    1.26    1.59
   1  -1  12    3.26    1.88
   1   1  12   -0.33    2.36
   1   1  13  192.75   11.63
   1  -1  13  182.13   11.28
   1   1  13  210.60    8.69
   1  -1  14  123.40    9.65
   1   1  14  132.44    9.96
   1  -1  15   91.56    8.75
   1   1  15  105.64    9.29
   1  -1  16   30.47    5.88
   1   1  16   31.19    5.83
   1  -1  17   25.59    5.89
   1   1  17   22.07    5.20
   1  -1  18  302.05   17.28
   1   1  18  271.46   16.36
  -1   2  19  121.16   10.92
  -1   2  18   32.48    6.12
  -1  -2  18   35.67    6.21
  -1  -2  17   60.74    7.38
  -1   2  17   56.77    7.42
  -1  -2  16   47.26    6.60
  -1   2  16   53.96    6.84
  -1  -2  15   56.68    6.32
  -1   2  15   52.04    6.51
   1   2 -15   48.95    4.43
   1  -2 -15   58.57    5.39
  -1  -2  14   30.36    4.65
  -1   2  14   36.99    5.32
   1   2 -14   33.48    3.64
   1  -2 -14   35.71    4.24
   1   2 -13  502.02   14.76
   1  -2 -13  512.27   16.29
  -1   2  13  519.31   18.88
  -1  -2  13  490.96   18.28
   1  -2 -12  711.59   19.74
   1   2 -12  713.61   18.21
  -1   2  12  745.53   22.59
  -1  -2  12  678.22   21.59
   1  -2 -11  528.56   15.94
   1   2 -11  537.90   14.69
  -1  -2  11  539.20   17.74
  -1   2  10   22.93    3.06
   1   2 -10   19.78    2.50
   1  -2 -10   21.49    3.01
  -1  -2  10   22.08    3.37
   1  -2  -9    8.31    2.06
  -1   2   9   19.10    2.80
   1   2  -9   11.91    1.89
  -1  -2   9   16.22    2.88
   1   2  -8   21.77    2.35
   1  -2  -8   23.12    2.69
  -1   2   8   23.08    2.95
  -1  -2   8   24.60    3.14
   1   2  -7    2.94    1.23
  -1   2   7    1.04    1.56
   1  -2  -7    1.08    1.31
  -1  -2   7    2.58    1.59
  -1   2   6  304.45    9.74
   1  -2  -6  295.88    9.49
   1   2  -6  320.41   10.02
  -1  -2   6  310.73    9.76
  -1   2   5  766.28   17.61
   1  -2  -5  759.25   17.52
   1   2  -5  809.49   17.74
  -1  -2   5  800.31   17.49
   1  -2  -4  355.26    9.69
  -1   2   4  345.92    9.67
  -1  -2   4  356.28    9.30
   1   2  -4  349.74    9.27
   1  -2  -3   40.44    2.71
  -1   2   3   30.34    2.53
   1   2  -3   31.95    2.17
  -1  -2   3   33.59    2.15
  -1  -2   2 1985.23   34.10
  -1   2   2 1963.51   35.24
   1  -2  -2 1932.27   35.18
   1   2  -2 1974.04   34.14
   1   2  -1 3959.63   65.56
  -1  -2   1 3994.46   65.56
  -1   2   1 3950.99   66.32
   1  -2  -1 3869.15   66.28
  -1  -2   0  306.68    6.96
   1   2   0  309.86    6.91
   1  -2   0  295.93    6.89
  -1   2   0  296.91    6.86
  -1   2  -1   41.69    1.92
  -1   2  -1   40.34    1.68
   1  -2   1   45.15    1.79
   1   2   1   41.89    2.19
  -1  -2  -1   38.34    2.19
  -1   2  -2 2183.38   38.36
   1  -2   2 2198.96   38.31
   1   2   2 2208.35   38.58
   1  -2   2 2180.63   36.36
  -1   2  -2 2199.06   36.36
  -1  -2  -2 2238.18   38.66
  -1   2  -3 4103.72   70.18
   1  -2   3 4103.11   70.04
  -1  -2  -3 4139.02   69.96
   1   2   3 4019.43   69.94
   1  -2   3 4123.24   67.70
   1  -2   4    0.19    1.46
   1  -2   4    4.63    1.21
  -1  -2  -4    5.59    1.83
   1   2   4    2.59    1.27
   1  -2   5   11.78    2.14
   1   2   5   11.92    1.95
   1  -2   5   11.38    1.48
   1   2   5   12.17    1.67
   1  -2   6   28.18    3.15
   1   2   6   30.44    2.59
   1   2   6   35.31    3.21
   1  -2   6   29.90    2.49
   1  -2   7    4.81    2.23
   1   2   7    4.91    1.44
   1   2   7    3.46    1.55
   1  -2   7    2.02    1.25
   1  -2   8  583.58   17.65
   1   2   8  634.38   15.26
   1  -2   8  599.27   15.59
   1   2   8  621.05   17.00
   1  -2   9  130.05    7.81
   1   2   9  134.85    6.20
   1   2   9  126.68    7.06
   1  -2   9  137.94    6.68
   1  -2  10  654.80   20.47
   1   2  10  701.41   17.47
   1  -2  10  654.09   18.07
   1   2  10  679.19   19.46
   1  -2  11  606.02   20.14
   1   2  11  622.90   16.84
   1  -2  11  633.31   18.07
   1   2  11  622.55   19.11
   1  -2  12  163.55   10.06
   1   2  12  174.13    8.03
   1  -2  12  181.97    9.00
   1  -2  13   61.31    6.64
   1   2  13   59.88    4.82
   1  -2  13   58.37    5.31
   1  -2  14    3.69    3.78
   1   2  14    2.30    1.55
   1   2  15   77.09    8.11
   1  -2  15   74.44    7.98
   1   2  16   34.83    5.92
   1  -2  16   45.30    6.66
   1  -2  17    2.19    3.99
   1   2  17   -4.92    4.36
   1   2  18    4.19    3.83
   1  -2  18   10.96    4.60
  -1   3  19   -4.22    3.53
  -1  -3  18   16.23    4.40
  -1   3  18    8.80    3.66
  -1   3  17    0.83    3.40
  -1  -3  17   -1.60    3.06
  -1  -3  16  318.67   16.11
  -1   3  16  333.06   16.50
  -1  -3  15  225.98   12.94
  -1   3  15  224.44   13.01
  -1  -3  14   14.39    3.62
   1   3 -14   14.68    2.61
   1  -3 -14   17.85    3.30
  -1  -3  13   90.59    7.48
   1   3 -13  104.19    5.80
   1  -3 -13   94.60    6.69
  -1  -3  12   54.89    5.68
  -1   3  12   69.26    5.74
   1   3 -12   59.50    4.30
   1  -3 -12   48.23    4.62
  -1  -3  11    4.38    2.30
  -1   3  11    7.34    2.33
   1   3 -11    7.28    1.68
   1  -3 -11   10.60    2.50
   1  -3 -10 1201.61   28.16
  -1   3  10 1235.26   28.65
   1   3 -10 1250.66   25.88
  -1  -3  10 1183.68   29.33
   1   3  -9   29.58    2.76
   1  -3  -9   30.68    3.34
  -1   3   9   32.63    3.61
  -1  -3   9   26.06    3.39
   1  -3  -8 1241.34   27.62
  -1   3   8 1289.26   28.03
   1   3  -8 1271.26   25.43
  -1  -3   8 1203.09   27.97
  -1   3   7  151.32    7.05
   1  -3  -7  161.88    7.12
  -1  -3   7  167.30    7.32
   1   3  -7  167.47    7.53
  -1   3   6 1280.83   27.11
   1  -3  -6 1266.37   26.78
  -1  -3   6 1234.41   26.54
   1   3  -6 1309.43   27.05
   1  -3  -5  586.53   14.93
  -1   3   5  604.18   15.20
   1   3  -5  626.22   14.85
   1  -3  -4   79.89    4.25
  -1   3   4   87.31    4.61
   1   3  -4   77.33    3.96
  -1  -3   4   82.97    3.65
  -1  -3   3   87.89    3.51
   1  -3  -3   90.02    4.24
  -1   3   3   78.80    4.23
   1   3  -3   84.99    3.42
  -1  -3   2 1166.07   21.20
   1   3  -2 1149.27   21.19
   1  -3  -2 1129.31   22.53
  -1   3   2 1173.19   22.82
   1   3  -1  305.40    7.15
  -1  -3   1  303.90    7.17
   1  -3  -1  299.76    7.82
  -1   3   1  301.20    7.94
   1   3   0 2376.83   40.97
   1  -3   0 2345.72   41.09
  -1   3   0 2379.43   41.17
  -1  -3   0 2420.24   41.05
   1  -3   1   71.61    2.69
  -1   3  -1   74.44    2.82
  -1  -3  -1   75.52    3.32
   1   3   1   70.81    3.14
  -1   3  -2 9011.65  146.47
  -1   3  -2 8677.02  144.42
   1   3   2 9065.98  146.87
  -1  -3  -2 9258.92  146.96
  -1   3  -3 6509.07  108.08
   1  -3   3 6372.86  108.02
   1   3   3 6459.75  108.26
  -1  -3  -3 6585.33  108.33
   1  -3   3 6435.68  104.84
  -1   3  -4  959.26   20.11
   1  -3   4  912.42   19.81
   1   3   4  885.87   19.61
  -1  -3  -4  960.95   20.10
   1  -3   4  910.58   16.99
  -1   3  -5   61.30    4.14
   1  -3   5   74.95    4.48
   1   3   5   66.21    3.81
   1  -3   5   65.18    3.01
   1   3   5   74.38    4.31
   1  -3   6  413.62   12.59
   1   3   6  429.72   11.51
   1  -3   6  410.42   10.32
   1   3   6  420.50   12.41
   1  -3   7  132.86    6.96
   1   3   7  132.90    6.04
   1   3   7  131.02    6.68
   1  -3   7  131.17    5.46
   1  -3   8  369.63   13.12
   1   3   8  395.56   11.67
   1  -3   8  386.93   11.16
   1   3   8  379.17   12.77
   1  -3   9   82.93    6.29
   1   3   9   92.65    5.37
   1   3   9   87.54    6.05
   1  -3   9   92.87    5.29
   1  -3  10    8.29    2.74
   1   3  10   14.57    2.38
   1   3  10    9.18    2.59
   1  -3  10    8.53    2.33
   1  -3  11    7.11    2.99
   1   3  11    2.87    1.59
   1   3  11    3.10    1.94
   1  -3  11    5.81    2.18
   1  -3  12  178.32   10.60
   1   3  12  179.01    8.54
   1  -3  12  175.61    8.74
   1  -3  13    4.60    2.36
   1   3  13   10.00    2.42
   1  -3  13    8.31    2.35
   1  -3  14   24.44    4.99
   1   3  14   26.66    3.64
   1  -3  15   81.10    8.11
   1   3  15   81.98    6.27
   1  -3  16  801.29   28.34
   1   3  16  807.98   28.76
   1   3  16  844.54   23.35
   1  -3  17   81.57    8.73
   1   3  17  100.42    9.93
   1  -3  18   23.20    5.74
   1   3  18   26.39    5.42
  -1   4  18  114.25   10.15
  -1  -4  18  104.74   10.06
  -1   4  17    2.78    3.28
  -1  -4  17    5.73    2.97
  -1  -4  16  350.46   17.10
  -1   4  16  380.24   17.92
  -1  -4  15   33.53    5.41
  -1  -4  14  926.09   28.57
   1   4 -14  987.75   23.05
  -1  -4  13    3.05    3.16
  -1   4  13   -1.97    2.26
   1   4 -13   -1.71    1.47
   1  -4 -13    0.57    1.76
  -1  -4  12   35.51    4.50
  -1   4  12   36.26    4.35
   1   4 -12   36.51    3.33
   1  -4 -12   35.10    4.25
  -1   4  11  253.56   11.08
   1   4 -11  248.66    8.79
   1  -4 -11  255.33   10.88
  -1  -4  11  241.20   11.37
   1  -4 -10   88.48    6.00
   1   4 -10   91.89    4.82
  -1   4  10   81.16    5.96
  -1  -4  10   84.06    6.33
  -1   4   9  170.82    8.42
   1  -4  -9  173.38    8.19
   1   4  -9  175.99    6.67
  -1  -4   9  156.03    8.19
  -1   4   8  166.61    7.98
   1  -4  -8  157.71    7.61
   1   4  -8  171.07    8.21
  -1  -4   8  149.23    7.58
  -1   4   7   26.54    3.33
   1  -4  -7   23.28    2.84
   1   4  -7   22.66    2.88
   1  -4  -6   96.75    5.44
  -1   4   6  100.61    5.71
   1   4  -6   99.00    5.36
  -1  -4   6   90.62    4.46
  -1   4   5   89.88    5.15
   1  -4  -5   92.13    5.09
  -1  -4   5   87.61    4.07
   1   4  -5   92.71    4.83
  -1  -4   4 1908.11   34.25
   1  -4  -4 1830.38   36.54
  -1   4   4 1928.41   36.92
   1   4  -4 1959.66   36.07
  -1  -4   3  332.00    8.06
   1  -4  -3  328.00    9.62
  -1   4   3  342.29    9.88
   1   4  -3  317.71    8.00
   1   4  -2   95.03    3.53
  -1  -4   2   87.23    3.47
  -1   4   2   92.13    4.54
   1  -4  -2   95.31    4.43
  -1  -4   1 1834.26   32.42
   1   4  -1 1851.19   32.48
   1  -4  -1 1800.15   33.57
  -1   4   1 1855.88   33.79
   1   4   0  633.15   13.09
   1  -4   0  625.28   13.40
  -1   4   0  643.91   13.59
  -1  -4   0  616.17   13.15
  -1   4  -1 5454.21   90.28
  -1  -4  -1 5422.47   91.06
   1   4   1 5429.44   90.95
  -1   4  -2 9711.18  158.42
  -1   4  -2 9496.11  156.75
   1   4   2 9771.55  158.78
  -1  -4  -2 9636.68  158.87
  -1   4  -3   41.29    2.85
  -1   4  -3   43.86    1.93
   1   4   3   43.43    3.03
  -1  -4  -3   50.58    3.65
   1  -4   4 1755.01   34.06
  -1   4  -4 1816.44   34.28
  -1   4  -4 1749.52   29.72
   1  -4   4 1785.95   30.16
  -1  -4  -4 1817.69   34.46
   1   4   4 1768.71   34.26
  -1   4  -5    0.47    1.27
   1  -4   5    4.05    1.64
   1   4   5    1.23    1.29
   1  -4   5    2.42    1.03
   1   4   5    2.60    1.58
  -1   4  -6  224.60    8.80
   1  -4   6  212.82    8.52
   1   4   6  214.98    8.00
   1  -4   6  209.12    6.33
   1   4   6  219.86    8.59
   1  -4   7   50.54    4.40
   1   4   7   57.26    4.16
   1  -4   7   52.75    3.24
   1   4   7   59.08    4.56
   1  -4   8   44.95    4.32
   1   4   8   48.81    3.95
   1   4   8   48.72    4.37
   1  -4   8   51.68    3.55
   1  -4   9  300.37   12.26
   1   4   9  321.81   11.03
   1   4   9  306.54   12.03
   1  -4   9  312.64   10.10
   1  -4  10  705.87   21.56
   1   4  10  740.04   19.68
   1  -4  10  742.81   18.72
   1   4  10  760.73   21.53
   1  -4  11  100.50    7.55
   1   4  11  111.92    6.82
   1  -4  11  108.17    6.26
   1  -4  12  514.26   19.04
   1   4  12  535.82   16.82
   1  -4  12  547.20   16.38
   1  -4  13   67.10    6.72
   1   4  13   65.30    5.59
   1  -4  13   71.88    5.61
   1  -4  14  197.08   12.21
   1   4  14  223.18   10.55
   1  -4  14  215.21   10.34
   1  -4  15    4.32    3.49
   1   4  15    5.88    2.37
   1  -4  16  101.90    9.58
   1   4  16  128.62    8.31
   1   4  17  126.06   11.26
   1  -4  17  138.84   11.30
   1   4  17  138.92    8.80
   1   4  18   12.33    4.96
  -1   5  18   74.80    8.52
  -1   5  17   12.12    4.26
  -1  -5  16    3.29    3.19
  -1  -5  15   26.74    5.10
  -1   5  15   31.75    4.82
  -1  -5  14   22.70    4.38
   1   5 -14   25.09    3.04
  -1   5  14   20.72    3.84
  -1  -5  13  945.33   28.23
   1   5 -13 1022.88   22.96
  -1   5  13 1000.68   27.57
  -1  -5  12   32.33    4.45
  -1   5  12   39.66    4.90
   1   5 -12   29.72    2.97
   1  -5 -12   27.23    3.81
  -1  -5  11   19.35    3.48
   1   5 -11   19.14    2.40
  -1   5  11   18.88    3.43
   1  -5 -11   23.71    3.49
   1   5 -10  383.12   11.05
  -1   5  10  372.30   13.82
   1  -5 -10  366.65   13.50
   1   5  -9 1495.43   33.70
  -1   5   9 1429.10   32.89
   1  -5  -9 1392.24   32.25
  -1  -5   8 1302.58   27.42
   1   5  -8 1378.71   30.75
  -1   5   8 1356.86   30.67
   1  -5  -8 1306.00   29.93
   1   5  -7    2.93    1.63
  -1  -5   7    2.30    1.21
  -1   5   7    2.48    1.88
   1  -5  -7    3.59    1.71
   1  -5  -6  887.27   21.82
  -1   5   6  940.01   22.50
   1   5  -6  972.51   21.97
  -1  -5   6  913.78   19.49
  -1  -5   5  623.33   13.91
  -1   5   5  642.28   16.73
   1  -5  -5  607.04   16.22
   1   5  -5  638.98   15.92
  -1  -5   4   45.47    2.70
  -1   5   4   47.45    3.79
   1  -5  -4   48.21    3.75
  -1  -5   3  145.78    4.76
   1   5  -3  137.93    4.69
   1  -5  -3  133.57    5.97
  -1   5   3  133.23    6.05
  -1  -5   2  154.72    4.92
   1   5  -2  155.41    4.92
   1  -5  -2  155.73    6.16
  -1   5   2  154.45    6.25
   1   5  -1  134.26    4.57
   1  -5  -1  125.07    5.25
  -1   5   1  138.49    5.58
  -1  -5   1  140.13    4.70
   1   5   0 1800.80   32.80
  -1   5   0 1879.40   33.76
  -1  -5   0 1795.86   32.95
  -1   5   0 1808.78   31.44
  -1   5  -1 3440.63   58.47
  -1   5  -1 3386.42   55.60
  -1  -5  -1 3370.24   58.86
   1   5   1 3403.65   58.71
  -1   5  -2 1119.52   21.26
   1   5   2 1114.37   22.67
  -1  -5  -2 1139.06   22.78
  -1   5  -3    1.15    1.20
   1   5   3    2.98    1.39
  -1  -5  -3    0.99    1.80
  -1   5  -3    2.79    0.93
  -1   5  -4 2249.65   42.14
  -1   5  -4 2221.27   38.14
   1   5   4 2236.75   42.31
  -1  -5  -4 2270.12   42.48
  -1   5  -5 5414.24   93.06
  -1   5  -5 5299.94   87.17
   1   5   5 5409.02   92.75
  -1  -5  -5 5391.95   93.33
   1   5   5 5398.36   93.12
   1  -5   5 5287.80   87.59
   1  -5   6  509.40   14.88
  -1   5  -6  549.00   15.32
   1   5   6  551.30   14.75
   1   5   6  522.47   14.96
   1  -5   6  507.69   11.28
  -1   5  -7  299.93   11.26
   1  -5   7  288.80   10.94
   1   5   7  289.61   10.32
   1   5   7  300.03   11.03
   1  -5   7  284.81    8.04
   1  -5   8 1243.57   29.21
   1   5   8 1282.91   27.99
   1  -5   8 1199.83   24.71
   1   5   8 1217.97   28.98
   1  -5   9  188.04    9.54
   1   5   9  196.50    8.86
   1   5   9  196.75    9.54
   1  -5   9  190.55    7.28
   1  -5  10    6.77    2.43
   1   5  10    6.45    2.28
   1   5  10    5.50    2.30
   1  -5  10    6.94    1.79
   1  -5  11   80.33    6.70
   1   5  11   91.86    6.47
   1  -5  11   87.29    5.36
   1  -5  12   17.54    3.95
   1   5  12   13.10    2.75
   1  -5  12   13.48    2.59
   1  -5  13   -0.14    2.45
   1   5  13   -0.33    2.22
   1  -5  13   -1.00    1.82
   1  -5  14  160.22   10.98
   1   5  14  168.82    9.42
   1  -5  14  156.13    8.50
   1  -5  15   39.23    6.27
   1   5  15   39.86    4.90
   1  -5  16  287.33   16.14
   1   5  16  309.75   13.86
   1  -5  17  133.82   11.09
   1   5  17  138.53    9.17
  -1  -6  18    5.73    2.94
  -1   6  18   12.70    5.32
  -1  -6  17  193.03   11.17
  -1  -6  16  145.36    9.24
  -1   6  16  164.95   10.80
  -1  -6  15   19.81    3.79
  -1   6  15   27.44    4.72
  -1  -6  14   81.89    6.30
  -1   6  14   94.00    7.71
  -1  -6  13   69.89    5.69
   1   6 -13   73.11    4.67
  -1   6  13   75.74    6.87
  -1  -6  12  711.40   20.05
  -1   6  12  781.95   23.13
   1   6 -12  747.97   17.99
  -1  -6  11  231.52    9.70
  -1   6  11  273.19   12.15
   1  -6 -11  250.79   11.45
   1   6 -11  263.15    8.90
   1   6 -10   34.09    4.45
  -1  -6  10   19.98    2.78
  -1   6  10   21.96    3.60
   1  -6 -10   24.94    3.64
   1   6  -9  398.21   14.48
  -1  -6   9  387.49   11.79
  -1   6   9  388.43   14.21
   1  -6  -9  402.88   14.18
  -1  -6   8  329.34   10.27
   1   6  -8  372.88   13.12
   1  -6  -8  336.77   12.56
  -1   6   8  358.17   13.10
   1   6  -7    0.25    1.57
  -1  -6   7    2.39    1.52
  -1   6   7    3.96    2.14
   1  -6  -7   -1.46    1.66
  -1  -6   6    0.32    1.12
   1   6  -6    0.50    1.40
  -1   6   6   -1.18    2.06
   1  -6  -6    2.11    1.73
  -1  -6   5   54.55    3.08
   1  -6  -5   49.58    4.03
  -1   6   5   53.83    4.36
   1   6  -5   57.26    4.17
  -1  -6   4  380.51    9.34
  -1   6   4  363.68   11.72
   1  -6  -4  373.24   11.79
   1   6  -4  374.49    9.35
   1   6  -3  646.99   13.82
  -1  -6   3  645.58   13.84
   1  -6  -3  647.93   16.51
  -1   6   3  672.23   16.73
   1   6  -2  776.58   15.98
  -1  -6   2  788.07   16.05
  -1   6   2  784.65   18.42
  -1  -6   1   14.70    1.77
   1   6  -1   15.29    1.71
  -1   6   1   14.52    2.14
  -1   6   1   15.59    1.66
  -1   6   0  186.93    6.74
  -1   6   0  179.69    5.04
   1   6   0  186.45    6.00
  -1  -6   0  185.82    6.15
   1   6   1   29.94    2.50
  -1   6  -1   31.77    2.58
  -1  -6  -1   35.26    2.73
  -1   6  -1   30.26    1.45
  -1   6  -2 2283.21   41.17
  -1  -6  -2 2338.88   42.50
   1   6   2 2304.56   42.33
  -1   6  -3  707.06   16.53
  -1   6  -3  695.11   14.55
  -1  -6  -3  701.90   16.66
   1   6   3  656.74   16.26
  -1   6  -4  811.41   19.07
  -1   6  -4  812.89   16.06
   1   6   4  811.56   19.21
  -1  -6  -4  798.42   19.31
   1  -6   5  207.86    4.67
  -1   6  -5  215.75    8.45
   1   6   5  222.28    8.73
  -1   6  -5  210.63    5.57
  -1  -6  -5  200.66    8.48
   1   6   5  205.42    8.37
   1  -6   5  207.86    4.70
  -1   6  -6    6.95    2.06
   1   6   6    6.62    2.12
   1   6   6    5.50    2.23
   1  -6   6    4.66    0.99
  -1   6  -7    3.97    1.99
   1   6   7    1.04    1.66
   1   6   7    3.77    1.77
   1  -6   7    3.24    1.02
  -1   6  -8  465.10   15.56
   1   6   8  487.80   14.90
   1   6   8  456.09   15.18
   1  -6   8  427.84   11.13
   1  -6   9   75.45    6.08
   1   6   9   77.77    5.69
   1  -6   9   71.49    4.07
   1   6   9   75.58    6.05
   1  -6  10  137.99    8.65
   1   6  10  152.67    8.30
   1  -6  10  147.49    6.49
   1  -6  11  122.24    8.51
   1   6  11  125.46    7.76
   1  -6  11  124.87    6.29
   1  -6  12  322.87   14.81
   1   6  12  332.37   13.64
   1  -6  12  325.71   11.37
   1  -6  13  277.71   14.14
   1   6  13  278.36   12.59
   1  -6  13  273.44   10.82
   1  -6  14    1.07    2.77
   1   6  14    0.09    2.39
   1  -6  14    3.14    1.96
   1  -6  15   39.21    6.24
   1   6  15   46.43    5.34
   1  -6  16   12.26    4.34
   1   6  16    4.39    2.60
   1  -6  17   38.55    6.35
   1   6  17   46.21    5.77
  -1  -7  17  209.53   11.43
  -1   7  17  241.03   13.64
  -1  -7  16   35.15    4.63
  -1   7  16   31.52    5.26
  -1  -7  15    7.10    2.70
  -1   7  15    3.46    2.74
  -1  -7  14    2.15    2.00
  -1   7  14    1.90    2.69
  -1  -7  13    4.42    1.89
  -1   7  13    6.19    2.81
   1   7 -13   10.20    2.06
  -1  -7  12   36.05    3.91
  -1   7  12   34.31    4.90
   1   7 -12   28.90    2.98
  -1  -7  11 1233.36   28.29
  -1   7  11 1325.20   32.92
  -1  -7  10   60.86    4.58
  -1   7  10   57.57    5.66
   1   7  -9  788.26   22.14
  -1  -7   9  707.83   17.91
  -1   7   9  763.62   22.00
  -1   7   9  761.30   22.05
  -1  -7   8    0.54    1.30
   1   7  -8    1.32    1.57
  -1   7   8    1.21    2.08
  -1   7   8   -1.24    1.92
  -1  -7   7 1661.20   32.87
  -1   7   7 1759.35   37.97
   1  -7  -7 1702.93   37.45
  -1   7   7 1729.11   37.47
  -1  -7   6   58.85    3.40
   1   7  -6   58.60    4.68
   1  -7  -6   56.45    4.82
  -1   7   6   58.24    4.96
  -1   7   6   59.97    4.75
  -1  -7   5  521.41   12.17
  -1   7   5  533.82   15.71
  -1   7   5  492.34   14.58
  -1  -7   4   25.81    2.17
   1   7  -4   22.69    2.05
  -1   7   4   22.25    3.00
  -1   7   4   20.42    2.60
   1   7  -3  211.99    6.37
  -1  -7   3  202.78    6.29
  -1   7   3  202.92    8.41
  -1   7   3  204.44    7.49
   1   7  -2  138.29    4.98
  -1   7   2  145.51    6.71
  -1  -7   2  134.50    5.01
  -1   7   2  143.81    5.59
   1   7  -1  500.89   11.83
  -1   7   1  522.91   13.91
  -1  -7   1  518.63   12.05
  -1   7   1  494.77   11.72
   1   7   0    3.82    1.29
  -1   7   0    4.62    1.62
  -1  -7   0    4.39    1.33
  -1   7   0    3.18    0.95
  -1   7  -1  217.85    7.50
  -1   7  -1  216.53    5.29
  -1  -7  -1  224.45    7.48
   1   7   1  215.40    7.20
  -1   7  -2   45.22    3.04
   1   7   2   37.42    3.03
  -1  -7  -2   37.93    3.22
  -1   7  -3 4355.06   74.47
  -1  -7  -3 4459.77   76.93
   1   7   3 4234.13   76.61
  -1   7  -4  608.16   15.86
  -1   7  -4  580.48   13.16
   1   7   4  588.06   15.76
  -1  -7  -4  600.18   16.00
  -1   7  -5  765.47   18.99
  -1   7  -5  702.53   14.86
   1   7   5  716.51   18.90
   1   7   5  723.15   18.75
   1  -7   6  579.93   10.98
  -1   7  -6  585.35   16.85
   1   7   6  589.37   16.82
  -1   7  -6  581.37   12.14
   1   7   6  566.18   16.65
   1  -7   6  562.93   11.01
  -1   7  -7 1265.74   29.18
   1  -7   7 1190.91   22.16
  -1   7  -7 1217.73   21.92
   1   7   7 1233.64   28.41
   1   7   7 1178.67   28.54
   1  -7   7 1194.84   22.28
  -1   7  -8   83.95    6.32
   1  -7   8   84.04    3.71
   1   7   8   82.52    6.03
  -1   7  -8   84.65    2.74
   1   7   8   85.68    6.25
   1  -7   8   78.55    3.68
  -1   7  -9  104.62    7.44
   1   7   9  102.15    6.89
   1  -7   9   97.42    4.54
   1   7  10    9.48    2.62
   1  -7  10    7.14    1.79
   1   7  11   67.01    5.92
   1  -7  11   65.03    4.28
   1   7  12   87.25    6.96
   1  -7  12   81.46    5.17
   1   7  13  202.04   11.00
   1  -7  13  192.88    8.61
   1   7  14    5.59    2.71
   1   7  15  295.47   14.23
   1   7  16   13.67    3.90
   1   7  17   77.90    7.54
  -1   8  18   -2.93    3.59
  -1   8  17  110.79    9.68
  -1   8  16   49.58    6.64
  -1  -8  16   45.44    4.97
  -1   8  15  115.64    9.28
  -1  -8  15  124.08    7.91
  -1   8  14   71.28    7.20
  -1  -8  14   71.90    5.76
  -1   8  13   13.52    3.56
   1   8 -13   22.82    2.66
  -1  -8  13   22.37    3.27
   1   8 -12  163.72    7.01
  -1   8  12  176.71   10.60
  -1  -8  12  164.47    8.03
  -1  -8  11  154.81    7.50
  -1   8  11  162.79    9.93
  -1  -8  10  177.15    7.63
  -1   8  10  183.27   10.33
  -1  -8   9  145.60    6.48
  -1   8   9  154.43    9.08
  -1  -8   8   -1.52    1.47
   1   8  -8    2.34    1.77
  -1   8   8    0.68    2.13
  -1   8   8   -0.47    2.01
  -1  -8   7   89.78    4.41
   1   8  -7   91.79    6.33
  -1   8   7   91.12    6.59
  -1   8   7   80.05    6.02
  -1  -8   6   84.12    4.11
   1   8  -6   90.16    5.91
  -1   8   6   82.91    6.08
  -1   8   6   81.84    5.67
  -1  -8   5   45.96    2.93
  -1   8   5   48.51    4.51
  -1   8   5   52.95    4.27
  -1  -8   4  605.46   13.55
   1   8  -4  604.85   13.59
  -1   8   4  606.56   17.36
  -1   8   4  585.20   15.93
   1   8  -3 1607.50   30.02
  -1   8   3 1614.88   34.23
  -1   8   3 1622.55   32.15
  -1  -8   3 1581.61   29.94
   1   8  -2  723.21   15.78
  -1   8   2  754.16   18.95
  -1  -8   2  737.91   15.96
  -1   8   2  721.30   16.63
   1   8  -1  621.25   14.16
  -1   8   1  633.80   16.51
  -1  -8   1  627.56   14.44
  -1   8   1  602.16   13.93
   1   8   0    0.77    1.12
  -1  -8   0    1.71    1.39
  -1   8   0    4.06    1.82
  -1   8   0    1.06    0.80
  -1   8  -1  770.80   18.10
   1   8   1  746.00   17.36
  -1   8  -1  770.80   14.75
  -1  -8  -1  765.36   17.65
  -1   8  -2  378.34    7.59
  -1   8  -2  404.26   11.16
   1   8   2  378.45   11.20
  -1  -8  -2  399.60   11.48
  -1   8  -3 1690.31   32.33
   1   8   3 1659.35   33.85
  -1  -8  -3 1662.72   34.17
  -1   8  -4   80.13    5.13
  -1   8  -4   80.58    4.10
   1   8   4   84.81    5.28
  -1  -8  -4   85.08    5.40
  -1   8  -5    0.71    1.70
  -1   8  -5    1.98    1.25
   1   8   5    0.22    1.59
   1   8   5    2.35    1.97
  -1   8  -6  381.21   13.07
   1   8   6  357.36   12.93
  -1   8  -6  348.17    9.08
   1   8   6  372.60   12.99
   1  -8   7  686.73   13.00
  -1   8  -7  706.43   20.06
  -1   8  -7  700.03   14.33
   1   8   7  683.39   19.70
   1   8   7  675.76   19.65
   1  -8   7  670.13   13.04
   1  -8   8  120.42    4.18
  -1   8  -8  125.73    7.88
  -1   8  -8  127.51    4.08
   1   8   8  123.87    7.65
   1   8   8  119.41    7.54
   1  -8   8  117.68    4.16
   1  -8   9  409.93   10.19
   1   8   9  409.21   15.01
  -1   8  -9  413.95    8.42
   1  -8   9  410.79   10.24
   1  -8  10    4.00    1.32
   1   8  10    1.50    2.14
   1  -8  10    6.23    1.45
   1  -8  11  288.97    9.29
   1   8  11  306.02   13.33
   1  -8  11  293.61    9.37
   1  -8  12   16.30    2.45
   1   8  12   21.11    3.94
   1  -8  12   25.08    2.86
   1   8  13  463.46   17.95
   1   8  14   12.55    3.60
   1   8  15  197.68   11.88
   1   8  16    2.40    3.24
   1   8  17   -1.05    3.19
  -1   9  18   57.39    7.42
  -1   9  17   85.12    8.78
  -1   9  16   52.14    6.96
  -1  -9  15   96.05    6.95
  -1   9  15  105.92    9.21
  -1   9  14    4.67    3.03
  -1  -9  14    2.04    2.08
  -1  -9  13  194.98    9.05
  -1   9  13  192.33   11.79
  -1   9  12   25.81    4.64
  -1  -9  12   31.99    3.62
  -1   9  11   15.54    3.71
  -1  -9  11   14.94    2.50
  -1   9  10   17.29    3.91
  -1  -9  10   17.02    2.47
  -1  -9   9  980.54   21.88
  -1   9   9 1005.26   27.75
  -1  -9   8  661.59   15.83
  -1   9   8  675.13   20.97
  -1   9   8  663.90   20.25
  -1  -9   7  828.51   18.34
   1   9  -7  875.88   23.29
  -1   9   7  832.48   23.62
  -1   9   7  838.11   22.98
  -1  -9   6  108.89    4.78
   1   9  -6  111.12    6.90
  -1   9   6  109.52    7.19
  -1   9   6  114.04    6.82
  -1  -9   5  545.88   12.94
   1   9  -5  544.40   12.94
  -1   9   5  561.25   17.41
  -1   9   5  570.89   16.22
   1   9  -4  354.84    9.51
  -1   9   4  364.05   13.09
  -1   9   4  366.41   11.73
  -1  -9   4  355.11    9.52
  -1  -9   3   26.89    2.34
   1   9  -3   24.80    2.27
  -1   9   3   28.26    3.69
  -1   9   3   26.65    2.90
   1   9  -2  228.90    7.31
  -1   9   2  256.34   10.00
  -1   9   2  217.69    7.77
  -1  -9   2  236.32    7.56
   1   9  -1  791.03   17.52
  -1   9   1  834.33   20.47
  -1  -9   1  787.98   17.83
  -1   9   1  792.09   17.44
   1   9   0  359.53   10.36
  -1   9   0  376.09   11.97
  -1  -9   0  384.81   10.79
  -1   9   0  347.36    9.07
  -1   9  -1  590.88   15.60
   1   9   1  567.78   14.58
  -1   9  -1  581.02   12.13
  -1  -9  -1  592.29   15.05
   1   9   2    2.13    1.31
  -1   9  -2    3.03    0.67
  -1   9  -2    2.08    1.28
  -1  -9  -2    1.11    1.62
  -1   9  -3  436.07   12.24
  -1  -9  -3  437.51   13.32
   1   9   3  436.28   12.98
  -1   9  -4  233.17    8.06
   1   9   4  237.81    9.47
  -1  -9  -4  230.67    9.50
  -1   9  -5 2503.42   49.19
  -1   9  -5 2442.44   44.74
   1   9   5 2450.32   49.70
   1   9   5 2386.19   48.41
  -1   9  -6  685.54   19.32
   1   9   6  643.22   19.27
  -1   9  -6  634.12   14.80
   1   9   6  643.60   18.73
  -1   9  -7   24.09    3.52
   1   9   7   16.30    3.12
   1   9   7   23.38    3.67
  -1   9  -7   17.07    1.86
   1  -9   8   41.59    1.99
   1   9   8   42.78    4.76
  -1   9  -8   39.16    2.50
   1  -9   8   40.47    1.96
   1  -9   9  101.73    3.86
   1   9   9  104.64    7.44
  -1   9  -9  106.74    3.72
   1  -9   9  103.14    3.88
   1  -9  10   -0.49    1.04
   1   9  10    1.27    2.20
  -1   9 -10   -0.63    0.40
  -1   9 -10   -0.25    0.41
   1  -9  10   -0.70    1.19
   1  -9  11  104.94    4.88
   1   9  11  115.01    8.35
   1  -9  11   99.45    4.67
   1  -9  12   49.48    3.58
   1   9  12   48.71    5.78
   1  -9  12   55.92    3.76
   1   9  13  340.31   15.56
   1  -9  13  318.87   10.62
   1   9  14  103.04    8.71
   1   9  15  384.25   17.43
   1   9  16  135.31   10.41
   1   9  17   52.51    6.75
   1   9  18   71.03    7.98
  -1  10  18   32.20    5.97
  -1  10  17   19.25    5.42
  -1  10  16    5.63    3.82
  -1  10  15    7.26    4.01
  -1 -10  14  156.74    8.21
  -1  10  14  167.39   11.45
  -1  10  13    2.70    2.97
  -1 -10  13    3.17    1.93
  -1  10  12   36.31    5.49
  -1 -10  12   38.94    3.82
  -1 -10  11   23.33    2.85
  -1  10  11   24.81    4.51
  -1 -10  10  381.92   11.52
  -1  10  10  383.68   16.33
  -1 -10   9    4.43    1.61
  -1  10   9    1.96    2.38
  -1 -10   8   86.20    4.58
  -1  10   8   93.20    7.49
  -1 -10   7   25.97    2.42
  -1  10   7   20.51    3.70
  -1  10   7   19.65    3.16
  -1 -10   6  103.60    4.71
  -1  10   6  124.45    7.99
  -1  10   6  102.31    6.66
   1  10  -5  273.10    8.13
  -1  10   5  273.77   11.81
  -1  10   5  278.89   10.66
  -1 -10   5  263.76    8.06
   1  10  -4  182.59    6.35
  -1  10   4  197.02    9.62
  -1 -10   4  180.20    6.39
  -1  10   4  176.26    7.98
   1  10  -3  893.51   18.95
  -1  10   3  912.90   23.63
  -1 -10   3  902.91   19.16
  -1  10   3  847.36   20.72
   1  10  -2  688.82   15.76
  -1  10   2  706.00   19.44
  -1  10   2  675.14   16.58
  -1 -10   2  670.34   15.85
   1  10  -1  192.22    6.95
  -1  10   1  194.02    8.77
  -1 -10   1  186.11    7.05
  -1  10   1  178.41    6.64
   1  10   0 2627.23   48.90
  -1  10   0 2695.61   51.75
  -1  10   0 2639.64   47.16
  -1 -10   0 2716.45   49.39
  -1  10  -1  117.66    6.33
  -1  10  -1  102.25    3.93
  -1 -10  -1  103.56    5.68
   1  10   1  103.21    5.33
  -1  10  -2   87.81    3.09
  -1  10  -2   86.84    5.30
   1  10   2   85.66    5.09
  -1 -10  -2   89.51    5.48
   1  10   3   17.51    2.57
  -1 -10  -3   16.90    2.80
  -1  10  -3   17.70    2.46
  -1  10  -4  668.56   16.79
   1  10   4  653.28   18.31
  -1 -10  -4  698.94   18.87
  -1  10  -5    2.92    1.68
  -1  10  -5    6.68    1.60
   1  10   5    0.55    1.84
   1  10   5    2.36    1.87
  -1  10  -6  152.25    8.41
   1  10   6  140.79    8.49
  -1  10  -6  145.30    6.06
   1  10   6  143.06    8.02
   1  10   7  191.62   10.06
  -1  10  -7  181.41    6.63
  -1  10  -8  276.93    8.15
   1  10   8  276.82   12.66
   1 -10   9   14.58    1.18
   1  10   9   13.67    3.44
  -1  10  -9   17.28    1.80
   1 -10   9   14.25    1.20
   1 -10  10  658.22   13.36
  -1  10 -10  644.93   12.90
   1  10  10  638.43   21.54
   1 -10  10  631.32   13.34
   1 -10  11   35.15    2.57
   1  10  11   36.82    5.15
   1 -10  11   30.68    2.31
   1 -10  12  572.88   13.78
   1  10  12  558.96   20.79
   1  10  13   18.12    4.28
   1  10  14   92.44    8.54
   1  10  15  103.68    9.13
   1  10  16   -2.94    2.91
   1  10  17    1.06    3.19
   1  10  18   -6.06    4.09
  -1  11  17   71.31    8.41
  -1  11  16   64.69    7.74
  -1  11  15    5.66    3.78
  -1  11  14   12.58    3.95
  -1 -11  13   -2.19    1.71
  -1  11  13   -0.72    3.05
  -1 -11  12    8.95    2.11
  -1  11  12   14.84    4.18
  -1 -11  11  357.87   11.24
  -1  11  11  340.74   16.26
  -1 -11  10  637.63   16.08
  -1  11  10  655.80   22.84
  -1 -11   9   -0.06    1.29
  -1  11   9    1.12    2.49
  -1 -11   8  490.38   12.64
  -1  11   8  494.71   18.50
  -1 -11   7  103.16    4.78
  -1  11   7  103.08    7.85
  -1  11   7  107.03    7.26
  -1  11   6  918.49   25.80
  -1  11   6  900.90   23.89
  -1 -11   6  903.49   19.35
  -1 -11   5    2.43    1.31
   1  11  -5    6.01    1.55
  -1  11   5    5.22    2.57
  -1  11   5    4.01    2.05
   1  11  -4   44.41    3.05
  -1  11   4   46.01    4.96
  -1  11   4   37.88    3.85
  -1 -11   4   41.11    3.03
   1  11  -3   21.18    2.28
  -1  11   3   18.88    3.50
  -1  11   3   20.22    2.81
  -1 -11   3   19.61    2.28
   1  11  -2   26.46    2.59
  -1  11   2   22.46    3.43
  -1  11   2   22.83    2.66
  -1 -11   2   26.79    2.66
   1  11  -1  645.89   15.78
  -1  11   1  676.26   19.16
  -1  11   1  645.26   15.59
  -1 -11   1  645.67   16.14
   1  11   0  799.63   18.95
  -1  11   0  828.12   21.63
  -1 -11   0  814.15   19.44
  -1  11   0  819.30   17.61
  -1  11  -1  155.17    7.69
  -1 -11  -1  132.88    6.67
   1  11   1  136.54    6.43
  -1  11  -1  135.46    4.85
  -1  11  -2 1447.91   26.12
  -1  11  -2 1482.74   31.91
   1  11   2 1475.06   31.06
  -1 -11  -2 1429.36   31.46
  -1  11  -3   74.45    2.36
  -1  11  -3   79.33    5.21
   1  11   3   78.65    5.28
  -1 -11  -3   77.61    5.56
   1  11   4  160.86    8.97
  -1  11  -4  152.56    7.12
   1  11   4  149.68    7.77
  -1  11  -5  189.42    9.40
  -1  11  -5  167.80    7.30
   1  11   5  160.08    9.20
   1  11   5  174.78    8.75
  -1  11  -6  784.45   18.76
   1  11   6  785.84   23.28
   1  11   6  786.69   22.09
  -1  11  -7    4.85    1.54
   1  11   7   15.45    3.76
   1  11   8   54.50    5.79
  -1  11  -8   62.53    3.81
   1  11   9    2.71    2.41
  -1  11  -9   -0.32    1.03
   1  11  10   42.48    5.51
  -1  11 -10   42.82    2.60
   1  11  11   20.06    4.30
   1  11  12  120.64    9.49
   1  11  13    4.57    3.17
   1  11  14   78.94    8.28
   1  11  15   -1.64    3.04
   1  11  16  239.21   14.76
   1  11  17   21.65    5.12
  -1  12  16  230.88   14.94
  -1  12  15    3.22    2.95
  -1  12  14  160.50   12.12
  -1  12  13   30.27    5.67
  -1  12  12  508.71   21.37
  -1 -12  11   74.38    4.62
  -1  12  11   78.90    8.23
  -1 -12  10   41.87    3.38
  -1  12  10   44.35    6.09
  -1 -12   9    7.22    1.69
  -1  12   9    5.81    2.72
  -1 -12   8   70.17    4.07
  -1  12   8   72.08    7.23
  -1 -12   7    0.54    1.18
  -1  12   7    0.83    2.64
  -1  12   6  606.51   20.51
  -1 -12   6  582.01   14.15
  -1  12   6  598.93   18.41
   1  12  -5    2.45    1.29
  -1  12   5    1.85    1.97
  -1 -12   5    3.26    1.25
   1  12  -4  189.80    6.88
  -1  12   4  189.70   10.30
  -1 -12   4  203.89    7.23
  -1  12   4  197.97    8.90
   1  12  -3  246.92    8.20
  -1  12   3  255.58   11.74
  -1  12   3  246.39    9.56
  -1 -12   3  253.83    8.47
   1  12  -2 1329.64   27.45
  -1  12   2 1381.08   32.81
  -1 -12   2 1342.09   27.87
  -1  12   2 1351.38   28.54
   1  12  -1  363.41   11.01
  -1  12   1  391.72   14.28
  -1  12   1  366.81   10.89
  -1 -12   1  361.54   11.30
   1  12   0   50.66    3.84
  -1  12   0   46.98    4.74
  -1  12   0   43.19    3.05
  -1 -12   0   44.24    3.87
  -1  12  -1  153.88    8.03
  -1 -12  -1  150.73    7.40
  -1  12  -1  147.13    5.30
   1  12   1  136.29    6.72
  -1  12  -2  541.43   11.66
  -1  12  -2  564.98   16.68
   1  12   2  532.09   15.53
  -1 -12  -2  536.46   15.98
  -1  12  -3  102.65    3.07
  -1  12  -3   94.93    6.04
   1  12   3  103.84    6.24
  -1 -12  -3  104.05    6.55
  -1  12  -4   85.71    5.58
   1  12   4   98.94    7.24
   1  12   4   82.20    5.88
  -1  12  -5  116.46    6.40
   1  12   5  128.43    8.54
   1  12   5  140.69    7.84
   1  12   6    6.86    2.82
  -1  12  -6   14.64    2.50
   1  12   7  115.61    8.50
  -1  12  -7  119.78    6.00
   1  12   8  108.51    8.39
  -1  12  -8  117.11    5.64
   1  12   9   -0.74    2.61
  -1  12  -9    2.14    1.29
   1  12  10  206.43   12.22
  -1  12 -10  200.70    6.67
   1  12  11  250.43   13.79
   1  12  12  567.24   22.11
   1  12  13   67.20    7.83
   1  12  14   95.20    9.48
   1  12  15   50.29    6.95
   1  12  16   89.85    9.24
  -1  13  15   25.10    5.41
  -1  13  14    0.53    3.74
  -1  13  13    4.42    3.34
  -1  13  12   26.65    5.71
  -1  13  11  294.81   15.88
  -1 -13  10   98.58    4.93
  -1  13  10   98.33    9.03
  -1  13   9  345.26   16.39
  -1 -13   9  333.04    9.77
  -1  13   8 1013.68   30.30
  -1 -13   8 1008.22   21.35
  -1  13   7  350.46   15.84
  -1 -13   7  358.93   10.09
  -1  13   6   61.31    6.43
  -1 -13   6   58.14    3.67
   1  13  -5   24.93    2.52
  -1  13   5   28.48    4.37
  -1  13   5   22.21    3.40
  -1 -13   5   26.64    2.50
   1  13  -4  154.56    6.26
  -1  13   4  156.15    9.75
  -1 -13   4  165.97    6.60
  -1  13   4  163.51    8.16
   1  13  -3   49.05    3.53
  -1  13   3   45.56    5.45
  -1  13   3   45.41    4.05
  -1 -13   3   50.98    3.72
   1  13  -2   21.36    2.55
  -1  13   2   17.97    3.76
  -1 -13   2   20.99    2.64
  -1  13   2   19.67    2.77
   1  13  -1  296.84    9.94
  -1  13   1  311.17   13.07
  -1  13   1  302.78    9.84
  -1 -13   1  295.17   10.31
   1  13   0  329.66   10.86
  -1  13   0  316.15   12.97
  -1  13   0  322.25    9.61
  -1 -13   0  326.61   11.31
  -1  13  -1    5.69    1.35
   1  13   1    7.30    2.05
  -1 -13  -1   10.85    2.45
  -1  13  -1    8.01    2.53
  -1  13  -2   40.54    2.44
   1  13   2   36.94    3.75
  -1  13  -2   51.95    4.81
  -1 -13  -2   41.69    4.14
  -1  13  -3   66.44    2.51
   1  13   3   74.58    6.54
  -1  13  -3   73.65    5.62
   1  13   3   78.54    5.55
   1  13   4  111.77    8.22
  -1  13  -4   90.01    6.08
   1  13   4   94.26    6.48
  -1  13  -5   37.70    3.91
   1  13   5   50.75    5.65
   1  13   6   90.91    7.66
  -1  13  -6   98.79    5.96
   1  13   7  180.13   11.04
  -1  13  -7  191.03    8.22
  -1  13  -8   13.56    2.43
   1  13   8    9.50    3.46
   1  13   9    9.53    3.70
  -1  13  -9   11.76    2.13
  -1  13 -10   82.94    4.38
   1  13  10   82.74    8.24
   1  13  11   -1.11    3.05
   1  13  12   -4.52    3.73
   1  13  13    2.74    3.19
   1  13  14  110.26   10.07
   1  13  15    4.41    3.34
  -1  14  14   34.54    6.52
  -1  14  13  145.53   11.82
  -1  14  12    3.33    3.50
  -1  14  11   53.56    7.19
  -1  14  10    8.97    3.63
  -1  14   9   26.95    5.08
  -1  14   8    0.35    3.07
  -1 -14   8   -0.32    1.12
  -1  14   7   51.42    6.47
  -1 -14   7   50.80    3.35
  -1  14   6    3.74    3.30
  -1 -14   6   -0.14    1.20
   1  14  -5   14.12    2.07
  -1  14   5   10.66    3.11
  -1 -14   5   11.74    1.98
  -1  14   5    8.86    2.51
   1  14  -4    0.97    1.19
  -1  14   4    1.62    2.32
  -1 -14   4   -0.08    1.36
  -1  14   4   -0.54    1.79
   1  14  -3  408.06   11.70
  -1  14   3  401.01   16.36
  -1 -14   3  409.87   12.10
  -1  14   3  397.32   13.30
   1  14  -2    1.85    1.59
  -1  14   2    3.84    2.86
  -1  14   2    4.22    1.82
  -1 -14   2    5.82    1.90
   1  14  -1  684.30   17.62
  -1  14   1  711.50   22.00
  -1  14   1  678.79   17.23
  -1 -14   1  704.61   18.31
   1  14   0  312.87   10.89
  -1  14   0  310.77   13.43
  -1 -14   0  306.94   11.21
  -1  14   0  315.29    9.69
   1  14   1  119.40    6.68
  -1  14  -1  130.20    5.29
  -1  14  -1  135.10    8.31
  -1 -14  -1  140.96    7.52
  -1  14  -2    0.45    0.94
   1  14   2    1.98    1.69
  -1  14  -2   -0.15    1.90
  -1  14  -3   62.82    2.53
  -1  14  -3   58.47    5.32
   1  14   3   63.27    5.20
   1  14   3   65.77    6.40
   1  14   4    2.53    2.56
  -1  14  -4    2.15    1.87
  -1  14  -5  313.95   12.12
   1  14   5  322.87   14.94
  -1  14  -6   75.10    5.53
   1  14   6   70.91    7.00
  -1  14  -7    6.48    2.26
   1  14   7    2.61    2.79
   1  14   8  122.71    9.64
  -1  14  -8  124.43    6.68
  -1  14  -9  289.96   10.21
   1  14   9  307.69   15.76
   1  14  10  114.42    9.92
   1  14  11   60.90    7.37
   1  14  12   43.73    6.65
   1  14  13  246.44   15.26
   1  14  14    5.34    3.96
  -1  15  12   11.98    4.53
  -1  15  11   61.80    7.62
  -1  15  10   92.55    9.11
  -1  15   9  292.11   16.01
  -1  15   8    6.35    3.09
  -1  15   7   31.81    5.49
  -1 -15   7   32.88    2.71
  -1  15   6   66.33    7.32
  -1 -15   6   60.89    3.79
   1  15  -5  124.21    5.50
  -1  15   5  121.54    9.39
  -1 -15   5  116.83    5.53
   1  15  -4   59.61    3.93
  -1  15   4   60.57    6.76
  -1  15   4   60.47    5.19
  -1 -15   4   60.12    4.13
   1  15  -3   57.91    4.11
  -1  15   3   52.33    6.24
  -1 -15   3   52.19    4.11
  -1  15   3   53.93    4.70
   1  15  -2  107.47    5.78
  -1  15   2  115.59    8.64
  -1  15   2  110.81    6.37
  -1 -15   2  119.51    6.35
   1  15  -1   12.98    2.41
  -1  15   1   11.26    2.23
  -1  15   1    9.09    3.24
  -1 -15   1   12.12    2.42
   1  15   0    2.08    1.87
  -1  15   0    2.93    1.65
  -1  15   0    3.26    2.71
  -1 -15   0    3.91    2.42
  -1  15  -1  536.03   13.18
   1  15   1  524.95   15.88
  -1  15  -1  536.52   18.70
  -1  15  -2  174.76    5.77
   1  15   2  176.19   10.78
  -1  15  -2  171.04    9.71
   1  15   2  174.10    8.56
  -1  15  -3   29.87    1.77
   1  15   3   31.05    4.08
  -1  15  -3   25.90    3.95
   1  15   3   30.82    4.99
  -1  15  -4   92.52    6.83
   1  15   4  114.10    8.96
   1  15   5  476.46   19.05
  -1  15  -5  434.51   15.39
  -1  15  -6  329.56   12.83
   1  15   6  355.52   16.77
   1  15   7  278.35   15.06
  -1  15  -7  287.46   11.45
  -1  15  -8    5.38    2.14
   1  15   8    4.97    3.01
   1  15   9    3.94    3.10
   1  15  10   24.32    5.10
   1  15  11   41.21    6.53
   1  15  12   -2.00    4.21
   1  15  13   17.22    4.56
  -1  16  11  350.96   18.98
  -1  16  10   44.18    7.22
  -1  16   9   -3.83    3.88
  -1  16   8    3.19    3.11
  -1  16   7   21.54    5.03
  -1  16   6    3.34    2.87
  -1  16   5   74.27    7.85
  -1 -16   5   71.71    4.31
  -1  16   4   56.00    6.98
  -1 -16   4   53.73    3.95
   1  16  -3  331.49   10.66
  -1  16   3  329.61   15.62
  -1 -16   3  336.22   11.12
  -1  16   3  312.92   12.09
  -1  16   2   11.99    2.57
   1  16  -2   12.22    2.53
  -1  16   2    8.49    3.35
  -1 -16   2    6.49    2.10
   1  16  -1  908.68   22.58
  -1  16   1  970.86   28.57
  -1 -16   1  942.81   23.62
  -1  16   1  965.39   22.48
   1  16   0   28.42    3.53
  -1  16   0   23.35    2.85
  -1  16   0   22.51    4.44
   1  16   1  353.85   12.68
  -1  16  -1  351.80   10.14
  -1  16  -1  353.30   15.23
   1  16   1  351.67   15.87
   1  16   2   71.54    5.62
  -1  16  -2   79.94    3.76
  -1  16  -2   73.09    6.60
   1  16   2   67.92    7.16
  -1  16  -3   37.63    4.86
   1  16   3   45.86    6.09
  -1  16  -4   14.77    3.40
   1  16   4   19.06    4.44
  -1  16  -5   33.84    4.42
   1  16   5   48.45    6.45
  -1  16  -6   11.10    2.89
   1  16   6   17.78    4.56
  -1  16  -7  146.44    8.23
   1  16   7  143.03   11.03
   1  16   8   38.13    6.17
  -1  16  -8   38.88    4.07
   1  16   9   88.72    9.39
   1  16  10    0.48    3.31
   1  16  11  404.39   20.20
  -1  17  10  227.41   15.40
  -1  17   9  184.07   13.40
  -1  17   8  135.75   11.37
  -1  17   7   85.78    8.96
  -1  17   6   91.70    9.09
  -1  17   5   26.14    5.21
  -1  17   4   31.12    5.46
  -1 -17   4   31.90    3.24
  -1  17   3    3.33    3.13
  -1 -17   3    3.32    1.73
  -1  17   2   -2.21    2.29
  -1  17   2    1.87    3.23
   1  17  -1    4.02    2.36
  -1  17   1    7.50    3.81
   1  17  -1    3.73    2.76
   1  17   0   20.45    3.15
  -1  17   0   25.70    4.91
   1  17   0   19.04    4.12
   1  17   1  278.09   11.28
  -1  17  -1  257.43   13.29
   1  17   1  258.80   14.06
  -1  17  -2  178.22   10.79
   1  17   2  185.81   11.99
   1  17   3  381.93   17.62
  -1  17  -3  354.12   15.38
  -1  17  -4    6.98    2.78
   1  17   4    9.55    3.86
  -1  17  -5  378.71   15.43
   1  17   5  428.11   19.26
  -1  17  -6  178.98    9.92
   1  17   6  191.42   12.86
   1  17   7   37.27    6.17
  -1  17  -7   36.72    4.36
   1  17   8    2.20    3.28
   1  17   9   10.65    3.81
   1  17  10   73.01    8.72
  -1  18   8   -2.61    3.15
  -1  18   7    8.18    3.05
  -1  18   6   81.31    8.90
  -1  18   5    2.62    3.49
  -1  18   4  363.37   18.01
  -1  18   3  144.78   11.03
   1  18  -3  117.78    9.34
   1  18  -2  441.84   18.79
  -1  18   2  474.16   20.11
  -1  18   1   62.89    7.16
   1  18  -1   45.51    6.44
  -1  18   0   64.21    7.12
   1  18   0   80.28    8.01
  -1  18  -1   60.71    6.81
   1  18   1   58.97    7.02
   1  18   2  416.60   18.82
  -1  18  -2  375.72   16.72
  -1  18  -3   29.58    4.96
   1  18   3   28.41    5.56
  -1  18  -4   43.42    5.50
   1  18   4   38.12    6.07
   1  18   5    3.18    3.47
  -1  18  -5    4.28    2.46
  -1  18  -6  167.43    9.95
   1  18   6  156.31   12.12
   1  18   7    5.54    2.93
   1  18   8   97.18    9.96
   1  19  -7   38.71    5.34
   1  19  -6  221.48   12.68
  -1  19   6  243.82   15.45
  -1  19   5   36.86    6.59
   1  19  -5   35.73    5.32
  -1  19   4  201.44   13.62
   1  19  -4  176.40   11.58
  -1  19   3   24.21    5.11
   1  19  -3   33.47    5.69
  -1  19   2    2.51    3.52
   1  19  -2    5.28    3.09
  -1  19   1   -2.41    3.98
   1  19  -1   -2.70    2.85
  -1  19   0   32.16    5.57
   1  19   0   38.05    5.77
  -1  19  -1   21.61    4.65
   1  19   1   20.00    4.69
  -1  19  -2  170.16   11.41
   1  19   2  190.98   12.91
  -1  19  -3    9.60    3.54
   1  19   3   15.28    5.00
  -1  19  -4  183.23   11.39
   1  19   4  202.39   13.70
  -1  19  -5   15.99    3.46
   1  19   5    7.26    3.13
  -1  19  -6   15.52    3.75
   1  19   6   30.03    5.67
   1  20  -7   59.39    6.78
   1  20  -6   40.16    5.98
   1  20  -5    4.30    3.67
  -1  20   4   26.25    5.91
   1  20  -4   20.34    4.76
  -1  20   3   15.39    4.81
   1  20  -3   19.02    4.81
  -1  20   2  199.77   13.63
   1  20  -2  187.33   12.79
  -1  20   1    4.34    3.28
   1  20  -1   -0.42    3.35
  -1  20   0    6.97    3.92
   1  20   0    1.84    3.11
  -1  20  -1    4.07    3.42
   1  20   1    4.42    3.93
  -1  20  -2  260.39   14.70
   1  20   2  293.43   16.59
  -1  20  -3   83.30    8.21
   1  20   3   67.56    8.37
  -1  20  -4    8.10    3.76
   1  20   4   10.84    4.17
  -1  20  -5   54.57    6.48
   1  21  -6    7.16    3.57
   1  21  -5    7.77    3.89
   1  21  -4   14.86    4.26
   1  21  -3   34.12    5.92
  -1  21   2    0.28    2.92
   1  21  -2   -0.95    3.00
  -1  21   1   -0.73    3.30
   1  21  -1    4.23    2.88
  -1  21   0  140.51   11.35
   1  21   0  127.41   10.83
  -1  21  -1   46.71    6.41
   1  21   1   73.36    8.52
  -1  21  -2   75.08    8.25
  -1  21  -3  277.81   15.39
  -1  21  -4   30.05    5.55
   1  22  -5  135.84   11.16
   1  22  -4   62.82    7.68
   1  22  -3  175.36   12.72
   1  22  -2   13.92    4.72
  -1  22   0   11.22    4.78
  -1  22  -1   18.14    5.14
  -1  22  -2    8.26    4.21
  -1  22  -3   15.22    4.85
  -2   0  19   -2.20    3.86
  -2   0  18  252.57   14.86
  -2   0  17    0.09    3.65
  -2   0  16   44.57    6.09
   2   0 -15   -4.05    2.22
  -2   0  15    1.33    2.79
   2   0 -14 1137.74   28.75
  -2   0  14 1178.82   31.64
   2   0 -13   -0.91    1.79
  -2   0  13   -2.10    2.30
   2   0 -12   94.60    6.32
  -2   0  12   94.94    7.01
   2   0 -11   -1.65    1.66
  -2   0  11   -1.71    1.76
   2   0 -10  111.02    6.45
  -2   0  10   98.25    6.36
   2   0  -9   -0.41    1.42
  -2   0   9    3.45    2.00
   2   0  -8 3639.30   65.23
  -2   0   8 3474.22   64.80
   2   0  -7    2.02    1.45
  -2   0   7    1.76    1.45
   2   0  -6   27.88    2.88
  -2   0   6   23.46    2.43
   2   0  -5   -1.23    1.27
  -2   0   5   -0.38    1.10
  -2   0   4 1660.14   29.85
   2   0  -3    0.99    0.81
  -2   0   3    1.69    0.73
  -2   0   3    1.40    1.51
   2   0  -2  402.77    7.82
   2   0  -2  406.52    9.77
  -2   0   2  411.22    9.90
  -2   0   1    0.62    1.30
   2   0  -1    0.84    1.01
   2   0   0 4881.28   81.75
  -2   0   0 4922.93   81.75
   2   0   1    0.70    0.87
  -2   0  -1    0.66    1.06
   2   0   2  338.30    8.42
  -2   0  -2  356.72    8.63
   2   0   3    1.95    1.08
  -2   0  -3    7.85    1.59
   2   0   4  253.10    7.60
  -2   0  -4  255.83    7.63
   2   0   5    5.31    1.43
  -2   0  -5   -0.68    1.27
  -2   0  -6   50.27    3.56
   2   0   6   49.08    3.52
   2   0   7    0.93    0.79
   2   0   7    3.03    1.60
   2   0   8 2375.42   42.20
   2   0   8 2383.14   46.02
   2   0   9   -0.37    0.91
   2   0   9   -0.47    1.64
   2   0  10 1778.00   33.40
   2   0  10 1724.75   37.45
   2   0  11   -0.56    1.08
   2   0  11    1.57    1.64
   2   0  12  827.99   26.08
   2   0  12  880.76   19.35
   2   0  12  825.34   23.37
   2   0  13   -1.69    2.53
   2   0  14  191.80   12.43
   2   0  15    0.45    2.99
   2   0  16   -0.56    3.59
   2   0  17    1.67    3.54
  -2   1  19   46.42    6.68
  -2  -1  19   47.19    7.03
  -2   1  18    1.72    3.36
  -2  -1  18    0.56    3.29
  -2   1  17   14.73    4.26
  -2  -1  17   23.49    5.23
  -2   1  16   11.13    3.80
  -2  -1  16    5.26    2.98
   2   1 -15   33.82    4.24
  -2   1  15   34.15    5.14
  -2  -1  15   29.67    4.73
   2  -1 -14    2.32    1.84
   2   1 -14   -0.84    2.01
  -2   1  14    1.95    2.56
  -2  -1  14    1.83    2.69
   2  -1 -13   57.10    5.22
   2   1 -13   65.60    5.30
  -2   1  13   70.64    6.59
  -2  -1  13   60.35    5.96
   2  -1 -12  255.38   10.81
   2   1 -12  243.70   10.38
  -2  -1  12  230.51   11.14
  -2   1  12  253.59   11.63
   2   1 -11   45.19    4.35
   2  -1 -11   53.60    4.79
  -2  -1  11   44.60    4.73
  -2   1  11   57.28    5.27
   2   1 -10  202.78    8.82
   2  -1 -10  209.22    9.19
  -2   1  10  201.83    9.38
  -2  -1  10  195.47    9.17
   2   1  -9 1366.79   29.28
   2  -1  -9 1378.19   30.08
  -2   1   9 1354.76   30.13
  -2  -1   9 1272.04   29.53
   2  -1  -8  953.21   22.47
   2   1  -8  931.43   21.72
  -2   1   8  919.27   21.90
  -2  -1   8  901.87   21.70
   2  -1  -7   26.73    3.07
   2   1  -7   21.59    2.61
  -2   1   7   23.70    2.82
  -2  -1   7   17.73    2.36
   2  -1  -6 2679.54   49.59
  -2   1   6 2617.37   48.09
  -2  -1   6 2655.66   48.16
   2  -1  -5   52.54    3.74
   2   1  -5   54.84    3.34
  -2   1   5   56.10    3.23
  -2  -1   5   53.14    3.17
   2  -1  -4  165.10    6.43
  -2   1   4  156.99    5.02
  -2  -1   4  158.65    6.04
   2   1  -4  162.41    5.33
   2  -1  -3   18.56    2.17
  -2  -1   3   19.88    2.17
  -2   1   3   16.59    1.30
   2   1  -3   18.00    1.53
  -2   1   2  556.28   12.24
   2   1  -2  551.56   12.24
  -2  -1   2  522.21   12.15
   2  -1  -1  926.87   17.92
   2   1  -1  907.31   18.16
  -2  -1   1  909.50   18.19
  -2   1   1  939.82   17.93
  -2  -1   0  615.87   13.03
   2   1   0  613.00   12.94
  -2   1   0  599.61   12.43
   2  -1   0  603.42   12.43
  -2  -1  -1 1914.61   34.10
   2  -1   1 1894.72   33.21
  -2   1  -1 1894.33   33.21
   2   1   1 1899.97   33.97
   2  -1   2  326.87    7.74
  -2   1  -2  326.03    7.82
   2   1   2  319.43    8.39
  -2  -1  -2  323.69    8.51
   2   1   3    9.21    1.57
   2  -1   3    7.77    1.22
  -2   1  -3   12.73    1.62
  -2  -1  -3   14.48    2.04
  -2  -1  -4  362.70    9.98
   2   1   4  357.13    9.89
   2  -1   4  369.24    9.23
  -2   1  -4  364.04    9.21
  -2   1  -5  885.91   18.43
   2  -1   5  841.59   18.28
   2   1   5  883.07   19.33
  -2  -1  -5  875.31   19.27
   2  -1   6  492.97    9.95
   2  -1   6  483.91   12.50
   2   1   6  505.85   13.44
  -2  -1  -6  494.20   13.37
   2   1   7  836.05   17.50
   2  -1   7  824.93   15.74
   2  -1   7  826.51   19.08
   2   1   7  818.91   19.87
   2  -1   8  151.37    8.35
   2   1   8  146.77    5.69
   2  -1   8  153.04    4.73
   2   1   8  159.98    7.52
   2  -1   8  157.76    6.99
   2  -1   9 1041.62   27.28
   2   1   9 1060.43   22.06
   2  -1   9 1047.71   20.12
   2   1   9 1044.12   25.10
   2  -1   9 1018.69   24.09
   2  -1  10  322.41   13.65
   2  -1  10  310.54    8.17
   2   1  10  305.03    9.59
   2  -1  10  298.20   11.19
   2   1  10  310.02   11.95
   2  -1  11    5.66    2.81
   2   1  11    8.03    1.88
   2  -1  11    3.75    2.03
   2   1  11   10.35    2.55
   2  -1  12  350.30   15.64
   2   1  12  350.50   10.94
   2  -1  12  341.44   13.11
   2   1  13   66.60    4.60
   2  -1  13   63.05    6.88
   2   1  14   64.31    4.58
   2  -1  14   69.95    7.61
   2   1  14   64.99    7.48
   2   1  15   95.07    9.08
   2  -1  15   87.39    8.67
   2   1  16  194.98   13.41
   2  -1  16  226.60   14.16
   2   1  17   27.41    5.60
   2  -1  17   18.62    4.58
  -2   2  19   87.36    9.10
  -2  -2  19   81.33    8.91
  -2  -2  18   31.83    5.64
  -2   2  18   30.18    6.00
  -2   2  17   13.58    4.25
  -2  -2  17    6.01    3.41
  -2   2  16   43.36    6.02
  -2  -2  16   40.64    5.88
   2   2 -15  263.04   11.30
  -2  -2  15  262.59   13.61
  -2   2  15  275.38   13.90
   2   2 -14   89.10    6.29
  -2  -2  14   90.53    7.62
  -2   2  14   96.50    7.82
   2  -2 -13    1.33    1.66
   2   2 -13   -2.67    2.18
  -2  -2  13    1.42    2.22
  -2   2  13    0.94    2.19
   2   2 -12  245.51   10.23
   2  -2 -12  256.74   11.13
  -2  -2  12  230.93   11.18
  -2   2  12  253.37   11.80
   2  -2 -11   68.68    5.53
   2   2 -11   65.92    4.97
  -2   2  11   80.20    6.14
  -2  -2  11   62.79    5.54
   2   2 -10  244.76    9.54
   2  -2 -10  253.87   10.51
  -2  -2  10  230.53   10.14
  -2   2  10  251.89   10.64
   2  -2  -9   43.72    4.14
   2   2  -9   44.46    3.77
  -2  -2   9   42.95    4.10
   2   2  -8   17.30    2.46
   2  -2  -8   23.81    3.05
  -2  -2   8   16.03    2.40
   2  -2  -7   37.36    3.58
   2   2  -7   27.66    3.00
  -2  -2   7   29.89    2.99
   2  -2  -6 1860.24   37.22
  -2  -2   6 1843.62   35.53
   2   2  -6 1869.08   36.02
   2  -2  -5   15.41    2.35
  -2  -2   5   18.35    2.37
   2   2  -5   21.27    2.19
   2  -2  -4   32.72    2.98
  -2  -2   4   31.09    2.74
   2   2  -4   32.81    2.37
  -2  -2   3  287.88    8.12
   2  -2  -3  274.77    8.66
   2   2  -3  287.90    8.08
  -2  -2   2 2512.60   44.06
   2   2  -2 2507.86   44.09
   2  -2  -2 2454.53   44.90
   2   2  -1  238.99    6.83
  -2  -2   1  239.79    6.85
   2  -2  -1  228.79    6.99
  -2   2   1  233.11    6.38
   2   2   0  153.66    5.18
  -2  -2   0  155.87    5.28
  -2   2   0  146.92    4.47
   2  -2   0  153.14    4.51
  -2   2   0  153.66    3.70
   2  -2   0  138.47    4.92
   2  -2   1 1966.86   34.26
   2   2   1 1983.15   35.82
   2  -2   1 1980.84   34.33
  -2   2  -1 1997.57   34.36
  -2  -2  -1 2025.29   36.01
   2  -2   2 2436.04   42.97
   2  -2   2 2444.71   41.82
  -2   2  -2 2445.16   41.80
  -2  -2  -2 2477.61   43.84
   2   2   2 2465.29   43.67
   2  -2   3  706.10   15.76
   2  -2   3  706.91   14.08
  -2  -2  -3  721.61   15.98
  -2   2  -3  715.37   14.12
   2   2   3  705.55   15.86
   2  -2   4 1139.16   24.41
  -2   2  -4 1170.79   22.11
   2  -2   4 1179.55   22.12
  -2  -2  -4 1212.65   24.27
   2   2   4 1144.62   23.97
   2  -2   5   35.70    3.51
   2   2   5   40.32    3.26
  -2   2  -5   36.21    2.59
  -2  -2  -5   42.68    3.58
   2  -2   5   41.29    2.70
   2  -2   6   33.62    3.68
   2   2   6   28.13    2.95
   2  -2   6   28.90    2.52
  -2  -2  -6   39.55    3.48
   2  -2   7 1698.81   37.15
   2   2   7 1777.95   33.57
   2  -2   7 1757.44   33.93
   2   2   7 1774.29   36.04
   2  -2   8 1686.18   38.18
   2   2   8 1790.85   34.10
   2  -2   8 1758.72   34.84
   2   2   8 1762.02   36.84
   2  -2   9  117.82    7.65
   2   2   9  107.04    5.37
   2   2   9  114.61    6.72
   2  -2   9  112.09    5.95
   2  -2  10  374.34   14.97
   2   2  10  380.48   11.57
   2  -2  10  373.73   12.47
   2   2  10  400.01   14.03
   2  -2  11  210.50   11.33
   2   2  11  213.21    8.47
   2  -2  11  209.66    9.28
   2   2  11  201.63   10.03
   2  -2  12   -0.51    2.96
   2   2  12    2.55    1.36
   2  -2  12    6.05    2.11
   2  -2  13    6.99    2.90
   2   2  13    9.48    2.31
   2  -2  13    7.48    1.94
   2   2  14   44.85    4.14
   2  -2  14   35.76    5.69
   2   2  15    5.40    2.16
   2  -2  15    6.24    3.12
   2   2  15    8.94    4.86
   2  -2  16   23.26    5.62
   2   2  16   25.07    5.60
   2  -2  17   80.84    8.84
   2   2  17   81.41    8.95
  -2   3  19   59.21    7.73
  -2  -3  18   26.93    5.43
  -2   3  18   41.87    6.52
  -2  -3  17  103.73    9.59
  -2   3  17   99.70    9.21
  -2  -3  16   21.79    4.37
  -2   3  16   35.51    5.54
   2   3 -15   31.87    3.97
  -2  -3  15   23.73    4.59
   2   3 -14    2.66    2.08
  -2  -3  14   -0.01    2.49
  -2   3  14    4.33    2.45
   2   3 -13   60.15    5.06
   2  -3 -13   52.96    5.35
  -2   3  13   62.86    6.18
  -2  -3  13   55.69    5.72
   2  -3 -12  489.92   16.60
   2   3 -12  479.58   14.94
  -2   3  12  496.66   17.27
  -2  -3  12  457.56   16.62
   2  -3 -11 1573.84   35.22
   2   3 -11 1520.93   32.84
  -2  -3  11 1480.02   34.96
   2  -3 -10  116.72    7.15
   2   3 -10  133.98    6.75
  -2  -3  10  118.77    7.15
  -2   3   9  166.76    8.38
   2  -3  -9  167.03    8.26
   2   3  -9  161.53    7.26
  -2  -3   9  165.85    8.06
   2  -3  -8   21.75    3.03
  -2   3   8   17.28    2.95
  -2  -3   8   16.66    2.71
   2   3  -8   23.84    3.05
   2  -3  -7 2464.02   47.94
  -2   3   7 2451.22   48.01
  -2  -3   7 2376.25   46.18
   2   3  -7 2507.53   47.09
   2  -3  -6   54.82    4.29
  -2   3   6   52.49    4.18
  -2  -3   6   53.77    3.80
   2   3  -6   56.08    3.89
   2  -3  -5   24.64    2.84
  -2   3   5   14.99    2.41
   2   3  -5   14.96    2.02
  -2  -3   5   17.37    2.32
  -2  -3   4   69.63    3.87
  -2   3   4   69.36    4.42
   2  -3  -4   74.18    4.52
   2   3  -4   70.48    3.73
  -2  -3   3   56.16    3.39
  -2   3   3   58.71    3.90
   2  -3  -3   54.62    3.74
   2   3  -3   56.92    3.30
  -2  -3   2   30.13    2.49
   2  -3  -2   29.83    2.61
  -2   3   2   28.73    2.76
   2   3  -2   26.29    2.24
  -2  -3   1 2537.44   45.03
   2   3  -1 2590.61   45.08
  -2   3   1 2539.14   45.58
   2  -3  -1 2506.47   45.63
  -2  -3   0   28.53    2.38
  -2   3   0   24.77    1.79
   2   3   0   23.93    2.14
  -2   3   0   24.11    1.45
  -2   3   0   24.41    2.19
   2  -3   0   24.28    2.14
   2   3   1   44.94    2.91
  -2   3  -1   47.98    2.13
  -2   3  -1   44.58    2.36
   2  -3   1   44.95    2.08
   2  -3   1   49.53    2.65
  -2  -3  -1   49.20    3.23
   2  -3   2 2501.99   41.82
  -2   3  -2 2498.27   43.78
   2  -3   2 2498.93   43.48
   2  -3   2 2378.69   42.50
   2   3   2 2485.55   44.61
  -2   3  -2 2492.89   41.83
  -2  -3  -2 2539.36   44.91
   2  -3   3 4424.31   72.95
   2  -3   3 4478.05   75.64
  -2   3  -3 4352.57   75.80
   2  -3   3 4325.40   72.69
  -2  -3  -3 4547.91   76.45
   2   3   3 4351.91   76.18
  -2   3  -3 4451.56   72.97
   2  -3   4   21.74    2.45
   2  -3   4   22.19    1.68
   2   3   4   22.57    2.58
  -2   3  -4   22.47    1.74
  -2  -3  -4   21.86    2.66
   2  -3   5 1166.84   25.69
   2   3   5 1209.00   25.59
  -2  -3  -5 1216.05   25.63
   2  -3   5 1178.06   22.53
   2  -3   6  286.30   10.31
  -2  -3  -6  294.18   10.15
   2  -3   6  276.54    7.97
   2   3   6  281.32    9.91
   2  -3   7  700.42   19.26
   2   3   7  739.82   17.22
   2   3   7  722.77   18.82
  -2  -3  -7  710.30   18.74
   2  -3   7  703.39   16.19
   2  -3   8  195.72    9.47
   2   3   8  204.49    7.81
   2  -3   8  201.05    7.48
   2   3   8  218.96    9.33
   2  -3   9    4.36    2.33
   2   3   9    1.11    1.35
   2  -3   9    0.06    1.19
   2   3   9    2.94    1.74
   2  -3  10  182.02   10.11
   2   3  10  203.28    8.33
   2  -3  10  208.60    8.52
   2   3  10  204.63    9.87
   2  -3  11  258.91   12.50
   2   3  11  276.74   10.24
   2  -3  11  252.59   10.12
   2  -3  12   58.93    6.32
   2   3  12   85.26    5.64
   2  -3  12   77.38    5.64
   2  -3  13  399.88   17.27
   2   3  13  410.03   13.77
   2  -3  13  393.35   14.25
   2   3  14    8.12    2.48
   2  -3  14    1.79    3.03
   2   3  15  284.19   11.52
   2  -3  15  253.07   14.65
   2   3  16   23.65    3.60
   2  -3  16   21.39    5.24
   2  -3  17  104.06   10.05
   2   3  17  103.43   10.30
  -2  -4  20   55.48    7.26
  -2  -4  19   99.72    8.89
  -2   4  19   89.67    9.32
  -2   4  18    5.69    3.76
  -2   4  17  509.80   21.24
  -2  -4  16   33.30    5.67
  -2   4  16   33.53    5.61
  -2   4  15  205.90   12.02
  -2  -4  15  177.67   11.42
   2   4 -14  196.50    9.22
  -2  -4  14  177.03   10.90
  -2   4  14  210.48   11.77
   2   4 -13   53.82    4.70
  -2  -4  13   43.85    5.28
   2   4 -12   26.63    3.33
   2  -4 -12   32.73    4.40
  -2  -4  12   36.74    4.47
   2  -4 -11   52.35    5.06
  -2   4  11   55.51    5.33
   2   4 -11   55.11    4.36
  -2  -4  11   40.35    4.62
   2  -4 -10    5.59    2.19
   2   4 -10    3.68    1.56
  -2   4  10    3.09    2.04
  -2  -4  10    3.25    1.90
   2  -4  -9   48.79    4.64
  -2   4   9   49.25    4.76
  -2  -4   9   45.26    4.10
   2   4  -9   65.69    5.35
   2  -4  -8  162.42    8.19
  -2   4   8  181.17    8.71
  -2  -4   8  173.36    7.57
   2   4  -8  180.10    8.30
   2  -4  -7  895.57   22.61
  -2   4   7  926.36   22.96
   2   4  -7  974.91   22.25
  -2  -4   7  879.60   20.84
  -2   4   6   -1.32    1.91
   2  -4  -6    1.56    1.58
  -2  -4   6    0.20    1.43
   2   4  -6    0.08    1.30
  -2  -4   5 2177.79   40.40
  -2   4   5 2121.61   42.42
   2  -4  -5 2127.77   42.45
   2   4  -5 2225.95   41.01
  -2  -4   4   90.73    4.47
  -2   4   4   93.47    5.26
   2  -4  -4   94.06    5.26
   2   4  -4   88.98    4.40
   2   4  -3 1198.23   23.76
  -2  -4   3 1217.55   23.75
  -2   4   3 1181.66   25.27
   2  -4  -3 1167.45   25.29
  -2  -4   2  118.43    4.88
   2   4  -2  120.55    4.87
   2  -4  -2  116.10    5.44
  -2   4   2  111.29    5.34
  -2  -4   1 1079.10   21.46
   2   4  -1 1085.67   21.49
  -2   4   1 1064.36   22.05
   2  -4  -1 1034.30   22.00
   2   4   0  422.91   10.57
  -2   4   0  416.48    9.01
  -2   4   0  401.28   10.36
   2  -4   0  389.80   10.28
  -2  -4   0  421.37   10.70
   2   4   1    0.34    1.26
  -2  -4  -1    0.78    1.47
  -2   4  -1    1.80    0.88
  -2   4  -1    1.94    0.74
  -2   4  -1    3.13    1.21
   2  -4   1    2.42    0.95
  -2   4  -2 2613.09   43.03
  -2   4  -2 2623.20   45.72
   2  -4   2 2552.21   43.04
  -2   4  -2 2576.15   44.60
   2  -4   2 2562.23   44.54
   2   4   2 2525.30   46.72
  -2  -4  -2 2618.30   47.03
   2  -4   3 1425.47   24.64
  -2   4  -3 1424.06   28.04
   2  -4   3 1442.24   27.88
   2  -4   3 1424.02   25.30
   2   4   3 1459.31   28.71
  -2   4  -3 1427.79   24.64
  -2  -4  -3 1440.89   28.85
  -2   4  -4  130.32    5.87
   2  -4   4  130.25    5.73
   2  -4   4  127.85    3.74
  -2   4  -4  127.02    3.81
   2   4   4  122.97    5.79
  -2  -4  -4  121.09    5.91
   2  -4   5 1349.89   29.12
   2  -4   5 1380.48   25.26
   2   4   5 1436.33   29.56
  -2  -4  -5 1445.92   29.65
   2  -4   6  307.83   10.90
  -2  -4  -6  309.51   10.92
   2   4   6  332.90   11.19
   2  -4   6  314.89    8.21
   2  -4   7   57.09    4.78
   2   4   7   61.42    4.28
   2  -4   7   59.85    3.35
  -2  -4  -7   56.79    4.71
   2   4   7   63.03    4.84
   2  -4   8   14.80    2.79
   2   4   8   14.59    2.42
   2   4   8   20.47    3.02
   2  -4   8   16.66    2.02
   2  -4   9  527.36   17.64
   2   4   9  578.37   15.83
   2  -4   9  532.13   14.24
   2   4   9  584.10   17.66
   2  -4  10   96.04    7.26
   2   4  10  103.55    6.12
   2   4  10  107.53    7.22
   2  -4  10  104.86    5.60
   2  -4  11    3.44    2.21
   2   4  11   10.12    2.48
   2  -4  11   12.54    2.35
   2  -4  12    4.40    2.71
   2   4  12    6.88    2.22
   2  -4  12   10.49    2.34
   2  -4  13   71.85    7.20
   2   4  13   65.06    5.41
   2  -4  13   72.28    5.63
   2  -4  14    1.14    2.87
   2   4  14    2.25    1.76
   2  -4  14    1.13    1.90
   2   4  15   49.80    4.98
   2  -4  15   56.93    7.11
   2   4  16    5.44    2.55
   2  -4  16    2.75    3.71
   2  -4  17   -3.05    3.54
  -2   5  19  123.70   10.95
  -2  -5  19  101.44    9.08
  -2  -5  18  186.12   11.90
  -2   5  18  180.46   12.63
  -2  -5  17   -0.66    2.90
  -2   5  17    3.72    3.33
  -2   5  16   64.08    7.49
  -2  -5  16   52.81    6.26
  -2  -5  15    2.44    2.76
   2   5 -14   47.59    4.62
  -2  -5  14   41.11    5.04
   2   5 -13  694.05   19.08
  -2   5  13  711.46   22.69
  -2  -5  13  704.93   21.07
   2   5 -12   66.68    4.99
  -2   5  12   79.95    6.66
  -2  -5  12   77.87    5.97
   2  -5 -11  862.67   23.90
   2   5 -11  848.37   20.98
  -2   5  11  820.43   23.89
  -2  -5  11  793.31   21.82
   2  -5 -10  853.33   23.50
  -2   5  10  845.33   23.64
   2   5 -10  872.98   23.84
  -2  -5  10  803.82   21.28
   2  -5  -9  961.90   24.93
  -2   5   9  985.83   25.35
  -2  -5   9  892.95   22.45
   2   5  -9  984.46   24.89
   2  -5  -8  243.44   10.43
  -2   5   8  252.89   10.70
  -2  -5   8  237.08    9.04
   2   5  -8  246.41   10.13
  -2  -5   7   66.61    4.43
   2  -5  -7   71.98    5.44
  -2   5   7   73.14    5.52
   2   5  -7   72.48    5.00
  -2  -5   6  611.84   15.41
   2  -5  -6  631.62   17.62
  -2   5   6  640.01   17.75
   2   5  -6  654.11   16.72
  -2  -5   5  429.64   11.56
   2  -5  -5  412.20   13.19
  -2   5   5  436.54   13.52
   2   5  -5  437.09   12.37
  -2  -5   4    6.98    1.67
  -2   5   4    6.70    2.15
   2  -5  -4    7.63    1.93
   2   5  -4    8.64    1.67
   2   5  -3  691.45   15.45
  -2  -5   3  675.17   15.34
   2  -5  -3  651.80   16.88
  -2   5   3  683.87   17.26
   2   5  -2  108.57    4.69
  -2  -5   2  109.10    4.79
   2  -5  -2  107.10    5.35
  -2   5   2  107.46    5.48
  -2  -5   1 1129.88   22.53
   2   5  -1 1129.62   22.50
   2  -5  -1 1077.63   23.15
  -2   5   1 1090.83   23.36
   2   5   0   14.56    1.95
  -2  -5   0   13.34    2.17
   2  -5   0   12.02    1.77
  -2   5   0   15.03    2.18
   2   5   1 1554.54   30.28
  -2   5  -1 1591.55   26.98
   2  -5   1 1518.46   29.30
  -2   5  -1 1517.49   29.45
  -2  -5  -1 1581.48   30.50
  -2   5  -2  399.72    7.59
  -2   5  -2  393.27   10.34
   2  -5   2  395.92    9.55
  -2   5  -2  397.88    9.67
  -2  -5  -2  401.99   11.22
   2   5   2  384.61   10.97
  -2   5  -3 1241.59   25.37
  -2   5  -3 1245.75   22.96
   2  -5   3 1224.62   22.76
  -2  -5  -3 1285.44   26.38
   2   5   3 1231.76   25.97
   2  -5   4  655.46   11.95
  -2   5  -4  654.37   16.22
  -2   5  -4  655.75   12.68
  -2  -5  -4  666.46   16.81
   2   5   4  649.06   16.55
  -2   5  -5 1780.30   35.26
   2  -5   5 1710.56   34.63
  -2  -5  -5 1734.29   35.22
   2   5   5 1691.88   35.14
   2  -5   5 1692.68   29.60
  -2   5  -6  821.29   20.62
   2  -5   6  808.17   20.30
  -2  -5  -6  802.15   20.45
   2  -5   6  780.78   15.64
   2   5   6  798.69   20.33
   2  -5   7  227.06    9.72
   2   5   7  222.48    8.91
  -2  -5  -7  242.46   10.04
   2   5   7  226.29    9.65
   2  -5   7  218.09    6.62
   2  -5   8  325.33   12.71
   2   5   8  361.25   11.94
   2   5   8  337.40   12.56
   2  -5   8  337.43    9.39
   2  -5   9    6.21    2.30
   2  -5   9    8.17    1.54
   2   5   9    7.90    2.31
   2   5   9    8.12    2.28
   2  -5  10    4.35    2.22
   2   5  10    6.12    2.14
   2  -5  10    5.13    1.74
   2  -5  11  197.61   11.00
   2   5  11  209.93    9.66
   2  -5  11  217.37    8.59
   2  -5  12    3.41    2.78
   2   5  12    4.87    2.21
   2  -5  12    0.22    1.67
   2  -5  13  245.46   13.37
   2   5  13  254.90   11.39
   2  -5  13  251.42   10.49
   2  -5  14  222.42   13.22
   2   5  14  227.85   11.06
   2  -5  14  226.64   10.32
   2  -5  15  313.35   16.59
   2   5  15  324.07   13.70
   2  -5  16   -8.60    4.07
   2   5  16    7.31    3.01
   2  -5  17  175.02   12.94
  -2  -6  19   87.50    8.34
  -2   6  19   91.50    9.56
  -2  -6  18  197.57   12.13
  -2   6  18  218.60   14.00
  -2   6  17   13.61    4.64
  -2  -6  17   13.08    3.84
  -2  -6  16  109.34    8.32
  -2  -6  15  363.67   15.10
  -2  -6  14   65.26    5.95
   2   6 -14   65.03    5.23
  -2   6  14   76.76    7.13
  -2  -6  13    4.50    2.41
   2   6 -13    4.01    2.00
  -2   6  13   -0.87    2.30
  -2  -6  12   98.01    6.78
   2   6 -12  122.05    6.71
  -2   6  12  120.06    8.57
  -2  -6  11    1.21    1.80
  -2   6  11    0.35    2.14
   2   6 -10    0.80    2.10
  -2  -6  10    0.36    1.73
  -2   6  10    0.61    2.08
   2  -6 -10    0.63    1.62
   2   6  -9   37.92    4.19
  -2  -6   9   36.84    3.67
  -2   6   9   33.60    4.39
   2  -6  -9   26.57    3.75
  -2  -6   8 1159.26   25.77
   2  -6  -8 1185.62   28.87
  -2   6   8 1143.88   28.68
   2   6  -8 1224.60   28.35
  -2  -6   7  450.42   12.66
   2  -6  -7  442.00   14.91
  -2   6   7  452.75   15.14
   2   6  -7  453.25   14.24
  -2  -6   6  725.12   17.17
   2  -6  -6  725.49   19.79
  -2   6   6  708.05   19.88
   2   6  -6  744.01   18.85
  -2  -6   5 1313.86   26.82
  -2   6   5 1370.26   30.33
   2  -6  -5 1294.79   29.71
   2   6  -5 1360.05   27.13
  -2  -6   4  855.86   18.62
   2  -6  -4  817.93   20.83
  -2   6   4  874.00   21.38
   2   6  -4  843.08   18.67
  -2  -6   3    4.00    1.48
   2  -6  -3    3.85    1.55
  -2   6   3    3.84    1.91
   2   6  -3    2.75    1.16
   2   6  -2  255.03    8.01
  -2  -6   2  265.28    8.09
   2  -6  -2  255.28    9.11
  -2   6   2  249.48    9.15
   2   6  -1  661.62   15.24
   2  -6  -1  643.73   16.02
  -2   6   1  655.61   16.30
  -2  -6   1  647.98   15.25
  -2  -6   0   17.25    2.24
   2   6   0   14.91    1.98
  -2   6   0   17.68    2.28
   2  -6   0   21.35    2.33
   2   6   1  867.03   19.57
  -2   6  -1  903.21   16.20
   2  -6   1  868.49   18.84
  -2   6  -1  869.43   19.12
  -2  -6  -1  889.96   19.73
  -2   6  -2   82.42    4.32
  -2   6  -2   78.83    3.92
   2  -6   2   87.66    3.96
   2   6   2   89.36    4.87
  -2  -6  -2   92.51    5.02
  -2   6  -3  161.20    6.53
  -2   6  -3  154.85    5.30
  -2  -6  -3  164.50    7.07
   2   6   3  156.13    6.84
  -2   6  -4   29.24    3.00
  -2   6  -4   29.86    1.97
  -2  -6  -4   28.02    3.22
   2   6   4   32.17    3.26
   2  -6   5    3.43    0.55
  -2   6  -5    2.12    1.37
  -2   6  -5    2.37    0.68
  -2  -6  -5    1.33    1.76
   2   6   5    2.33    1.59
  -2   6  -6  318.66   11.44
  -2  -6  -6  320.18   11.62
   2   6   6  313.20   11.40
   2  -6   6  285.14    6.65
  -2   6  -7 2432.19   48.47
   2  -6   7 2319.52   47.52
   2   6   7 2397.74   46.93
   2   6   7 2344.82   47.78
  -2  -6  -7 2342.70   47.94
   2  -6   7 2345.36   41.02
   2  -6   8  192.93    9.46
   2   6   8  201.29    9.04
   2   6   8  200.81    9.57
   2  -6   8  204.15    6.38
   2  -6   9   79.35    6.37
   2   6   9   97.44    6.29
   2  -6   9   99.50    4.55
   2  -6  10   78.86    6.75
   2   6  10   84.24    6.15
   2  -6  10   83.98    4.55
   2  -6  11  365.40   15.61
   2   6  11  387.84   14.27
   2  -6  11  394.66   11.84
   2  -6  12  232.49   12.63
   2   6  12  236.32   11.05
   2  -6  12  225.18    9.00
   2  -6  13  108.88    8.97
   2   6  13  119.54    8.02
   2  -6  13  110.26    6.48
   2   6  14   65.30    6.14
   2  -6  14   58.40    7.19
   2   6  15   -0.64    2.41
   2  -6  15   -1.55    3.94
   2   6  16    0.75    2.33
   2  -6  16   -0.08    3.51
  -2   7  18   32.86    5.50
  -2  -7  18   41.61    6.08
  -2  -7  17    9.55    3.68
  -2  -7  16   27.24    4.51
  -2   7  15   14.86    4.08
  -2  -7  15   10.97    2.94
  -2   7  14  276.46   14.20
  -2  -7  14  264.94   12.05
   2   7 -13  154.57    7.85
  -2   7  13  166.71   10.63
  -2  -7  13  157.97    8.82
  -2   7  12  252.24   12.76
  -2  -7  12  236.48   10.56
  -2   7  11   34.34    4.84
  -2  -7  11   33.11    3.99
  -2  -7  10  423.70   13.63
  -2   7  10  425.77   16.13
  -2  -7   9   94.97    5.74
  -2   7   9  100.20    7.22
   2  -7  -9   92.32    6.86
   2   7  -9  100.75    6.89
  -2  -7   8 1182.67   26.30
   2  -7  -8 1198.87   29.72
  -2   7   8 1221.62   30.30
   2   7  -8 1241.89   29.36
  -2  -7   7  138.50    6.33
   2  -7  -7  141.37    8.04
  -2   7   7  139.12    8.16
   2   7  -7  153.75    7.85
  -2  -7   6  194.37    7.34
   2   7  -6  195.02    8.63
   2  -7  -6  190.10    9.09
  -2   7   6  191.02    9.40
  -2  -7   5    1.04    1.50
   2   7  -5    0.95    1.23
  -2   7   5   -0.33    1.75
   2  -7  -5    0.69    1.60
  -2  -7   4   22.35    2.50
   2   7  -4   24.66    2.51
  -2   7   4   21.65    3.26
   2  -7  -4   20.16    2.92
   2   7  -3   39.20    2.98
  -2  -7   3   39.60    3.08
  -2   7   3   36.26    3.79
   2  -7  -3   40.60    3.75
  -2  -7   2  718.10   16.75
   2   7  -2  743.40   16.79
   2  -7  -2  720.90   18.35
  -2   7   2  728.54   18.65
   2   7  -1  121.15    5.39
   2  -7  -1  104.80    5.63
  -2   7   1  120.52    6.09
  -2  -7   1  122.72    5.50
   2   7   0 1516.01   30.04
   2  -7   0 1479.01   30.42
  -2   7   0 1519.34   30.84
  -2  -7   0 1537.96   30.32
   2   7   1  156.01    6.57
  -2   7  -1  161.80    6.54
  -2  -7  -1  162.27    6.82
  -2   7  -2 4522.51   78.03
  -2  -7  -2 4496.24   79.76
   2   7   2 4515.37   79.48
  -2   7  -3  646.97   16.16
  -2   7  -3  637.75   14.55
  -2  -7  -3  633.10   16.70
   2   7   3  629.00   16.53
  -2   7  -4 4439.47   78.31
  -2   7  -4 4408.12   74.55
   2   7   4 4290.29   78.75
  -2  -7  -4 4385.71   78.90
  -2   7  -5  926.96   22.40
  -2   7  -5  910.27   17.79
   2   7   5  914.10   22.59
  -2  -7  -5  907.99   22.67
  -2   7  -6  613.07   17.62
  -2   7  -6  596.25   11.66
   2   7   6  592.28   17.56
  -2  -7  -6  626.11   17.99
  -2   7  -7    9.68    2.43
   2  -7   7    5.63    0.86
   2   7   7    8.17    2.39
  -2  -7  -7   10.46    3.10
   2   7   7   10.98    2.56
  -2   7  -8  491.63   16.58
   2   7   8  482.60   15.67
   2  -7   8  463.01   10.48
   2   7   8  482.48   16.24
   2  -7   9   11.54    1.53
   2   7   9   14.89    3.10
   2   7  10    2.90    2.28
   2  -7  10    0.90    1.11
   2  -7  11    9.61    2.92
   2   7  11   11.65    3.13
   2  -7  11   12.12    1.88
   2  -7  12 1297.89   35.36
   2   7  12 1340.04   33.17
   2  -7  12 1334.03   28.25
   2   7  13   42.08    5.11
   2  -7  13   42.66    5.85
   2   7  14  414.56   16.52
   2  -7  14  382.63   18.12
   2   7  15   64.02    6.54
   2  -7  15   54.29    7.21
   2   7  16  256.64   13.27
   2  -7  16  266.38   15.70
   2   7  17   62.67    6.75
  -2  -8  17   31.05    5.04
  -2  -8  16  397.23   16.21
  -2   8  16  444.98   19.63
  -2   8  15   34.48    5.58
  -2  -8  15   34.82    4.70
  -2  -8  14  225.88   11.03
  -2   8  14  220.20   13.14
  -2   8  13   37.81    5.63
   2   8 -13   31.08    3.67
  -2  -8  13   36.72    4.28
  -2  -8  12  426.37   14.69
  -2   8  12  445.12   17.86
  -2   8  11   17.26    4.04
  -2  -8  11   12.54    2.71
  -2  -8  10  185.05    8.39
  -2   8  10  180.11   10.46
  -2   8   9   -0.57    2.68
  -2  -8   9    0.47    1.52
  -2  -8   8  276.43    9.81
   2  -8  -8  275.84   12.28
  -2   8   8  277.09   12.49
   2   8  -8  301.03   12.20
  -2  -8   7  126.55    6.14
   2  -8  -7  134.55    8.11
  -2   8   7  143.55    8.49
   2   8  -7  152.44    8.10
  -2  -8   6  617.96   15.63
   2  -8  -6  627.52   18.91
  -2   8   6  650.62   19.46
  -2  -8   5   22.25    2.46
   2   8  -5   16.72    2.18
  -2   8   5   19.72    3.29
   2  -8  -5   18.73    3.08
  -2  -8   4 2051.38   38.85
   2   8  -4 2054.98   38.89
   2  -8  -4 2024.78   42.43
  -2   8   4 2068.83   42.92
   2   8  -3   49.44    3.50
  -2  -8   3   48.05    3.50
   2  -8  -3   51.89    4.42
  -2   8   3   52.98    4.58
   2   8  -2   53.90    3.68
   2  -8  -2   53.62    4.38
  -2   8   2   54.90    4.55
  -2  -8   2   63.22    4.01
  -2  -8   1   23.03    2.69
   2   8  -1   27.17    2.62
  -2   8   1   17.78    2.73
   2  -8  -1   24.47    2.91
   2   8   0   61.94    4.01
  -2   8   0   55.05    4.16
  -2   8   0   61.83    3.07
  -2  -8   0   61.51    4.14
   2   8   1  362.29   11.14
  -2   8  -1  389.79   11.46
  -2  -8  -1  367.45   11.30
  -2   8  -1  367.23    8.16
  -2   8  -2  207.12    7.68
  -2  -8  -2  228.56    8.75
   2   8   2  223.61    8.52
  -2   8  -3 1118.19   24.77
  -2   8  -3 1091.24   22.96
   2   8   3 1092.01   25.00
  -2  -8  -3 1107.50   25.25
  -2   8  -4   84.51    5.38
  -2   8  -4   93.86    4.40
   2   8   4   87.02    5.70
  -2  -8  -4   88.37    5.82
  -2   8  -5    2.09    1.57
  -2   8  -5    3.84    1.13
  -2  -8  -5    3.42    2.27
   2   8   5    2.74    1.65
  -2   8  -6  477.26   15.33
  -2   8  -6  469.05   10.53
  -2  -8  -6  465.30   15.42
   2   8   6  470.13   15.34
  -2   8  -7 1044.62   26.54
   2   8   7 1037.49   26.11
  -2   8  -7 1017.76   18.35
  -2  -8  -7 1015.87   26.38
   2   8   7 1057.43   26.57
   2  -8   8   72.15    2.62
  -2   8  -8   76.08    6.32
   2   8   8   92.75    6.67
   2  -8   8   74.96    2.61
   2   8   9  223.16   10.72
   2  -8   9  229.28    6.26
   2   8  10  164.58    9.36
   2  -8  10  160.44    5.59
   2   8  11  139.40    8.87
   2  -8  11  138.09    5.62
   2   8  12   30.82    4.62
   2  -8  12   31.96    2.94
   2   8  13    2.52    2.54
   2   8  14    1.56    2.50
   2   8  15    8.17    2.97
   2   8  16  128.20    9.64
   2   8  17   18.21    4.17
  -2   9  17   25.21    5.37
  -2  -9  16   99.14    7.66
  -2   9  16  112.39    9.83
  -2   9  15   10.55    4.47
  -2  -9  15    8.32    3.11
  -2   9  14   15.95    4.19
  -2  -9  14   16.96    3.39
  -2  -9  13  109.90    7.11
  -2   9  13  119.14    9.46
  -2  -9  12  251.86   10.74
  -2   9  12  286.98   14.30
  -2  -9  11  756.24   20.34
  -2   9  11  780.22   24.95
  -2  -9  10  239.46    9.61
  -2   9  10  230.50   12.36
  -2  -9   9  749.74   19.21
  -2   9   9  807.58   24.34
  -2  -9   8   40.37    3.58
  -2   9   8   36.62    4.76
  -2  -9   7  492.87   13.91
   2  -9  -7  529.43   17.78
  -2   9   7  536.69   18.21
   2   9  -7  539.63   17.12
  -2  -9   6  335.67   10.49
   2  -9  -6  335.95   13.32
  -2   9   6  350.05   13.85
  -2  -9   5  291.74    9.47
   2  -9  -5  303.06   12.23
  -2   9   5  323.79   12.83
   2   9  -5  298.87    9.59
  -2  -9   4  150.73    6.35
   2   9  -4  151.55    6.40
   2  -9  -4  150.34    8.07
  -2   9   4  155.61    8.41
   2   9  -3   48.86    3.60
  -2   9   3   54.19    4.95
  -2  -9   3   55.24    3.78
   2   9  -2  188.04    7.23
  -2   9   2  182.60    8.60
  -2   9   2  186.94    7.12
  -2  -9   2  179.70    7.24
   2   9  -1  137.74    6.20
  -2   9   1  148.54    7.39
  -2  -9   1  138.74    6.29
  -2   9   1  142.16    5.59
   2   9   0  751.33   18.08
  -2   9   0  750.15   19.18
  -2  -9   0  757.62   18.38
  -2   9   0  733.34   15.61
   2   9   1  141.50    6.58
  -2   9  -1  139.76    6.73
  -2  -9  -1  133.81    6.56
  -2   9  -1  132.60    4.17
  -2   9  -2 2007.89   39.58
  -2  -9  -2 2089.00   40.89
   2   9   2 2006.96   40.27
  -2   9  -3  638.52   15.86
  -2  -9  -3  627.83   17.40
   2   9   3  634.66   17.34
  -2   9  -4 2326.48   45.08
  -2   9  -4 2216.16   41.68
  -2  -9  -4 2183.67   45.15
   2   9   4 2219.58   45.10
  -2   9  -5  161.95    8.06
  -2   9  -5  154.24    5.92
   2   9   5  145.75    7.82
  -2  -9  -5  154.82    8.29
  -2   9  -6    2.41    1.61
  -2   9  -6    3.63    1.23
   2   9   6    2.84    2.15
  -2  -9  -6    6.98    2.62
  -2   9  -7  237.27   10.96
   2   9   7  219.60   10.61
  -2   9  -7  228.82    6.33
   2   9   8  837.44   23.73
   2  -9   9    0.72    0.43
   2  -9   9   -0.09    0.42
   2   9   9    0.27    2.16
   2  -9  10  412.46    9.30
   2   9  10  439.11   16.54
   2  -9  10  404.69    9.19
   2  -9  11   21.55    2.00
   2   9  11   24.20    4.50
   2  -9  11   23.47    2.00
   2   9  12  106.27    8.27
   2  -9  12  100.46    4.66
   2   9  13  172.44   10.81
   2   9  14  491.49   19.40
   2   9  15   65.51    7.29
   2   9  16   68.47    7.52
   2   9  17    1.13    3.04
  -2  10  17   65.27    7.81
  -2  10  16   28.28    5.31
  -2  10  15   36.11    6.00
  -2 -10  15   31.60    4.24
  -2  10  14   -0.22    3.23
  -2 -10  14   -0.86    2.03
  -2 -10  13  146.40    8.15
  -2  10  13  127.88   10.15
  -2 -10  12   16.05    2.91
  -2  10  12   27.13    5.00
  -2 -10  11   23.79    3.12
  -2  10  11   30.51    4.99
  -2 -10  10   25.11    3.12
  -2  10  10   22.15    4.32
  -2 -10   9  225.23    8.92
  -2  10   9  210.28   11.89
  -2 -10   8   28.82    3.10
  -2  10   8   26.32    4.25
  -2 -10   7    1.13    1.38
  -2  10   7    2.26    2.30
  -2  10   7    3.33    1.87
  -2 -10   6  478.28   13.35
  -2  10   6  490.68   17.40
  -2  10   6  487.35   15.88
  -2 -10   5   28.56    2.89
   2  10  -5   27.65    2.88
  -2  10   5   41.62    4.86
  -2  10   5   35.01    3.88
   2  10  -4   50.59    3.62
  -2  10   4   50.37    5.17
  -2 -10   4   46.37    3.53
  -2  10   4   44.89    4.14
   2  10  -3   67.47    4.28
  -2  10   3   76.02    5.94
  -2 -10   3   77.55    4.59
  -2  10   3   67.50    4.66
  -2 -10   2   17.65    2.48
   2  10  -2   18.31    2.55
  -2  10   2   17.24    2.99
  -2  10   2   21.48    2.43
   2  10  -1  297.79    9.95
  -2  10   1  298.44   11.46
  -2 -10   1  311.42   10.32
  -2  10   1  295.42    8.98
   2  10   0   16.88    2.47
  -2  10   0   16.20    2.93
  -2  10   0   17.44    1.85
  -2 -10   0   17.85    2.62
   2  10   1    8.58    2.10
  -2  10  -1    6.83    1.89
  -2 -10  -1    2.90    1.66
  -2  10  -1    6.21    1.01
   2  10   2   38.24    3.68
  -2  10  -2   41.56    1.60
  -2  10  -2   46.20    3.93
  -2 -10  -2   38.68    3.92
  -2  10  -2   39.68    1.55
   2  10   3    3.84    1.90
  -2  10  -3    1.01    1.34
  -2 -10  -3    0.46    1.91
   2  10   4    3.47    1.95
  -2  10  -4    8.86    2.40
  -2  10  -4    3.78    1.62
  -2 -10  -4    6.32    2.51
  -2  10  -5  490.90   15.80
  -2  10  -5  501.00   12.95
   2  10   5  463.15   15.44
  -2 -10  -5  431.56   15.40
  -2  10  -6  252.29   11.16
  -2  10  -6  258.03    8.11
  -2 -10  -6  232.25   11.07
   2  10   6  241.13   10.93
   2  10   7  283.22   12.77
  -2  10  -7  302.33    8.41
  -2  10  -8   71.37    3.00
   2  10   8   60.13    5.91
   2  10   9 1233.73   32.24
   2  10  10    2.05    2.58
   2 -10  11   91.41    3.00
   2  10  11  101.84    8.19
   2  10  12   30.41    5.04
   2  10  13   51.86    6.34
   2  10  14   32.49    5.35
   2  10  15   49.49    6.75
   2  10  16   11.98    4.14
   2  10  17    2.06    3.46
  -2  11  16    8.23    3.50
  -2  11  15   47.42    6.95
  -2  11  14  107.27    9.72
  -2 -11  13   50.02    4.74
  -2  11  13   58.96    7.24
  -2 -11  12   16.85    3.04
  -2  11  12   17.40    4.76
  -2 -11  11  613.59   17.44
  -2  11  11  642.22   23.43
  -2 -11  10  114.90    6.38
  -2  11  10  119.80    9.37
  -2 -11   9  692.73   18.13
  -2  11   9  705.04   23.82
  -2 -11   8  272.61    9.77
  -2  11   8  265.27   13.40
  -2 -11   7 1183.93   25.64
  -2  11   7 1144.95   31.51
  -2  11   7 1157.58   29.65
  -2 -11   6   57.13    4.09
   2  11  -6   58.27    4.09
  -2  11   6   54.27    5.73
  -2  11   6   62.99    5.28
   2  11  -5  106.75    5.54
  -2  11   5  104.50    7.67
  -2  11   5   96.70    6.45
  -2 -11   5   91.69    5.19
  -2 -11   4   15.38    2.31
   2  11  -4   15.09    2.29
  -2  11   4   18.17    3.70
  -2  11   4   17.06    2.93
  -2 -11   3   20.25    2.61
   2  11  -3   26.50    2.91
  -2  11   3   23.12    3.55
  -2  11   3   22.32    2.96
   2  11  -2    3.66    1.62
  -2  11   2    0.92    2.21
  -2  11   2   -0.61    1.46
  -2 -11   2    0.82    1.63
   2  11  -1 1786.58   36.11
  -2  11   1 1829.78   39.17
  -2 -11   1 1751.81   36.31
  -2  11   1 1782.49   34.23
   2  11   0    7.29    1.94
  -2  11   0   11.35    2.67
  -2  11   0    6.17    1.34
  -2 -11   0    5.85    1.78
   2  11   1  591.87   16.59
  -2  11  -1  605.90   17.48
  -2  11  -1  597.76   12.66
  -2 -11  -1  623.22   17.11
  -2  11  -2  378.12    7.64
  -2  11  -2  397.89   12.98
   2  11   2  383.77   12.81
  -2 -11  -2  397.92   13.19
  -2  11  -3 1291.29   28.65
   2  11   3 1301.69   29.81
  -2 -11  -3 1282.39   30.13
   2  11   4   10.46    2.45
  -2  11  -4   11.01    2.45
  -2  11  -4    8.05    2.05
  -2 -11  -4   11.49    2.97
  -2  11  -5  580.50   17.92
  -2  11  -5  540.76   14.70
  -2 -11  -5  530.66   17.66
   2  11   5  555.51   17.46
  -2  11  -6    1.36    1.19
  -2 -11  -6   -3.04    3.12
   2  11   7   99.94    7.62
  -2  11  -7   95.10    4.62
   2  11   8   86.33    7.25
  -2  11  -8   77.99    3.72
  -2  11  -9   10.47    1.08
   2  11   9   10.85    3.52
   2  11  10  252.02   13.13
   2  11  11   -0.56    2.52
   2  11  12   53.50    6.43
   2  11  13  299.40   15.45
   2  11  14   33.63    5.79
   2  11  15  346.53   17.30
   2  11  16    4.36    3.57
   2  11  17  146.70   11.46
  -2  12  15  339.10   18.15
  -2  12  14   12.52    4.41
  -2  12  13   37.75    6.18
  -2 -12  12   41.83    4.07
  -2  12  12   42.39    6.36
  -2 -12  11   38.92    3.98
  -2  12  11   47.13    6.45
  -2 -12  10   36.11    3.65
  -2  12  10   40.98    5.97
  -2 -12   9    2.16    1.59
  -2  12   9    7.17    4.01
  -2 -12   8    4.84    1.77
  -2  12   8    2.09    2.53
  -2 -12   7  252.46    9.25
  -2  12   7  238.15   12.78
   2  12  -6  762.13   18.69
  -2  12   6  783.61   24.50
  -2 -12   6  783.98   18.96
  -2  12   6  752.85   21.78
   2  12  -5  278.08    9.64
  -2  12   5  274.03   13.04
  -2  12   5  289.44   11.48
  -2 -12   5  271.77    9.62
  -2 -12   4   36.80    3.41
   2  12  -4   37.48    3.45
  -2  12   4   36.99    4.86
  -2  12   4   35.68    3.94
   2  12  -3  420.15   12.54
  -2  12   3  418.02   15.74
  -2 -12   3  413.76   12.65
  -2  12   3  411.20   13.02
   2  12  -2  313.42   10.72
  -2  12   2  333.33   13.44
  -2  12   2  317.74   10.38
  -2 -12   2  321.82   10.98
   2  12  -1  458.94   13.74
  -2  12   1  446.44   15.79
  -2  12   1  453.47   12.31
  -2 -12   1  472.08   14.08
   2  12   0   90.23    5.57
  -2  12   0   84.94    6.32
  -2 -12   0   77.34    5.39
  -2  12   0   89.03    4.24
   2  12   1   60.26    4.66
  -2  12  -1   66.01    5.38
  -2  12  -1   58.83    2.95
  -2 -12  -1   58.76    4.86
  -2  12  -2   62.43    2.26
  -2  12  -2   53.79    4.74
  -2 -12  -2   63.58    5.19
   2  12   2   56.90    4.77
  -2  12  -3  248.85   10.06
   2  12   3  242.77   10.36
  -2 -12  -3  229.34   10.44
   2  12   4    1.34    1.81
  -2  12  -4    1.09    1.85
  -2  12  -4    2.62    1.66
  -2 -12  -4   -0.09    2.69
  -2  12  -5    0.94    1.32
  -2 -12  -5   -1.51    2.45
  -2  12  -6   58.33    4.19
   2  12   6   44.42    5.32
   2  12   7  754.60   24.06
  -2  12  -7  768.36   18.15
  -2  12  -8   40.02    3.04
   2  12   8   39.49    5.28
  -2  12  -9   11.79    1.49
   2  12   9    8.78    3.52
   2  12  10   12.91    3.96
   2  12  11  209.16   12.60
   2  12  12   10.12    4.26
   2  12  13    9.85    4.04
   2  12  14   -4.77    3.81
   2  12  15   14.17    4.21
   2  12  16   15.98    4.70
  -2  13  14    3.94    3.47
  -2  13  13  181.31   12.96
  -2  13  12    5.11    4.04
  -2 -13  11  232.39    9.47
  -2  13  11  234.00   14.27
  -2 -13  10   56.37    4.41
  -2  13  10   36.31    5.78
  -2 -13   9  138.08    6.80
  -2  13   9  139.20   10.63
  -2  13   8   82.26    7.99
  -2 -13   8   77.31    5.02
  -2 -13   7    0.54    1.70
  -2  13   7    0.73    2.88
   2  13  -6   60.55    4.37
  -2  13   6   66.01    6.84
  -2 -13   6   74.59    4.76
   2  13  -5  254.99    9.32
  -2  13   5  255.21   13.00
  -2 -13   5  260.66    9.55
  -2  13   5  248.98   10.92
   2  13  -4   61.67    4.36
  -2  13   4   58.83    6.12
  -2 -13   4   62.54    4.60
  -2  13   4   67.61    5.04
   2  13  -3  151.49    7.07
  -2  13   3  150.88    9.40
  -2 -13   3  156.92    7.36
  -2  13   3  143.28    7.23
   2  13  -2  159.32    7.44
  -2  13   2  156.89    9.33
  -2  13   2  158.33    7.10
  -2 -13   2  157.11    7.52
   2  13  -1  166.89    7.72
  -2  13   1  148.35    8.94
  -2 -13   1  154.51    7.58
  -2  13   1  149.71    6.43
   2  13   0  494.77   14.90
  -2  13   0  492.74   16.86
  -2  13   0  489.50   12.25
  -2 -13   0  476.42   15.18
   2  13   1  210.80    9.24
  -2  13  -1  217.71   10.30
  -2  13  -1  203.32    6.19
  -2 -13  -1  204.34    9.58
   2  13   2  655.07   18.78
  -2  13  -2  652.77   12.44
  -2  13  -2  652.16   19.32
  -2 -13  -2  655.97   19.25
   2  13   3   14.22    2.97
  -2  13  -3    8.81    2.44
  -2 -13  -3    9.14    2.63
  -2  13  -4  131.16    7.31
  -2 -13  -4  126.44    8.19
  -2  13  -5  414.28   13.51
  -2 -13  -5  415.15   15.83
   2  13   6  124.58    9.06
  -2  13  -6  114.74    6.28
  -2  13  -7   65.80    4.53
   2  13   7   59.56    6.68
  -2  13  -8   82.85    4.70
   2  13   8   85.71    7.75
  -2  13  -9    3.01    1.10
   2  13   9    0.28    3.07
   2  13  10   -0.94    2.70
   2  13  11   45.03    6.62
   2  13  12    4.20    3.01
   2  13  13   85.89    8.86
   2  13  14   24.19    5.32
   2  13  15  114.79   10.55
  -2  14  13   -0.12    3.58
  -2  14  12    5.85    2.90
  -2  14  11   25.47    5.69
  -2  14  10   38.70    6.19
  -2 -14   9   24.95    3.01
  -2  14   9   21.82    4.91
  -2  14   8  598.71   23.24
  -2 -14   8  629.57   16.67
  -2 -14   7   10.72    2.37
  -2  14   7   14.70    4.03
   2  14  -6   19.46    2.70
  -2  14   6   12.07    3.78
  -2 -14   6   14.85    2.42
   2  14  -5    8.06    2.08
  -2  14   5    6.89    3.26
  -2 -14   5    9.05    2.36
  -2  14   5   11.91    2.63
   2  14  -4  579.73   15.95
  -2  14   4  570.75   20.84
  -2 -14   4  592.23   16.37
  -2  14   4  600.82   17.83
   2  14  -3    3.94    1.73
  -2  14   3    2.67    3.04
  -2  14   3    0.58    1.67
  -2 -14   3    0.91    1.59
   2  14  -2  115.38    6.47
  -2  14   2  115.79    8.44
  -2 -14   2  117.93    6.70
  -2  14   2  130.06    6.51
   2  14  -1  145.30    7.40
  -2  14   1  145.13    9.06
  -2  14   1  145.84    6.46
  -2 -14   1  149.12    7.61
   2  14   0  248.54   10.10
  -2  14   0  239.83   11.68
  -2  14   0  245.68    7.94
  -2 -14   0  245.77   10.56
  -2  14  -1   23.00    2.02
   2  14   1   24.95    3.39
  -2  14  -1   28.09    4.10
  -2 -14  -1   29.98    4.13
  -2  14  -2  307.84    6.90
   2  14   2  312.14   12.20
  -2  14  -2  312.67   12.86
  -2 -14  -2  322.29   12.79
  -2  14  -3   22.51    3.57
  -2 -14  -3   23.46    3.94
  -2  14  -4  155.24    8.31
  -2 -14  -4  141.36    8.83
  -2  14  -5    5.74    2.10
   2  14   5    0.28    2.48
  -2  14  -6    6.19    2.04
   2  14   6    2.20    2.67
  -2  14  -7    1.96    1.67
   2  14   7    2.36    3.06
  -2  14  -8   48.23    3.93
   2  14   8   56.58    7.08
   2  14   9  172.48   11.75
   2  14  10  160.09   11.50
   2  14  11   19.40    4.69
   2  14  12   40.99    6.36
   2  14  13   38.37    6.31
   2  14  14    5.02    4.05
  -2  15  12  229.19   15.20
  -2  15  11  123.46   11.06
  -2  15  10   42.89    6.60
  -2  15   9    3.65    3.30
  -2  15   8   33.18    6.12
  -2 -15   8   25.69    3.04
  -2  15   7  172.17   12.00
  -2 -15   7  177.93    7.76
   2  15  -6    2.41    1.69
  -2  15   6   -2.59    3.26
  -2 -15   6    0.96    1.74
   2  15  -5   60.01    4.56
  -2  15   5   56.26    6.77
  -2 -15   5   49.40    4.23
   2  15  -4    1.80    1.79
  -2  15   4   -2.68    3.00
  -2  15   4   -3.18    2.15
  -2 -15   4    4.26    1.99
   2  15  -3    9.42    2.27
  -2  15   3   11.71    3.33
  -2 -15   3   12.16    2.62
  -2  15   3    6.83    2.33
   2  15  -2    8.05    2.21
  -2  15   2    8.97    3.44
  -2  15   2   10.74    2.23
  -2 -15   2   10.28    2.49
   2  15  -1   78.78    5.65
  -2  15   1   73.24    6.87
  -2 -15   1   72.02    5.53
  -2  15   1   76.19    4.72
   2  15   0   82.30    5.80
  -2  15   0   81.84    7.04
  -2 -15   0   79.24    6.06
  -2  15   0   82.39    4.38
  -2  15  -1   19.30    1.88
   2  15   1   23.97    3.40
  -2  15  -1   18.08    3.56
  -2 -15  -1   18.91    3.42
  -2  15  -2  173.92    4.58
  -2  15  -2  181.76    9.94
  -2 -15  -2  190.35    9.93
  -2  15  -3   54.72    5.44
  -2 -15  -3   61.36    5.80
  -2  15  -4  985.06   26.25
  -2 -15  -4 1019.70   28.09
  -2  15  -5   39.14    4.35
   2  15   5   46.67    7.06
  -2  15  -6   74.09    5.54
   2  15   6   82.16    8.17
  -2  15  -7   29.17    3.47
   2  15   7   26.00    5.34
  -2  15  -8    1.83    1.63
   2  15   8   -0.92    3.59
   2  15   9   30.27    5.78
   2  15  10   25.24    5.31
   2  15  11    5.43    3.13
   2  15  12  155.55   12.14
  -2  16  11   10.95    3.94
  -2  16  10    6.09    4.10
  -2  16   9    6.72    3.78
  -2  16   8   66.18    8.03
  -2  16   7   41.05    6.32
  -2  16   6  642.48   24.60
  -2 -16   6  660.37   17.59
  -2  16   5   30.28    5.43
  -2 -16   5   36.54    3.76
   2  16  -4  298.38   10.89
  -2  16   4  302.07   15.45
  -2  16   4  314.18   12.39
  -2 -16   4  313.84   11.46
   2  16  -3   75.29    5.40
  -2  16   3   78.21    7.76
  -2  16   3   76.71    5.75
  -2 -16   3   79.99    5.76
   2  16  -2  904.38   22.68
  -2  16   2  864.08   27.48
  -2 -16   2  898.59   23.19
  -2  16   2  887.22   21.91
   2  16  -1   25.05    3.42
  -2  16   1   25.61    2.93
  -2  16   1   32.17    5.16
  -2 -16   1   24.43    3.42
  -2  16   0    8.71    1.75
   2  16   0    5.38    2.12
  -2  16   0    5.81    2.74
  -2 -16   0    9.17    2.70
  -2  16  -1   -4.87    3.17
  -2 -16  -1   -3.95    3.14
  -2  16  -2   28.70    4.39
  -2 -16  -2   27.45    4.18
  -2  16  -3   26.24    4.22
  -2 -16  -3   27.55    4.28
  -2  16  -4   83.52    6.80
   2  16   4   82.37    8.18
  -2  16  -5    0.91    1.82
   2  16   5    1.18    3.03
  -2  16  -6   50.18    4.89
   2  16   6   36.98    6.28
  -2  16  -7   31.48    3.90
   2  16   7   33.62    5.97
   2  16   8  418.27   19.53
   2  16   9   -3.80    3.71
   2  16  10   64.99    7.78
   2  16  11    6.68    3.97
  -2  17   9   38.53    6.47
  -2  17   8   85.15    9.12
  -2  17   7  337.22   17.95
  -2  17   6  318.85   17.06
  -2  17   5   11.42    4.47
  -2 -17   5    2.41    1.68
  -2  17   4   48.39    6.81
  -2 -17   4   57.28    4.79
  -2  17   3   -3.11    3.51
  -2 -17   3   -0.91    1.98
  -2  17   2   10.90    3.85
  -2 -17   2    8.57    2.47
  -2  17   1  337.25   16.00
  -2 -17   1  356.35   13.63
  -2  17   0  203.88   12.06
  -2 -17   0  205.10   10.38
  -2  17  -1    7.87    3.03
  -2 -17  -1    6.39    2.88
  -2  17  -2  133.64    9.36
  -2 -17  -2  134.49    8.83
   2  17   3  780.79   26.84
  -2  17  -3  708.81   23.11
   2  17   4  223.84   13.71
  -2  17  -4  206.64   11.04
  -2  17  -5   76.71    6.57
   2  17   5   72.70    8.22
  -2  17  -6   85.78    6.63
   2  17   6   81.88    8.48
   2  17   7   80.66    8.80
   2  17   8   46.89    7.06
   2  17   9   35.01    6.27
  -2  18   8  119.22   11.04
  -2  18   7   75.54    8.90
  -2  18   6   29.81    6.03
  -2  18   5   53.31    7.58
  -2  18   4   33.63    6.11
  -2  18   3  392.74   18.68
  -2 -18   3  393.96   13.95
  -2  18   2    1.50    3.09
  -2 -18   2    2.49    1.91
  -2  18   1  219.96   13.24
  -2 -18   1  220.69   10.67
  -2  18   0   92.30    8.45
  -2 -18   0  110.51    7.67
  -2  18  -1  120.71    9.28
  -2  18  -2   86.77    7.84
   2  18   2   86.21    8.67
  -2  18  -3    8.30    3.14
   2  18   3    3.21    3.53
  -2  18  -4    2.02    2.40
   2  18   4   -1.54    3.18
   2  18   5  151.44   11.73
  -2  18  -5  152.45    9.52
   2  18   6  296.27   16.75
  -2  18  -6  282.51   12.88
   2  18   7  236.03   15.24
  -2  19   6    5.17    4.15
  -2  19   5   12.55    3.94
  -2  19   4   18.24    4.95
  -2  19   3   17.71    4.62
  -2  19   2   32.99    5.89
  -2  19   1   48.81    6.58
  -2 -19   1   52.14    5.51
  -2  19   0    6.26    3.44
   2  19   1  304.14   16.38
  -2  19  -1  244.00   14.12
  -2  19  -2    7.54    3.61
   2  19   2   15.67    4.90
  -2  19  -3   66.84    7.12
   2  19   3   59.43    7.78
  -2  19  -4   41.58    5.68
   2  19   4   57.77    7.54
   2  19   5  231.15   15.01
  -2  19  -5  219.96   12.03
  -2  20   4   22.25    5.30
  -2  20   3  261.07   15.94
  -2  20   2   60.75    7.90
  -2  20   1   61.26    7.57
   2  20  -1   56.44    7.45
  -2  20   0   43.06    6.62
   2  20   0   42.71    6.71
  -2  20  -1   57.39    7.50
   2  20   1   58.33    7.62
  -2  20  -2   52.69    6.93
   2  20   2   86.41    9.35
  -2  20  -3   32.19    5.58
   2  20   3   31.18    6.15
  -2  20  -4   -3.03    3.40
   2  21  -6  178.01   12.42
   2  21  -5   21.72    5.02
   2  21  -4   19.26    4.71
   2  21  -3    0.11    3.04
  -2  21   2   24.46    5.50
   2  21  -2   25.48    5.25
  -2  21   1   85.01    9.23
   2  21  -1   67.28    8.36
  -2  21   0   81.13    8.71
  -2  21  -1   30.11    5.93
  -2  21  -2   97.79    9.31
  -2  21  -3  104.20    9.49
  -2  22   0   16.32    4.66
  -2  22  -1    5.37    3.56
  -2  22  -2    2.19    3.23
  -3   0  19  267.00   15.41
  -3   0  18   -3.17    3.87
  -3   0  17  299.01   15.37
  -3   0  16    1.10    2.88
  -3   0  15  222.54   12.07
  -3   0  14   -1.37    2.33
   3   0 -13 1325.20   31.98
  -3   0  13 1183.92   31.01
   3   0 -12   -2.07    2.19
  -3   0  12   -0.39    2.18
   3   0 -11  204.14    9.87
  -3   0  11  191.56    9.21
   3   0 -10    0.58    1.63
  -3   0  10    1.29    1.56
   3   0  -9  881.85   22.52
  -3   0   9  838.36   20.76
   3   0  -8    1.72    1.54
  -3   0   8    1.71    1.43
   3   0  -7   45.15    4.09
  -3   0   7   38.20    3.09
   3   0  -6    0.30    1.55
  -3   0   6   -0.78    1.04
  -3   0   5 9980.27  163.79
  -3   0   5 9999.00  167.49
   3   0  -4    0.05    0.81
  -3   0   4    0.20    1.59
   3   0  -3 2658.39   44.79
  -3   0   3 2675.38   48.53
   3   0  -2   -1.11    1.27
  -3   0   2    0.32    1.42
   3   0  -1 1170.00   23.73
  -3   0   1 1212.12   23.80
   3   0   0    3.09    1.23
  -3   0   0    0.19    1.56
  -3   0  -1   33.30    2.69
   3   0   1   33.31    2.54
  -3   0  -2    0.42    1.30
   3   0   2    2.38    1.22
   3   0   3  600.96   14.23
  -3   0  -3  619.25   14.41
   3   0   4    0.53    1.14
  -3   0  -4    1.12    1.48
  -3   0  -5 2831.42   50.59
   3   0   5 2694.41   50.32
   3   0   6    0.85    1.40
  -3   0  -6   -0.79    1.60
   3   0   7  560.55   15.37
  -3   0  -7  592.62   15.72
   3   0   8   -0.35    1.42
   3   0   8   -0.18    0.84
  -3   0  -8   -1.33    2.05
   3   0   9 2788.19   49.23
   3   0   9 2753.31   53.84
   3   0  10   -0.16    0.89
   3   0  10    3.27    2.11
   3   0  11    4.30    1.27
   3   0  11    1.93    1.76
   3   0  12   -0.31    1.11
   3   0  12    5.99    3.59
   3   0  13    4.76    1.36
   3   0  13    6.09    3.97
   3   0  14    5.11    3.49
   3   0  15  489.17   21.44
   3   0  16    2.40    4.30
   3   0  17   12.87    4.49
  -3  -1  19    7.36    3.17
  -3   1  19   13.75    4.46
  -3  -1  18   18.41    4.66
  -3   1  18   10.12    4.27
  -3   1  17    4.28    3.12
  -3  -1  17    6.07    3.55
  -3  -1  16   35.96    5.49
  -3   1  16   33.81    4.92
  -3   1  15   18.60    3.92
  -3  -1  15   11.89    3.49
  -3   1  14    9.12    3.33
  -3  -1  14    5.53    2.60
   3   1 -13  356.70   14.07
  -3  -1  13  348.91   14.17
  -3   1  13  345.99   14.14
   3   1 -12  440.60   15.38
   3  -1 -12  410.07   15.34
  -3   1  12  408.14   14.86
  -3  -1  12  406.89   14.93
   3   1 -11  307.54   12.12
   3  -1 -11  315.54   12.76
  -3  -1  11  273.49   11.39
  -3   1  11  297.82   11.73
   3   1 -10   99.80    6.46
   3  -1 -10  104.91    6.88
  -3  -1  10   90.69    5.91
  -3   1  10   88.48    5.80
   3  -1  -9   51.40    4.71
   3   1  -9   43.69    4.27
  -3  -1   9   46.01    3.93
  -3   1   9   37.83    3.55
   3  -1  -8   59.71    4.88
   3   1  -8   51.37    4.37
  -3  -1   8   50.04    3.88
  -3   1   8   46.02    3.65
   3  -1  -7  204.84    8.87
  -3  -1   7  189.59    7.18
  -3   1   7  191.93    7.06
  -3  -1   7  200.46    8.50
   3  -1  -6  573.03   16.14
  -3   1   6  568.08   13.26
  -3  -1   6  579.14   15.56
   3  -1  -5    9.42    2.17
  -3  -1   5    6.55    1.96
   3   1  -5   11.58    1.64
  -3   1   5    8.33    1.30
  -3   1   4  132.79    3.93
  -3  -1   4  133.40    6.02
   3   1  -4  130.79    4.58
  -3   1   4  134.24    6.10
   3   1  -3  636.85   15.22
   3   1  -3  629.33   12.71
  -3   1   3  636.09   15.24
  -3  -1   3  632.05   15.24
   3  -1  -2    0.24    1.15
  -3  -1   2   -0.76    1.61
  -3   1   2    1.21    1.47
   3   1  -2    1.78    1.29
   3  -1  -1 1020.72   21.15
  -3   1   1 1045.85   21.16
  -3  -1   1 1046.60   21.58
   3   1  -1 1041.86   21.52
   3   1   0  312.91    8.93
   3  -1   0  311.22    8.56
  -3  -1   0  308.50    9.02
  -3   1   0  316.91    8.60
  -3   1  -1 1082.49   21.62
   3   1   1 1082.61   22.21
   3  -1   1 1089.19   21.56
  -3  -1  -1 1102.60   22.38
   3  -1   2   97.04    4.26
  -3   1  -2   97.07    4.32
   3   1   2   97.29    4.59
  -3  -1  -2   98.04    4.77
   3   1   3 1139.72   23.83
   3  -1   3 1128.48   22.89
  -3  -1  -3 1188.13   24.09
  -3   1  -3 1184.65   23.17
   3  -1   4 1450.75   28.23
  -3  -1  -4 1474.85   29.32
  -3   1  -4 1460.40   28.27
   3   1   4 1426.09   29.06
  -3   1  -5  421.28   11.26
  -3  -1  -5  403.43   11.79
   3   1   5  419.88   11.93
   3  -1   5  392.27   10.96
   3   1   6   -0.44    1.43
   3  -1   6    1.28    1.16
  -3   1  -6    1.25    1.56
  -3  -1  -6   -0.48    1.62
   3   1   7  245.49    9.33
   3  -1   7  246.75    8.83
  -3   1  -7  239.79    8.78
  -3  -1  -7  246.55    9.46
   3  -1   8   49.71    2.54
   3   1   8   43.49    4.03
  -3  -1  -8   52.10    4.44
   3  -1   8   51.74    4.10
   3  -1   9   42.06    4.93
   3   1   9   51.28    3.43
   3  -1   9   42.85    2.42
   3   1   9   43.38    4.35
   3  -1   9   49.23    4.24
   3  -1  10  436.68   16.77
   3   1  10  445.26   12.09
   3  -1  10  463.30   10.44
   3   1  10  450.60   15.15
   3  -1  10  409.44   13.98
   3  -1  11  229.57   12.22
   3  -1  11  249.96    6.86
   3   1  11  242.40    8.41
   3   1  11  233.13   10.84
   3  -1  11  236.34   10.39
   3  -1  12   24.96    4.62
   3  -1  12   22.53    1.84
   3   1  12   22.99    2.60
   3  -1  12   22.88    3.44
   3   1  13  188.66    7.60
   3  -1  13  186.33   12.01
   3   1  14  315.47   10.40
   3   1  14  307.71   16.18
   3  -1  14  311.08   16.27
   3   1  15  327.34   17.25
   3  -1  15  314.50   16.84
   3  -1  16    8.97    3.46
   3   1  16    8.60    4.02
   3   1  17  145.77   12.12
   3  -1  17  126.12   11.37
  -3  -2  19  261.77   15.47
  -3   2  19  302.88   16.49
  -3  -2  18   50.97    6.98
  -3   2  18   57.00    7.33
  -3   2  17    8.72    3.81
  -3  -2  17    9.09    3.89
  -3  -2  16  304.77   15.13
  -3   2  16  346.28   15.86
  -3  -2  15  226.15   12.28
  -3   2  15  256.40   12.97
   3   2 -14   -1.96    2.39
  -3  -2  14   -2.59    2.88
  -3   2  14    0.51    2.18
   3   2 -13  195.26    9.97
  -3  -2  13  176.77    9.86
  -3   2  13  184.74   10.02
   3   2 -12  233.26   10.79
   3  -2 -12  258.47   11.86
  -3  -2  12  219.98   10.66
  -3   2  12  255.91   11.34
   3   2 -11  233.50   10.47
   3  -2 -11  250.57   11.36
  -3  -2  11  231.41   10.37
  -3   2  11  234.92   10.35
   3   2 -10  134.37    7.57
   3  -2 -10  147.08    8.33
  -3  -2  10  140.46    7.42
  -3   2  10  133.98    7.27
   3   2  -9  549.18   16.30
   3  -2  -9  559.82   17.39
  -3  -2   9  552.09   15.58
  -3  -2   9  517.83   16.23
  -3   2   9  520.20   15.17
   3  -2  -8  429.70   14.43
  -3  -2   8  433.94   13.79
  -3   2   8  408.79   12.28
   3  -2  -7   17.44    2.88
  -3   2   7   16.71    2.26
   3   2  -7   15.96    2.35
  -3  -2   7   10.51    2.49
   3  -2  -6 3408.60   62.32
   3   2  -6 3349.73   59.21
  -3  -2   6 3254.10   60.66
  -3   2   6 3260.30   57.86
   3  -2  -5  169.63    7.68
   3   2  -5  162.18    5.97
  -3  -2   5  156.83    6.91
  -3   2   5  160.39    5.22
  -3  -2   4 2596.71   47.80
   3  -2  -4 2653.27   49.31
   3   2  -4 2577.36   47.81
   3   2  -4 2578.79   45.52
  -3   2   4 2556.77   43.77
  -3  -2   3 1625.31   31.50
   3  -2  -3 1573.31   32.48
   3   2  -3 1596.91   31.52
  -3   2   3 1608.83   31.32
   3   2  -2  128.31    5.45
  -3  -2   2  121.27    5.48
   3  -2  -2  121.00    5.68
  -3   2   2  122.16    5.23
   3  -2  -1  854.32   17.94
  -3  -2   1  850.39   18.64
   3   2  -1  851.12   18.64
  -3   2   1  845.98   17.93
   3  -2   0   83.88    2.57
   3  -2   0   80.18    3.78
  -3   2   0   80.83    3.84
   3   2   0   78.02    4.13
  -3  -2   0   82.91    4.39
   3  -2   1   13.34    1.35
   3  -2   1   12.11    1.63
  -3   2  -1   13.86    1.76
   3   2   1   19.95    2.18
  -3  -2  -1   14.67    2.18
   3  -2   2   80.24    3.75
  -3   2  -2   83.55    3.77
   3  -2   2   79.35    3.68
   3   2   2   79.79    4.32
  -3  -2  -2   80.49    4.48
   3  -2   3  916.98   20.19
   3   2   3  933.40   20.77
   3  -2   3  977.86   19.30
  -3   2  -3  951.89   19.26
  -3  -2  -3  959.99   20.97
   3  -2   4 1938.78   38.95
   3  -2   4 2037.73   37.02
  -3   2  -4 2079.51   37.15
  -3  -2  -4 2046.68   39.12
   3   2   4 2006.08   38.93
   3  -2   5 1061.56   24.93
  -3  -2  -5 1147.64   24.85
   3   2   5 1140.42   24.73
   3  -2   5 1108.52   22.73
  -3   2  -5 1135.63   22.83
   3  -2   6  597.42   17.34
  -3   2  -6  643.20   15.11
   3  -2   6  623.51   15.01
   3   2   6  625.20   16.67
  -3  -2  -6  627.88   16.64
   3  -2   7 1226.80   29.63
   3  -2   7 1268.20   26.47
  -3   2  -7 1258.49   26.55
  -3  -2  -7 1315.77   28.66
   3   2   7 1277.93   28.45
   3  -2   8  423.41   15.27
   3  -2   8  445.46    8.81
   3  -2   8  451.30   12.93
  -3  -2  -8  440.77   14.28
   3   2   8  447.62   14.28
   3  -2   9  183.23    9.87
   3   2   9  180.82    7.19
   3  -2   9  172.23    4.16
   3   2   9  198.37    9.20
   3  -2   9  176.79    7.81
   3  -2  10 1230.65   32.49
   3   2  10 1286.49   27.23
   3  -2  10 1284.05   28.88
   3   2  10 1290.90   30.88
   3  -2  11  381.39   15.97
   3   2  11  387.37   11.82
   3  -2  11  346.91   12.76
   3  -2  12   60.34    6.81
   3   2  12   57.76    4.37
   3  -2  12   50.56    4.80
   3  -2  13  474.97   19.62
   3   2  13  495.70   14.52
   3  -2  13  461.49   16.28
   3   2  14    3.84    1.76
   3  -2  14    1.85    3.69
   3  -2  15   20.10    4.98
   3   2  16   83.68    9.29
   3  -2  16   91.40    9.39
   3  -2  17  138.67   11.82
   3   2  17  132.73   11.60
  -3  -3  19   12.51    4.01
  -3   3  19    7.36    3.45
  -3  -3  18   10.69    4.15
  -3   3  18   14.05    4.47
  -3  -3  17   92.41    8.46
  -3   3  17  100.95    9.01
  -3  -3  16    0.31    3.05
  -3   3  16    2.80    2.68
  -3   3  15   -0.71    2.37
  -3  -3  15   -0.13    2.67
   3   3 -14  219.52   10.70
  -3  -3  14  200.84   11.30
  -3   3  14  223.69   11.52
   3   3 -13  144.97    8.39
  -3  -3  13  139.28    8.98
  -3   3  13  148.62    9.03
   3   3 -12  123.90    7.51
  -3  -3  12  128.47    8.22
  -3   3  12  141.47    8.36
   3  -3 -11   10.91    2.57
   3   3 -11   13.85    2.82
  -3  -3  11   15.48    3.25
  -3   3  11   14.12    2.95
   3   3 -10  114.01    6.81
   3  -3 -10  120.22    7.63
  -3   3  10  102.51    6.40
  -3  -3  10  104.87    6.81
   3  -3  -9   16.71    2.99
  -3  -3   9   19.24    3.05
   3  -3  -8   76.70    5.85
   3   3  -8   77.88    5.22
  -3  -3   8   63.84    4.98
   3  -3  -7  260.79   10.62
   3   3  -7  249.49    9.14
  -3  -3   7  252.37    9.70
   3  -3  -6    4.99    1.88
   3   3  -6    3.94    1.39
  -3  -3   6    5.27    1.96
  -3  -3   5  374.88   11.48
   3  -3  -5  386.09   12.64
   3   3  -5  382.05   10.52
  -3  -3   4  640.64   15.76
   3  -3  -4  619.27   16.77
   3   3  -4  635.22   15.76
  -3  -3   3 1010.57   21.67
   3  -3  -3  971.13   22.72
   3   3  -3 1019.27   21.89
   3   3  -2  866.49   19.01
  -3  -3   2  828.18   18.78
   3  -3  -2  817.87   19.62
  -3   3   2  876.19   18.45
  -3  -3   1  232.30    7.94
  -3   3   1  235.33    7.29
   3   3  -1  239.85    7.99
   3  -3  -1  234.56    8.18
  -3   3   1  240.36    4.98
   3   3   0  390.70   10.69
  -3  -3   0  382.14   10.67
  -3   3   0  371.80    9.42
   3  -3   0  361.39    9.37
   3  -3   0  360.81   10.35
   3  -3   1  201.32    6.12
  -3   3  -1  208.59    6.20
   3   3   1  210.17    7.42
   3  -3   1  200.67    5.60
   3  -3   1  200.84    6.84
  -3  -3  -1  214.50    7.54
   3  -3   2 1789.80   32.12
  -3   3  -2 1804.81   32.12
   3   3   2 1779.96   34.53
   3  -3   2 1805.57   32.61
   3  -3   2 1688.21   32.68
  -3  -3  -2 1785.03   34.68
   3   3   3   53.17    3.77
   3  -3   3   51.92    2.82
   3  -3   3   53.21    3.43
   3  -3   3   50.44    2.80
  -3  -3  -3   50.16    3.83
  -3   3  -3   45.96    2.71
   3  -3   4  273.33    7.51
   3  -3   4  274.81    9.08
   3  -3   4  252.75    6.76
  -3  -3  -4  268.15    9.41
  -3   3  -4  270.66    7.49
   3   3   4  268.88    9.33
   3  -3   5    2.23    1.07
   3   3   5    2.31    1.67
   3  -3   5    0.73    1.49
   3  -3   5    1.10    0.63
  -3   3  -5    0.05    1.06
  -3  -3  -5    1.10    1.72
   3  -3   6   61.66    4.83
   3  -3   6   66.17    2.19
   3  -3   6   65.08    3.69
   3   3   6   72.56    5.01
  -3   3  -6   69.23    3.81
  -3  -3  -6   64.27    4.85
   3  -3   7   32.34    3.86
   3  -3   7   32.97    2.74
  -3  -3  -7   33.83    3.83
   3   3   7   32.29    3.58
   3  -3   8  693.76   20.52
   3  -3   8  708.31   17.21
   3   3   8  726.78   19.85
  -3  -3  -8  715.69   19.84
   3  -3   9    1.92    2.10
   3  -3   9    0.53    1.45
   3   3   9    6.12    2.18
   3   3   9    2.04    1.48
   3  -3  10  118.65    8.20
   3   3  10  114.98    6.14
   3   3  10  125.46    7.81
   3  -3  10  113.30    6.24
   3  -3  11   53.33    6.01
   3   3  11   64.99    4.75
   3  -3  11   57.88    4.69
   3  -3  12 1144.48   32.26
   3   3  12 1165.21   26.67
   3  -3  12 1108.94   27.37
   3  -3  13  108.59    8.97
   3   3  13  113.20    6.67
   3  -3  13  100.71    6.96
   3   3  14  190.78    8.97
   3  -3  14  177.38   11.97
   3   3  15  114.88    6.86
   3  -3  15  107.29    9.88
   3  -3  16  259.97   15.60
   3   3  17   18.68    5.29
   3  -3  17   12.63    4.62
  -3   4  19    3.01    3.80
  -3  -4  19    2.30    3.35
  -3   4  18  535.02   21.79
  -3  -4  18  515.33   21.14
  -3  -4  17    2.94    3.26
  -3   4  17    1.36    3.27
  -3  -4  16   56.17    6.43
  -3   4  16   68.52    7.11
  -3  -4  15    7.54    3.47
  -3   4  15    5.26    2.85
   3   4 -14  288.67   12.36
  -3  -4  14  272.46   13.13
  -3   4  14  304.31   13.79
   3   4 -13   79.63    6.19
  -3   4  13   84.08    6.78
  -3  -4  13   80.54    6.77
   3   4 -12   11.12    2.83
  -3   4  12   11.25    3.11
  -3  -4  12    6.36    2.63
   3   4 -11  495.82   15.77
  -3  -4  11  469.88   16.15
   3  -4 -10  302.40   12.75
  -3  -4  10  286.98   11.66
   3  -4  -9  181.25    9.46
  -3  -4   9  165.73    8.33
   3   4  -9  191.96    9.05
   3  -4  -8 1174.28   28.66
  -3  -4   8 1111.85   26.45
   3   4  -8 1175.11   26.79
  -3  -4   7  219.65    8.98
   3  -4  -7  233.41   10.25
   3   4  -7  239.06    9.05
  -3  -4   6 2006.42   40.13
  -3   4   6 1992.59   42.06
   3  -4  -6 2093.57   42.69
   3   4  -6 2081.23   39.76
  -3  -4   5   70.11    4.57
   3  -4  -5   76.67    5.36
  -3   4   5   67.67    5.20
   3   4  -5   68.35    4.14
  -3  -4   4 3054.86   56.27
   3  -4  -4 3168.81   58.70
  -3   4   4 3008.83   57.90
   3   4  -4 3154.46   56.58
  -3  -4   3  793.09   18.50
   3   4  -3  815.35   18.69
  -3   4   3  802.87   19.70
   3  -4  -3  813.09   20.01
   3   4  -2  750.77   17.40
  -3  -4   2  753.42   17.45
   3  -4  -2  721.13   18.23
  -3   4   2  739.51   16.61
   3   4  -1  340.91   10.12
  -3  -4   1  337.38   10.08
   3  -4  -1  324.11   10.33
  -3   4   1  340.44    9.16
  -3  -4   0  179.50    7.03
   3   4   0  184.39    6.98
  -3   4   0  179.29    5.80
  -3   4   0  182.81    5.09
   3  -4   0  175.61    6.80
  -3   4  -1  602.31   12.86
   3   4   1  611.14   15.06
   3  -4   1  592.92   12.88
  -3   4  -1  610.64   13.03
   3  -4   1  583.13   14.23
  -3  -4  -1  609.07   15.20
   3  -4   2  385.63    9.14
  -3   4  -2  396.59    9.13
   3   4   2  382.78   11.41
  -3   4  -2  387.86   10.22
   3  -4   2  391.10   10.14
  -3  -4  -2  396.35   11.60
  -3   4  -3   17.43    1.67
   3   4   3   22.33    2.69
   3  -4   3   18.46    1.60
   3  -4   3   24.17    2.46
   3  -4   3   20.11    1.86
  -3  -4  -3   25.29    2.90
   3  -4   4  382.15    9.10
   3  -4   4  364.93   11.05
   3  -4   4  373.40    8.78
  -3  -4  -4  385.18   11.95
  -3   4  -4  376.74    9.01
   3   4   4  361.94   11.66
   3  -4   5  230.47    6.74
   3  -4   5  234.97    8.98
   3  -4   5  233.09    5.59
   3   4   5  244.18    9.37
  -3   4  -5  229.06    6.75
  -3  -4  -5  250.24    9.52
   3  -4   6 1300.34   29.56
   3  -4   6 1348.51   25.78
   3   4   6 1352.17   29.88
  -3   4  -6 1304.43   25.84
  -3  -4  -6 1384.47   30.02
   3  -4   7  179.01    8.76
   3  -4   7  183.50    6.51
   3   4   7  181.92    8.60
  -3  -4  -7  173.77    8.53
   3  -4   8  253.25   11.23
  -3  -4  -8  284.77   11.43
   3  -4   8  266.53    8.66
   3   4   8  276.25   11.22
   3  -4   9  230.64   11.13
   3   4   9  230.03    9.31
   3  -4   9  240.55    8.57
   3   4   9  249.52   10.98
   3  -4  10   64.94    6.18
   3   4  10   66.74    5.01
   3  -4  10   61.41    4.39
   3  -4  11   94.44    7.77
   3   4  11   85.02    5.80
   3  -4  11   88.03    5.61
   3  -4  12   -4.37    3.64
   3   4  12    0.91    1.65
   3  -4  12    0.55    1.67
   3  -4  13  183.25   11.74
   3   4  13  197.03    9.42
   3  -4  13  192.63    9.28
   3   4  14  139.98    8.07
   3  -4  14  135.31   10.63
   3   4  15   16.57    3.17
   3  -4  15   12.31    4.21
   3  -4  16    1.27    3.10
  -3   5  19   52.14    7.06
  -3  -5  19   47.82    6.46
  -3   5  18    2.13    3.41
  -3  -5  18    3.33    3.27
  -3   5  17   49.53    6.62
  -3  -5  17   33.69    5.86
  -3  -5  16   98.27    8.34
  -3   5  16  115.20    9.34
  -3   5  15   29.80    4.81
  -3  -5  15   34.57    4.97
   3   5 -14  135.47    8.25
  -3   5  14  161.41    9.94
  -3  -5  14  141.36    9.21
   3   5 -13  283.46   11.90
  -3  -5  13  272.82   12.52
   3   5 -12  359.25   13.40
  -3  -5  12  345.77   13.82
  -3  -5  11   85.36    6.40
  -3   5  10  235.63   11.47
   3   5 -10  237.62   10.97
  -3  -5  10  235.95   10.30
  -3  -5   9  785.25   21.22
   3  -5  -9  831.97   23.45
  -3   5   9  823.07   23.57
   3   5  -9  881.90   22.72
   3  -5  -8    1.95    1.89
  -3   5   8    0.66    2.08
   3   5  -8    3.44    1.86
  -3  -5   8    1.00    1.83
   3  -5  -7   20.74    3.31
  -3   5   7   19.24    3.27
  -3  -5   7   27.52    3.22
   3   5  -7   20.91    2.87
   3  -5  -6   22.40    3.32
  -3   5   6   18.54    3.25
  -3  -5   6   19.77    2.72
   3   5  -6   21.69    2.85
  -3  -5   5    1.50    1.83
   3  -5  -5    3.01    1.79
  -3   5   5    1.25    2.12
   3   5  -5    3.29    1.50
  -3  -5   4 1092.10   23.61
  -3   5   4 1051.30   25.23
   3  -5  -4 1048.07   25.40
   3   5  -4 1097.96   23.78
  -3  -5   3   53.16    3.86
   3   5  -3   52.07    3.79
  -3   5   3   50.65    4.23
   3  -5  -3   49.54    4.17
   3   5  -2  827.75   19.06
  -3  -5   2  813.86   18.94
  -3   5   2  828.56   19.97
   3  -5  -2  816.51   20.07
  -3  -5   1   78.12    4.64
   3   5  -1   83.52    4.74
  -3   5   1   76.52    4.64
   3  -5  -1   75.31    4.71
  -3   5   1   82.03    3.97
  -3  -5   0    4.03    1.89
   3   5   0    7.62    1.87
  -3   5   0    8.33    1.23
  -3   5   0    5.96    1.30
  -3   5   0    5.13    1.56
   3  -5   0    5.85    1.50
   3   5   1 2075.65   39.75
  -3   5  -1 2077.64   36.37
  -3   5  -1 2074.41   37.21
   3  -5   1 1969.88   38.57
  -3  -5  -1 2099.92   39.92
  -3   5  -2  714.14   14.12
   3   5   2  700.01   17.54
  -3   5  -2  707.06   15.93
   3  -5   2  704.19   14.17
   3  -5   2  696.29   15.82
  -3  -5  -2  726.41   17.76
   3  -5   3  137.43    4.32
  -3   5  -3  140.99    6.06
   3  -5   3  133.73    4.99
  -3  -5  -3  156.99    7.15
   3   5   3  143.47    6.74
  -3   5  -3  146.80    4.39
   3  -5   4  186.99    5.28
  -3   5  -4  184.99    7.58
   3  -5   4  192.79    7.46
   3  -5   4  184.71    5.50
  -3   5  -4  184.38    5.23
  -3  -5  -4  181.10    8.09
   3   5   4  191.95    8.17
   3   5   5   18.95    2.94
   3  -5   5   16.63    1.55
   3  -5   5   15.37    2.57
   3  -5   5   16.57    1.25
  -3   5  -5   16.44    1.62
  -3  -5  -5   17.78    2.96
   3  -5   6   91.00    5.87
   3  -5   6   93.68    3.90
   3   5   6  105.13    6.37
  -3  -5  -6   96.80    6.26
   3  -5   7  107.05    6.67
   3   5   7  120.42    7.06
   3  -5   7   97.49    4.31
  -3  -5  -7  103.27    6.78
   3  -5   8    4.10    2.04
   3  -5   8    4.54    1.28
   3   5   8    5.64    2.09
  -3  -5  -8    5.24    2.76
   3  -5   9  141.02    8.53
   3   5   9  152.16    7.77
   3  -5   9  144.30    6.13
   3  -5  10   51.07    5.50
   3   5  10   59.66    4.90
   3  -5  10   60.08    4.15
   3  -5  11    1.59    2.63
   3   5  11    1.73    1.79
   3  -5  11    7.23    1.85
   3  -5  12  193.46   11.53
   3   5  12  209.72    9.83
   3  -5  12  189.91    8.50
   3  -5  13  162.70   11.12
   3   5  13  166.23    8.98
   3  -5  13  159.68    8.16
   3   5  14  288.18   12.33
   3  -5  14  261.26   14.89
   3   5  15   33.23    4.24
   3  -5  15   39.77    6.73
   3  -5  16   58.92    7.53
  -3   6  19   96.07    9.52
  -3  -6  19   82.85    8.54
  -3   6  18    9.10    4.15
  -3  -6  18    4.36    3.27
  -3  -6  17  434.95   18.49
  -3   6  17  454.49   19.68
  -3   6  16  102.60    8.85
  -3  -6  16   89.70    8.07
  -3   6  15   26.64    4.76
  -3  -6  15   27.66    4.70
   3   6 -14   95.79    7.01
  -3  -6  14   89.52    7.23
   3   6 -13   -2.92    1.92
  -3  -6  13    0.80    2.12
  -3  -6  12   50.93    5.27
  -3   6  11    9.03    3.37
  -3  -6  11    4.64    2.23
  -3  -6  10  724.53   20.44
  -3   6  10  748.06   23.04
   3   6 -10  771.74   22.24
  -3  -6   9  859.30   22.51
   3  -6  -9  912.75   25.32
  -3   6   9  898.00   25.45
   3   6  -9  931.00   24.17
   3  -6  -8   37.41    4.41
  -3   6   8   41.92    4.74
   3   6  -8   41.56    4.17
  -3  -6   8   40.95    4.04
  -3  -6   7 1158.47   26.47
   3  -6  -7 1188.32   29.32
  -3   6   7 1151.56   29.13
   3   6  -7 1238.30   27.70
  -3  -6   6 1039.42   23.80
   3  -6  -6 1039.69   26.31
  -3   6   6 1018.70   26.21
   3   6  -6 1082.63   24.57
  -3  -6   5 1217.90   26.61
   3  -6  -5 1225.91   29.15
  -3   6   5 1225.26   29.16
   3   6  -5 1279.60   27.03
  -3  -6   4  883.93   20.37
   3  -6  -4  847.02   22.19
  -3   6   4  860.72   22.26
   3   6  -4  900.18   20.62
   3   6  -3   55.72    3.91
  -3  -6   3   52.13    3.94
  -3   6   3   61.53    4.81
   3  -6  -3   50.84    4.35
  -3  -6   2  445.37   12.32
   3   6  -2  429.80   12.31
  -3   6   2  420.94   13.08
   3  -6  -2  397.35   12.88
  -3  -6   1  189.75    7.52
   3   6  -1  189.29    7.41
  -3   6   1  187.69    6.32
   3  -6  -1  175.32    7.54
  -3   6   1  167.64    7.42
   3   6   0  225.06    8.34
  -3   6   0  225.05    6.67
   3  -6   0  230.55    8.43
  -3   6   0  237.04    8.48
  -3  -6   0  228.03    8.50
   3   6   1   96.44    5.31
  -3   6  -1   99.22    3.73
  -3   6  -1   95.30    4.37
   3  -6   1   93.01    4.82
  -3   6  -1  101.97    5.09
  -3  -6  -1   93.24    5.39
  -3   6  -2  567.56   11.43
   3   6   2  558.48   15.22
  -3   6  -2  556.55   13.77
   3  -6   2  545.23   13.55
  -3   6  -2  557.63   13.59
  -3  -6  -2  551.78   15.29
   3   6   3   17.08    2.53
  -3   6  -3   14.55    1.25
  -3   6  -3   15.95    2.20
   3  -6   3   15.49    1.72
  -3  -6  -3   10.02    2.31
   3  -6   4 3095.69   52.56
  -3   6  -4 3159.27   58.22
   3  -6   4 3116.34   54.08
  -3  -6  -4 3192.01   59.55
   3   6   4 3186.90   59.28
  -3   6  -4 3174.95   52.53
  -3   6  -5 2487.34   48.59
   3  -6   5 2473.31   42.27
   3   6   5 2496.74   49.22
  -3  -6  -5 2505.58   49.23
   3  -6   6   12.53    2.68
   3  -6   6    7.33    1.09
   3   6   6    8.87    2.68
  -3  -6  -6    8.69    2.59
   3  -6   7  107.62    6.80
   3  -6   7  111.25    4.23
   3   6   7  125.36    7.43
  -3  -6  -7  115.38    7.35
   3  -6   8   28.15    3.72
   3  -6   8   28.98    2.29
   3   6   8   38.45    4.40
  -3  -6  -8   30.36    4.09
   3  -6   9  131.49    8.43
   3   6   9  140.22    7.87
   3  -6   9  146.48    5.71
   3  -6  10  414.19   16.20
   3   6  10  408.10   14.48
   3  -6  10  400.14   11.42
   3  -6  11    3.47    1.58
   3   6  11    9.56    2.64
   3  -6  11    6.55    2.51
   3  -6  12    6.12    1.99
   3   6  12    5.35    2.31
   3   6  13   72.84    6.21
   3  -6  13   57.36    6.95
   3   6  14   10.60    3.27
   3  -6  14   10.27    4.61
   3   6  15   89.93    7.15
   3  -6  15   88.86    9.33
   3   6  16   50.78    5.62
   3  -6  16   31.48    5.71
  -3   7  19   56.87    7.77
  -3   7  18    4.08    3.43
  -3  -7  18   -2.51    3.24
  -3   7  17   -0.47    3.31
  -3  -7  17   -2.16    3.07
  -3   7  16   46.49    6.43
  -3  -7  16   60.62    6.60
  -3  -7  15  451.86   17.64
  -3  -7  14   27.61    4.33
   3   7 -13   38.16    4.38
  -3   7  13   36.03    5.65
  -3  -7  13   29.12    4.26
  -3   7  12   49.07    6.07
  -3  -7  12   47.65    4.89
  -3  -7  11  681.74   19.96
  -3   7  11  681.28   22.77
  -3  -7  10  127.48    7.49
  -3   7  10  129.95    8.92
  -3  -7   9  365.17   12.91
  -3   7   9  380.23   15.35
   3   7  -9  402.19   14.54
   3  -7  -8   14.29    3.16
  -3   7   8   13.73    3.26
  -3  -7   8    9.23    2.30
   3   7  -8    7.36    2.18
  -3  -7   7  169.28    7.74
   3  -7  -7  169.48    9.22
  -3   7   7  172.76    9.43
   3   7  -7  172.07    8.46
  -3  -7   6  300.69   10.44
   3  -7  -6  316.31   12.52
  -3   7   6  277.55   11.96
  -3  -7   5  203.70    8.13
   3  -7  -5  195.73    9.45
  -3   7   5  175.66    9.12
   3   7  -5  202.50    8.15
  -3  -7   4   67.32    4.51
   3   7  -4   59.58    4.30
   3  -7  -4   61.99    5.06
  -3   7   4   71.54    5.47
  -3  -7   3    3.94    1.80
  -3   7   3    3.36    1.73
   3  -7  -3    1.74    1.88
   3   7  -3    3.30    1.40
  -3  -7   2   36.51    3.33
   3   7  -2   38.36    3.41
  -3   7   2   31.27    3.53
   3  -7  -2   35.60    3.67
   3   7  -1 1526.98   30.89
   3  -7  -1 1432.99   31.32
  -3   7   1 1453.02   31.39
  -3  -7   1 1502.95   30.78
   3   7   0  638.06   16.55
  -3   7   0  661.20   14.07
   3  -7   0  633.66   16.62
  -3   7   0  620.09   16.49
  -3  -7   0  652.87   16.82
  -3   7  -1 1567.80   28.13
   3   7   1 1543.22   32.33
  -3   7  -1 1547.95   30.43
   3  -7   1 1556.34   31.53
  -3   7  -1 1553.78   31.57
  -3  -7  -1 1582.89   32.70
   3   7   2   37.18    3.52
  -3   7  -2   37.52    1.95
  -3   7  -2   41.63    3.26
   3  -7   2   37.72    3.01
  -3   7  -2   41.60    3.22
  -3  -7  -2   37.15    3.82
  -3   7  -3  437.39   12.64
   3  -7   3  415.56   11.09
  -3   7  -3  446.71   11.52
  -3   7  -3  431.85    8.50
  -3  -7  -3  441.52   13.87
   3   7   3  463.80   13.83
  -3   7  -4  512.74   14.65
  -3  -7  -4  513.98   15.54
   3   7   4  496.52   15.21
  -3   7  -5   10.39    2.30
   3   7   5    8.26    2.58
  -3  -7  -5   11.84    3.10
  -3   7  -6  148.22    8.00
   3  -7   6  145.75    3.88
   3   7   6  155.05    8.17
  -3  -7  -6  164.12    8.52
   3  -7   7  100.95    3.46
  -3  -7  -7   97.51    6.89
   3   7   7  105.36    6.93
   3  -7   8    0.14    0.82
  -3  -7  -8    4.39    2.83
   3  -7   9    7.20    2.72
   3  -7   9    7.77    1.38
   3   7   9   11.08    2.92
   3  -7  10   -0.56    2.70
   3  -7  10   -0.49    1.25
   3   7  10    1.74    2.05
   3  -7  11  368.45   16.11
   3   7  11  373.29   14.70
   3  -7  11  410.08   11.34
   3  -7  12  282.40   14.52
   3   7  12  288.88   12.98
   3  -7  12  318.06   10.20
   3   7  13  163.13    9.64
   3  -7  13  157.89   11.11
   3   7  14    4.87    2.81
   3  -7  14    7.42    3.75
   3   7  15  280.07   13.57
   3  -7  15  279.28   15.91
   3   7  16   -1.20    2.46
   3  -7  16  -13.83    4.63
  -3   8  18   64.91    7.95
  -3  -8  17  230.92   12.87
  -3   8  17  253.69   14.62
  -3  -8  16  103.53    8.39
  -3  -8  15   47.30    5.62
  -3   8  14    1.94    2.66
  -3  -8  14    2.20    2.65
  -3   8  13   65.37    7.22
  -3  -8  13   61.00    5.58
  -3  -8  12  142.70    8.43
  -3   8  12  166.94   11.02
  -3   8  11   32.27    4.94
  -3  -8  11   32.85    4.05
  -3  -8  10  493.15   15.96
  -3   8  10  533.54   19.34
  -3  -8   9   47.37    4.44
  -3   8   9   50.48    5.77
  -3  -8   8    1.29    1.64
  -3   8   8   -0.40    2.19
   3   8  -8    0.48    1.72
  -3  -8   7  259.47    9.98
   3  -8  -7  257.98   11.98
  -3   8   7  281.39   12.48
   3   8  -7  283.53   11.46
  -3  -8   6   11.32    2.40
  -3   8   6    7.34    2.78
   3  -8  -6   12.19    2.75
   3   8  -6    8.89    2.17
  -3  -8   5  136.90    6.68
   3  -8  -5  147.83    8.31
  -3   8   5  126.74    7.82
   3   8  -5  134.58    6.69
  -3  -8   4   81.49    4.98
   3   8  -4   87.21    5.18
   3  -8  -4   78.89    5.87
  -3   8   4   76.57    5.89
  -3  -8   3  174.07    7.45
   3   8  -3  168.12    7.42
  -3   8   3  170.81    8.53
   3  -8  -3  160.65    8.23
   3   8  -2  417.69   12.58
   3  -8  -2  419.98   13.80
  -3   8   2  416.74   13.79
  -3  -8   2  408.90   12.51
   3   8  -1   14.99    2.45
  -3  -8   1   14.67    2.61
  -3   8   1   10.60    2.41
   3  -8  -1   11.73    2.53
   3   8   0  392.38   12.25
  -3   8   0  398.61    9.83
   3  -8   0  385.17   12.24
  -3   8   0  387.84   12.45
  -3  -8   0  388.25   12.36
   3   8   1    3.02    1.61
  -3   8  -1    1.39    0.81
  -3   8  -1    0.10    1.45
  -3  -8  -1    0.22    2.12
   3  -8   1    0.74    1.25
  -3   8  -2    0.16    0.62
   3   8   2    2.31    1.64
  -3   8  -2    0.98    1.15
  -3   8  -2    0.75    1.20
   3  -8   2    1.84    1.31
  -3  -8  -2    0.40    1.89
  -3   8  -3  127.01    6.27
  -3   8  -3  126.73    5.67
   3   8   3  121.26    6.79
  -3  -8  -3  112.42    6.72
   3   8   4   18.11    3.03
  -3   8  -4   20.04    2.71
  -3   8  -4   20.11    2.16
  -3  -8  -4   20.24    3.33
  -3   8  -5 1296.62   29.56
   3   8   5 1311.77   30.27
  -3  -8  -5 1241.73   30.05
  -3   8  -6   98.16    6.55
   3   8   6   90.71    6.40
  -3  -8  -6   99.04    6.91
  -3   8  -7  752.55   21.58
  -3  -8  -7  708.72   21.52
   3  -8   8  456.35    9.10
  -3  -8  -8  434.24   16.33
   3  -8   9  294.30    7.26
   3   8   9  292.99   12.61
   3  -8  10   37.14    2.46
   3   8  10   30.50    4.46
   3   8  11   88.28    7.03
   3  -8  11   78.63    4.01
   3   8  12   41.05    5.02
   3   8  13   -3.52    2.89
   3   8  14    6.39    3.17
   3   8  15  201.14   11.79
   3   8  16   41.03    5.85
  -3   9  18    6.07    3.78
  -3  -9  16    4.31    2.74
  -3   9  15   41.99    6.32
  -3  -9  15   35.04    4.71
  -3   9  14   20.91    5.05
  -3  -9  14   21.24    3.97
  -3  -9  13  420.97   15.82
  -3   9  13  458.26   19.75
  -3   9  12    1.51    2.91
  -3  -9  12   -0.88    2.34
  -3  -9  11   32.53    4.14
  -3   9  11   28.50    4.76
  -3  -9  10    4.25    2.21
  -3   9  10    0.35    2.89
  -3  -9   9 1943.25   40.82
  -3   9   9 1981.54   46.05
  -3  -9   8   67.60    5.10
  -3   9   8   81.95    7.12
  -3  -9   7    6.55    2.31
   3   9  -7    5.00    2.21
  -3   9   7    8.71    3.14
  -3  -9   6    8.89    2.16
   3   9  -6    6.78    1.91
  -3   9   6   11.83    3.23
   3  -9  -6    6.07    2.42
  -3  -9   5    9.58    2.23
   3   9  -5    5.90    1.98
  -3   9   5   10.67    2.97
   3  -9  -5   10.73    2.84
   3   9  -4   53.32    4.25
  -3  -9   4   49.62    4.02
   3  -9  -4   53.84    5.03
  -3   9   4   50.01    5.04
  -3  -9   3  707.34   18.09
   3   9  -3  692.70   17.99
   3  -9  -3  690.55   19.91
  -3   9   3  707.09   20.39
   3   9  -2   53.53    4.19
   3  -9  -2   47.60    4.54
  -3   9   2   60.73    5.15
  -3  -9   2   56.83    4.45
   3   9  -1   75.41    4.99
   3  -9  -1   70.96    5.23
  -3   9   1   78.38    5.60
  -3  -9   1   66.62    4.87
   3   9   0  306.21   10.80
  -3   9   0  305.14    8.32
   3  -9   0  299.55   10.90
  -3   9   0  307.00   11.27
  -3  -9   0  287.00   10.76
   3   9   1 1728.12   36.19
  -3   9  -1 1770.42   31.11
   3  -9   1 1731.33   35.65
  -3   9  -1 1725.80   36.08
  -3  -9  -1 1693.30   36.51
  -3   9  -2    6.71    0.88
   3   9   2    2.71    1.62
  -3   9  -2    6.66    1.79
  -3   9  -2    9.28    2.12
  -3   9  -2    7.64    0.88
  -3  -9  -2    5.86    2.22
  -3   9  -3   74.22    5.00
  -3   9  -3   67.17    4.37
  -3  -9  -3   74.05    5.70
   3   9   3   68.58    5.21
   3   9   4   35.06    4.06
  -3   9  -4   26.51    3.30
  -3   9  -4   28.64    2.69
  -3  -9  -4   29.39    4.01
  -3   9  -5  404.14   13.97
  -3   9  -5  410.44   10.88
   3   9   5  414.16   14.48
  -3  -9  -5  408.61   14.69
  -3   9  -6  391.68   14.20
  -3  -9  -6  380.82   14.55
  -3   9  -7    6.06    2.47
  -3  -9  -7    4.28    2.71
  -3  -9  -8   97.22    7.62
   3   9   9   11.95    3.07
   3  -9  10  120.91    3.50
   3  -9  10  114.82    3.49
   3   9  10  125.34    8.65
   3   9  11   20.32    3.95
   3   9  12    5.00    2.97
   3   9  13  299.37   14.57
   3   9  14  106.38    8.57
   3   9  15   29.96    5.22
   3   9  16   29.30    5.14
  -3  10  16   62.94    7.74
  -3 -10  15   16.02    3.31
  -3  10  15   16.01    4.85
  -3 -10  14  105.34    7.74
  -3  10  14  108.50    9.89
  -3 -10  13    3.57    2.32
  -3  10  13    4.59    3.27
  -3 -10  12  153.49    8.71
  -3  10  12  160.41   11.24
  -3 -10  11   26.12    3.65
  -3  10  11   25.47    4.74
  -3 -10  10   38.92    4.28
  -3  10  10   36.02    5.42
  -3 -10   9  212.81    9.41
  -3  10   9  219.15   12.23
  -3 -10   8  718.45   19.42
  -3  10   8  739.26   23.66
  -3 -10   7  106.44    6.26
  -3  10   7  114.12    8.34
  -3 -10   6  824.51   20.93
  -3  10   6  880.59   25.37
   3  10  -6  837.95   21.10
  -3 -10   5  138.45    6.92
  -3  10   5  136.81    8.77
   3  10  -5  134.81    6.91
  -3 -10   4  448.19   13.80
   3  10  -4  451.19   13.85
   3 -10  -4  483.11   16.51
  -3  10   4  473.81   16.68
   3  10  -3  365.63   12.07
   3 -10  -3  364.66   13.78
  -3  10   3  372.59   14.23
  -3 -10   3  372.48   12.15
   3  10  -2  284.94   10.51
   3 -10  -2  290.00   11.80
  -3  10   2  281.43   11.80
  -3 -10   2  296.34   10.66
   3  10  -1   66.66    4.83
   3 -10  -1   58.26    4.96
  -3  10   1   71.60    5.59
  -3 -10   1   66.84    4.96
   3  10   0   27.55    3.20
  -3  10   0   27.50    3.59
  -3 -10   0   31.37    3.60
   3  10   1   42.08    4.02
  -3  10  -1   42.70    2.41
  -3  10  -1   37.28    3.76
  -3  10  -1   40.85    2.42
  -3 -10  -1   44.63    4.26
   3  10   2  925.68   23.26
  -3  10  -2  929.59   16.35
  -3  10  -2  931.23   22.52
  -3 -10  -2  909.86   23.47
  -3  10  -2  899.22   16.34
   3  10   3   87.28    5.99
  -3  10  -3   87.92    5.75
  -3  10  -3   91.79    5.38
  -3 -10  -3   85.05    6.23
  -3  10  -4  184.63    8.85
  -3  10  -4  183.00    7.40
   3  10   4  178.18    8.96
  -3 -10  -4  187.72    9.54
  -3  10  -5  916.11   24.07
  -3  10  -5  899.63   20.10
  -3 -10  -5  897.48   24.64
  -3  10  -6  392.04   14.54
  -3  10  -6  385.84   10.35
  -3 -10  -6  382.16   14.97
  -3 -10  -7   97.98    7.59
  -3 -10  -8   35.47    4.91
   3  10   9   85.82    7.27
   3  10  10    1.26    2.27
   3  10  11  145.80    9.86
   3  10  12   85.02    7.61
   3  10  13   11.55    3.55
   3  10  14   -3.39    2.99
   3  10  15    3.32    3.38
   3  10  16   34.61    5.96
  -3  11  15   32.17    5.89
  -3 -11  14  466.91   16.92
  -3  11  14  499.61   21.94
  -3 -11  13   76.02    6.16
  -3  11  13   70.41    8.10
  -3 -11  12  227.99   10.67
  -3  11  12  225.50   13.93
  -3 -11  11   93.09    6.47
  -3  11  11   82.61    8.25
  -3 -11  10  426.31   14.43
  -3  11  10  402.21   17.97
  -3 -11   9   13.21    2.88
  -3  11   9   14.23    4.11
  -3 -11   8   44.37    4.33
  -3  11   8   46.60    5.73
  -3 -11   7  171.79    8.10
  -3  11   7  182.86   11.00
  -3 -11   6  107.49    6.38
  -3  11   6  111.52    8.43
   3  11  -6  120.42    6.69
  -3 -11   5   -1.51    1.78
  -3  11   5    2.34    2.42
   3  11  -5   -1.59    1.86
  -3 -11   4    9.46    2.42
  -3  11   4   11.00    2.99
   3  11  -4   12.39    2.39
  -3 -11   3   24.19    3.30
   3  11  -3   22.48    3.11
  -3  11   3   20.15    3.66
   3  11  -2  473.34   14.45
  -3  11   2  454.74   16.23
  -3 -11   2  473.52   14.61
  -3  11   2  471.72   13.43
   3  11  -1  289.75   10.78
  -3  11   1  286.70   12.03
  -3  11   1  277.52    9.03
  -3 -11   1  264.79   10.65
   3  11   0  698.09   18.87
  -3  11   0  666.68   19.72
  -3 -11   0  698.88   19.23
  -3  11   0  681.81   15.41
   3  11   1  194.44    8.92
  -3  11  -1  187.94    5.60
  -3  11  -1  188.17    9.02
  -3 -11  -1  192.38    9.08
  -3  11  -1  183.22    5.56
   3  11   2  589.34   17.45
  -3  11  -2  574.33   10.61
  -3  11  -2  606.05   17.17
  -3 -11  -2  586.22   17.73
  -3  11  -2  564.76   10.58
   3  11   3  524.35   16.62
  -3  11  -3  551.61   16.57
  -3  11  -3  527.18   15.53
  -3 -11  -3  498.08   16.69
  -3  11  -4  289.27   11.64
  -3  11  -4  277.56   10.08
  -3 -11  -4  260.18   11.72
  -3  11  -5  122.11    7.60
  -3  11  -5  117.66    5.83
  -3 -11  -5  116.29    7.84
  -3  11  -6 1912.91   36.42
  -3 -11  -6 1851.04   43.05
  -3  11  -7   -0.56    1.09
  -3 -11  -7   -1.19    2.64
   3  11   8  143.21    9.49
  -3 -11  -8  119.69    8.85
   3  11   9   16.38    4.00
   3  11  10  181.58   11.21
   3  11  11  221.54   12.68
   3  11  12  421.06   18.15
   3  11  13    7.31    3.24
   3  11  14  123.85   10.09
   3  11  15   -2.43    3.39
   3  11  16  146.66   11.37
  -3  12  15   16.51    5.40
  -3  12  14    1.32    3.20
  -3 -12  13   11.70    3.08
  -3  12  13   21.50    5.44
  -3 -12  12  161.56    8.88
  -3  12  12  164.39   12.27
  -3 -12  11   69.49    5.72
  -3  12  11   78.10    8.37
  -3 -12  10  188.05    9.14
  -3  12  10  189.90   12.44
  -3 -12   9   25.38    3.35
  -3  12   9   26.46    5.26
  -3 -12   8   23.43    3.34
  -3  12   8   24.24    4.81
  -3 -12   7   43.67    4.22
  -3  12   7   52.43    6.35
  -3 -12   6  647.46   18.10
   3  12  -6  663.54   18.10
  -3  12   6  657.73   22.58
  -3  12   6  620.94   19.57
  -3 -12   5   40.41    4.12
   3  12  -5   41.28    4.00
  -3  12   5   48.23    5.81
  -3  12   5   45.70    4.50
   3  12  -4  272.41   10.52
  -3  12   4  289.50   13.45
  -3 -12   4  276.01   10.74
  -3  12   4  278.74   11.08
   3  12  -3  413.82   13.50
  -3  12   3  414.09   16.24
  -3 -12   3  404.70   13.66
  -3  12   3  430.22   13.45
   3  12  -2 1921.20   39.19
  -3  12   2 1842.84   42.35
  -3  12   2 1836.02   37.43
  -3 -12   2 1883.17   39.42
   3  12  -1   40.38    4.06
  -3  12   1   33.74    4.41
  -3 -12   1   36.71    4.20
  -3  12   1   39.83    3.22
   3  12   0   -0.55    1.65
  -3  12   0    2.31    2.26
  -3  12   0    0.56    1.08
  -3 -12   0    1.11    1.92
   3  12   1  123.58    7.04
  -3  12  -1  116.13    4.22
  -3  12  -1   95.87    6.71
  -3 -12  -1  111.45    7.15
  -3  12  -1  119.62    4.23
   3  12   2  482.85   15.68
  -3  12  -2  461.18   15.34
  -3 -12  -2  465.24   15.88
  -3  12  -3  508.00   16.35
  -3  12  -3  507.13   15.71
  -3 -12  -3  490.25   16.77
  -3  12  -4 1085.78   27.48
  -3  12  -4 1062.47   25.31
  -3 -12  -4 1070.60   28.10
  -3  12  -5   18.68    2.62
  -3 -12  -5   20.71    3.87
  -3  12  -6  267.35    9.22
  -3 -12  -6  247.15   12.50
  -3  12  -7  191.46    7.02
  -3 -12  -7  191.45   11.02
   3  12   8  784.38   25.36
   3  12   9  217.09   12.57
   3  12  10   35.15    5.37
   3  12  11   47.39    6.26
   3  12  12   28.51    5.45
   3  12  13   39.00    6.41
   3  12  14   -1.80    3.16
   3  12  15    8.99    3.79
   3  12  16   63.43    8.05
  -3  13  14  190.74   13.81
  -3  13  13   10.78    4.88
  -3 -13  12  401.24   14.49
  -3  13  12  393.50   19.38
  -3 -13  11  102.50    6.83
  -3  13  11   98.76    9.59
  -3 -13  10  146.25    7.98
  -3  13  10  154.68   11.45
  -3 -13   9   81.72    5.86
  -3  13   9   94.73    8.82
  -3 -13   8  347.10   12.52
  -3  13   8  342.13   16.64
  -3  13   7  371.90   17.10
  -3 -13   7  370.25   12.96
  -3 -13   6    5.07    1.93
   3  13  -6    8.66    2.47
  -3  13   6    9.49    3.93
   3  13  -5   88.93    5.87
  -3  13   5  109.79    8.73
  -3 -13   5   81.94    5.84
  -3  13   5  102.59    6.96
   3  13  -4  336.61   12.02
  -3  13   4  355.08   15.51
  -3 -13   4  324.83   12.09
  -3  13   4  304.84   12.07
   3  13  -3   14.71    2.58
  -3  13   3   16.74    3.54
  -3  13   3   15.00    2.68
  -3 -13   3   12.83    2.69
   3  13  -2   10.87    2.39
  -3  13   2    8.29    3.01
  -3  13   2   10.63    2.22
  -3 -13   2    5.78    2.33
   3  13  -1   47.59    4.47
  -3  13   1   46.42    5.36
  -3 -13   1   52.06    4.81
  -3  13   1   47.14    3.62
   3  13   0  423.01   14.37
  -3  13   0  404.37   15.41
  -3  13   0  411.90   10.84
  -3 -13   0  390.98   14.35
   3  13   1  242.97   10.63
  -3  13  -1  252.62    6.83
  -3  13  -1  231.81   11.04
  -3 -13  -1  256.18   11.30
  -3  13  -1  244.41    6.70
  -3  13  -2   98.41    6.69
  -3 -13  -2  107.77    7.35
  -3  13  -3  105.00    6.81
  -3 -13  -3   95.63    7.22
  -3  13  -4  228.38    9.90
  -3 -13  -4  212.60   11.06
  -3  13  -5  225.58    9.43
  -3 -13  -5  220.49   11.65
  -3  13  -6   34.61    3.41
  -3 -13  -6   34.51    5.15
  -3  13  -7   96.03    5.15
  -3 -13  -7   84.28    7.62
  -3  13  -8   -1.25    1.36
   3  13   8    4.02    2.94
   3  13   9   95.83    8.70
   3  13  10  132.40   10.09
   3  13  11   12.19    4.16
   3  13  12   14.13    4.25
   3  13  13   -4.13    3.43
   3  13  14  257.61   15.42
   3  13  15   15.00    4.89
  -3  14  13   38.86    6.75
  -3  14  12   -3.79    4.00
  -3  14  11  166.98   12.59
  -3 -14  10   -1.35    2.24
  -3  14  10    3.11    3.18
  -3 -14   9  429.65   14.60
  -3  14   9  463.85   20.52
  -3  14   8  315.03   16.36
  -3 -14   8  311.06   11.86
  -3  14   7  512.83   21.09
  -3 -14   7  519.51   16.14
  -3 -14   6   -0.52    2.08
   3  14  -6   -0.22    1.90
  -3  14   6    1.99    3.41
   3  14  -5  573.05   17.12
  -3  14   5  622.61   22.55
  -3  14   5  580.01   18.35
  -3 -14   5  589.65   17.49
   3  14  -4   23.56    3.30
  -3  14   4   22.73    4.44
  -3  14   4   26.54    3.47
  -3 -14   4   31.39    3.91
   3  14  -3   -0.45    1.83
  -3  14   3    0.86    2.91
  -3 -14   3    2.12    1.91
  -3  14   3    1.67    1.81
   3  14  -2   27.34    3.57
  -3  14   2   18.41    3.77
  -3  14   2   21.18    2.70
  -3 -14   2   22.94    3.38
   3  14  -1   80.10    5.89
  -3  14   1   66.69    6.32
  -3  14   1   78.10    4.65
  -3 -14   1   72.33    5.81
   3  14   0   90.66    6.44
  -3  14   0   92.87    7.37
  -3 -14   0   81.00    6.34
  -3  14   0   95.45    4.49
  -3  14  -1  215.07    6.14
  -3  14  -1  203.93   10.75
  -3  14  -1  203.92    5.94
  -3 -14  -1  209.78   10.36
  -3  14  -2  516.50   17.52
  -3 -14  -2  499.49   17.49
  -3  14  -3   35.51    4.27
  -3 -14  -3   41.98    5.14
  -3  14  -4   -0.36    1.98
  -3 -14  -4   -0.45    2.40
  -3  14  -5  863.75   22.53
  -3 -14  -5  840.68   25.82
  -3  14  -6   46.99    4.27
  -3 -14  -6   47.63    5.87
  -3  14  -7  210.41    8.49
   3  14   7  214.53   12.84
   3  14   8  137.49   10.55
   3  14   9  353.94   17.19
   3  14  10   90.93    8.85
   3  14  11   21.50    4.73
   3  14  12    6.85    3.78
   3  14  13   75.21    8.48
  -3  15  11    9.40    3.33
  -3  15  10    2.59    3.05
  -3  15   9  492.40   21.86
  -3 -15   9  479.98   15.52
  -3 -15   8   28.41    3.64
  -3  15   8   37.71    6.37
  -3 -15   7   26.17    3.45
  -3  15   7   28.21    5.57
   3  15  -6    9.96    2.75
  -3  15   6    5.76    3.56
  -3 -15   6   11.71    2.66
   3  15  -5   32.93    3.76
  -3  15   5   40.66    6.05
  -3 -15   5   38.29    4.15
   3  15  -4  186.43    8.91
  -3  15   4  197.62   12.07
  -3 -15   4  180.73    9.06
  -3  15   4  170.21    8.88
   3  15  -3   72.79    5.63
  -3  15   3   71.12    7.29
  -3 -15   3   70.43    5.71
  -3  15   3   69.18    5.32
   3  15  -2   82.98    6.07
  -3  15   2   84.27    7.76
  -3  15   2   90.49    5.53
  -3 -15   2   84.68    6.34
   3  15  -1  575.22   17.71
  -3  15   1  550.28   20.22
  -3 -15   1  557.98   18.14
  -3  15   1  556.27   14.71
  -3  15   0   47.56    5.62
  -3 -15   0   47.67    5.11
  -3  15   0   49.93    3.24
  -3  15  -1  572.95   12.02
  -3  15  -1  530.28   19.07
  -3  15  -1  533.37   11.76
  -3 -15  -1  530.25   18.26
  -3  15  -2  108.38    7.82
  -3 -15  -2  124.35    8.38
  -3  15  -3   20.95    3.50
  -3 -15  -3   24.25    4.23
  -3  15  -4    5.75    2.45
  -3 -15  -4    3.42    2.69
  -3  15  -5   15.02    2.85
  -3 -15  -5   16.59    4.02
  -3  15  -6  219.18    9.69
  -3 -15  -6  194.30   11.84
  -3  15  -7    2.17    1.74
   3  15   7    2.21    3.66
   3  15   8  116.34    9.89
   3  15   9   65.93    7.71
   3  15  10    7.25    2.96
   3  15  11   39.03    6.61
   3  15  12    5.31    3.50
  -3  16  10   72.85    8.61
  -3  16   9  327.86   18.12
  -3  16   8  209.94   14.09
  -3  16   7  413.86   19.75
  -3 -16   7  417.76   14.34
  -3  16   6   29.11    5.49
  -3 -16   6   21.65    3.17
  -3  16   5  273.28   15.24
  -3 -16   5  264.42   11.21
  -3  16   4  292.71   15.43
  -3 -16   4  264.58   11.41
   3  16  -3  777.80   21.51
  -3  16   3  792.76   26.61
  -3 -16   3  766.41   21.99
  -3  16   3  770.28   20.85
  -3  16   2   33.58    5.34
  -3 -16   2   30.58    4.12
  -3  16   1  234.78   12.94
  -3 -16   1  235.22   11.22
  -3  16   0  123.18    9.08
  -3 -16   0  132.72    8.48
  -3  16  -1   25.41    4.31
  -3 -16  -1   28.52    4.13
  -3  16  -2    9.45    3.16
  -3 -16  -2    9.61    3.03
  -3  16  -3   34.95    4.94
  -3 -16  -3   29.45    4.70
  -3  16  -4  151.41    8.99
  -3 -16  -4  123.81    9.22
  -3  16  -5   17.87    3.41
  -3 -16  -5   15.71    4.25
   3  16   6  106.30    9.58
  -3  16  -6  129.60    7.61
   3  16   7  888.71   30.22
   3  16   8    5.84    3.64
   3  16   9  167.20   12.36
   3  16  10   19.33    4.95
  -3  17   9   64.65    7.96
  -3  17   8  137.15   11.69
  -3  17   7    9.92    4.28
  -3  17   6   12.32    4.68
  -3 -17   6   12.61    2.73
  -3  17   5    4.22    3.60
  -3 -17   5    5.25    2.44
  -3  17   4   58.86    7.38
  -3 -17   4   64.84    5.58
  -3  17   3    2.07    3.13
  -3 -17   3    4.20    2.97
  -3  17   2   32.87    5.39
  -3 -17   2   24.05    3.78
  -3  17   1   28.28    5.16
  -3 -17   1   21.99    3.91
  -3  17   0    3.20    2.97
  -3 -17   0    9.97    3.12
  -3  17  -1  196.88   11.80
  -3 -17  -1  215.50   11.49
  -3  17  -2  347.62   15.53
  -3 -17  -2  342.61   15.11
  -3  17  -3   28.49    4.35
  -3 -17  -3   40.17    5.51
  -3  17  -4   10.80    3.01
  -3 -17  -4   13.90    3.91
  -3  17  -5    8.29    2.06
   3  17   5    8.35    4.05
   3  17   6  251.42   15.13
   3  17   7   -3.03    4.05
   3  17   8   12.45    3.93
  -3  18   7   21.06    4.95
  -3  18   6  468.28   21.98
  -3  18   5  187.72   13.42
  -3  18   4  262.61   15.70
  -3 -18   4  256.11   11.52
  -3  18   3   58.17    7.41
  -3 -18   3   62.39    5.67
  -3  18   2    4.33    3.03
  -3 -18   2    3.85    2.42
  -3  18   1   69.22    7.59
  -3 -18   1   62.13    6.13
  -3  18   0    6.16    3.52
  -3 -18   0    5.45    2.75
  -3  18  -1   33.42    5.45
  -3 -18  -1   34.10    5.10
  -3  18  -2   30.50    5.26
  -3 -18  -2   27.35    4.59
  -3  18  -3    6.21    2.64
  -3 -18  -3    5.17    2.87
   3  18   4  346.37   18.09
  -3  18  -4  355.23   15.46
  -3  18  -5   68.82    6.44
   3  18   5   52.30    7.32
   3  18   6  507.96   22.74
  -3  19   6    3.20    3.43
  -3  19   5   28.91    5.58
  -3  19   4    4.10    3.44
  -3  19   3  104.52   10.11
  -3  19   2   30.24    5.84
  -3 -19   2   38.03    4.62
  -3  19   1    3.68    3.08
  -3 -19   1    1.97    2.70
  -3  19   0  231.84   14.09
  -3 -19   0  244.10   12.57
  -3  19  -1   17.29    3.81
  -3 -19  -1   16.08    4.05
  -3  19  -2   69.86    7.64
  -3 -19  -2   67.64    7.23
  -3  19  -3   63.14    6.95
   3  19   3   77.72    9.26
   3  19   4  170.90   13.05
  -3  19  -4  188.31   11.29
  -3  20   4   79.59    9.21
  -3  20   3    2.25    3.43
  -3  20   2   86.56    9.08
  -3  20   1   -1.15    3.23
  -3  20   0    6.31    4.08
  -3 -20   0    5.69    3.08
  -3  20  -1    2.54    3.06
  -3 -20  -1    3.35    2.74
  -3  20  -2    6.33    3.39
  -3  20  -3    4.53    3.31
  -3  21   2   51.57    7.82
  -3  21   1  162.03   12.43
  -3  21   0   89.26    9.41
  -3  21  -1   73.63    8.69
  -3  21  -2  108.31    9.93
  -3  22   0    8.80    3.76
  -3  22  -1    6.35    3.99
  -4   0  19   -2.50    2.95
  -4   0  18  273.85   14.93
  -4   0  17   -1.27    2.98
  -4   0  16  107.66    8.50
  -4   0  15   -3.68    2.54
  -4   0  14  346.22   14.32
  -4   0  13    0.83    1.98
  -4   0  12  372.85   13.58
   4   0 -11    0.77    2.05
  -4   0  11   -0.06    1.61
   4   0 -10   78.10    6.25
  -4   0  10   79.48    6.50
  -4   0  10   71.02    5.04
   4   0  -9    1.83    1.84
  -4   0   9   -1.42    2.29
  -4   0   9   -0.06    1.28
   4   0  -8 2546.73   51.00
  -4   0   8 2402.83   49.78
   4   0  -7   -1.75    2.02
  -4   0   7   -0.06    2.07
  -4   0   6  115.20    6.53
  -4   0   5   -0.11    1.99
   4   0  -4 2224.69   38.16
  -4   0   4 2135.94   42.61
   4   0  -3   -0.22    1.46
  -4   0   3   -1.36    1.95
   4   0  -3    0.39    0.55
   4   0  -2  583.16   14.99
  -4   0   2  565.29   14.87
   4   0  -1   -1.66    1.52
  -4   0   1    0.77    1.46
  -4   0   0  463.68   12.59
   4   0   0  462.23   12.61
  -4   0  -1    1.14    1.53
   4   0   1    0.25    1.20
  -4   0  -2 1508.36   30.15
   4   0   2 1476.74   30.01
  -4   0  -3   -2.02    1.66
   4   0   3    2.28    1.33
   4   0   4  440.01   12.54
  -4   0  -4  439.93   12.63
   4   0   5    1.27    1.32
  -4   0  -5    3.03    1.63
   4   0   6 1691.45   34.89
  -4   0  -6 1714.23   35.01
   4   0   7   -0.07    1.40
  -4   0  -7    0.86    1.84
   4   0   8  391.96   12.99
  -4   0  -8  382.43   12.94
   4   0   9   -0.20    1.67
  -4   0  -9    1.07    1.83
   4   0  10   21.35    3.22
   4   0  10   20.58    2.16
   4   0  11   -1.72    2.43
   4   0  11   -0.46    0.99
   4   0  12    3.92    1.32
   4   0  12   11.53    3.76
   4   0  13   -0.57    1.06
   4   0  13    2.88    3.29
   4   0  14  400.63   18.96
   4   0  15    8.47    3.80
   4   0  16  203.15   14.05
  -4   1  19   -6.53    4.46
  -4   1  18  101.42    9.13
  -4  -1  18  114.68   10.07
  -4  -1  17   52.38    6.95
  -4  -1  17   60.72    6.96
  -4   1  17   60.88    6.88
  -4  -1  16  176.46   10.88
  -4   1  16  179.35   10.90
  -4  -1  16  152.08   10.85
  -4  -1  15    5.65    3.51
  -4  -1  15    6.58    2.78
  -4   1  15    0.14    2.38
  -4  -1  14   80.58    7.51
  -4  -1  14   82.41    6.76
  -4   1  14   95.53    7.19
  -4  -1  13  569.70   18.38
  -4   1  13  553.28   18.05
  -4  -1  13  538.95   19.67
  -4  -1  12  210.92   10.02
  -4   1  12  232.56   10.30
  -4  -1  12  210.95   11.20
   4   1 -11   24.03    3.81
  -4  -1  11   23.79    4.18
  -4  -1  11   25.62    3.48
  -4   1  11   25.38    3.30
   4   1 -10  131.71    8.15
   4  -1 -10  149.76    8.79
  -4   1  10  132.29    6.82
  -4  -1  10  135.43    8.33
   4  -1  -9  493.89   16.65
  -4   1   9  457.11   13.31
  -4  -1   9  456.97   15.73
   4  -1  -8   47.96    4.73
  -4   1   8   52.95    4.92
  -4   1   8   54.48    3.63
  -4  -1   8   54.44    4.82
   4  -1  -7  147.81    8.11
  -4   1   7  143.04    5.50
  -4   1   7  151.94    7.89
  -4  -1   7  146.77    7.67
   4  -1  -6  158.99    8.12
   4   1  -6  149.30    5.88
  -4  -1   6  145.01    7.41
  -4   1   6  144.43    7.36
  -4  -1   5   41.04    3.93
   4   1  -5   40.07    2.64
  -4   1   5   43.77    3.99
   4   1  -4 1530.21   28.05
  -4   1   4 1564.97   32.18
  -4  -1   4 1540.26   32.06
   4   1  -3  822.27   19.73
  -4   1   3  829.38   19.51
  -4  -1   3  821.78   19.70
   4  -1  -2 2677.06   49.51
   4   1  -2 2695.37   49.88
  -4   1   2 2667.06   49.39
  -4  -1   2 2621.00   49.59
   4  -1  -1  631.82   15.46
  -4   1   1  618.73   15.32
  -4  -1   1  608.77   15.62
   4   1  -1  623.07   15.67
   4   1   0  900.72   20.58
   4  -1   0  917.87   20.18
  -4  -1   0  932.51   20.71
  -4   1   0  895.72   20.03
   4  -1   1    8.61    1.76
  -4  -1  -1    8.88    2.03
   4   1   1    7.53    1.81
  -4   1  -1    9.76    1.88
   4  -1   2  162.67    6.44
  -4   1  -2  161.51    6.46
   4   1   2  156.19    6.73
  -4  -1  -2  163.53    6.92
  -4  -1  -3   16.63    2.44
   4  -1   3   15.38    2.11
   4   1   3   21.48    2.66
  -4   1  -3   16.94    2.27
   4  -1   4   95.16    5.00
   4   1   4   95.05    5.34
  -4   1  -4   87.84    4.91
  -4  -1  -4   90.07    5.38
   4  -1   5   36.91    3.23
   4   1   5   37.77    3.54
  -4  -1  -5   35.18    3.59
  -4   1  -5   40.34    3.50
   4   1   6    5.56    2.06
   4  -1   6    4.16    1.66
  -4  -1  -6    4.65    2.22
  -4   1  -6    2.36    1.79
   4  -1   7  332.91   11.04
  -4   1  -7  314.63   10.81
   4   1   7  325.42   11.56
  -4  -1  -7  320.43   11.55
   4   1   8  379.37   13.06
  -4   1  -8  373.49   12.46
  -4  -1  -8  376.36   13.12
   4  -1   8  370.24   12.29
   4   1   9   -0.39    1.89
   4  -1   9    1.11    1.71
   4  -1   9    2.78    1.00
  -4   1  -9    2.33    1.82
  -4  -1  -9    1.12    1.99
   4  -1  10  263.92   12.83
   4  -1  10  255.79    7.22
   4   1  10  262.72    8.79
   4   1  10  250.34   11.09
   4  -1  10  254.03   10.62
   4  -1  11    9.76    2.29
   4   1  11   11.91    2.00
   4  -1  11   13.51    1.51
   4  -1  11   18.21    4.15
   4  -1  12   81.64    3.38
   4   1  12   74.09    4.53
   4  -1  12   78.12    7.69
   4   1  13  223.42    8.34
   4  -1  13  227.45   13.36
   4  -1  14   69.76    8.01
   4   1  14   66.58    7.93
   4  -1  15   82.84    8.88
   4   1  15   80.29    8.81
   4  -1  16   18.88    4.88
   4   1  16   18.19    5.21
  -4   2  19   21.88    5.16
  -4  -2  18   77.15    8.27
  -4   2  18   72.04    7.86
  -4  -2  17   22.56    4.70
  -4   2  17   27.57    4.96
  -4   2  16  117.70    8.89
  -4  -2  16  116.88    9.51
  -4  -2  15    6.30    2.92
  -4   2  15   12.59    3.38
  -4  -2  14    4.73    2.77
  -4   2  14    6.55    2.96
  -4  -2  13    7.11    3.00
  -4   2  13   -0.04    1.98
  -4  -2  12    6.80    3.19
  -4   2  12    3.93    2.43
   4   2 -11   63.46    5.68
  -4   2  11   51.10    4.68
  -4  -2  11   47.03    5.19
   4   2 -10 1170.28   29.10
  -4   2  10 1079.72   25.68
  -4  -2  10 1102.83   28.54
   4  -2  -9  445.98   15.80
  -4  -2   9  421.18   14.83
  -4   2   9  417.73   12.46
   4  -2  -8   41.06    4.58
  -4   2   8   35.40    2.92
  -4  -2   8   33.59    3.98
   4  -2  -7  934.59   24.16
  -4  -2   7  884.55   22.60
  -4   2   7  874.24   18.77
   4   2  -7  913.17   20.70
  -4  -2   6  699.85   18.90
   4  -2  -6  759.59   20.56
  -4   2   6  712.76   14.89
   4   2  -6  724.20   16.70
  -4   2   6  723.61   19.28
   4  -2  -5   23.46    3.27
  -4  -2   5   15.94    2.82
   4   2  -5   16.47    1.91
  -4   2   5   16.83    2.84
  -4  -2   4  624.52   16.70
   4  -2  -4  671.11   18.21
   4   2  -4  635.03   14.00
  -4   2   4  624.25   16.65
   4   2  -4  651.11   17.08
   4   2  -3  932.21   21.68
  -4   2   3  916.10   21.24
  -4  -2   3  929.18   21.48
  -4   2   2  506.00   13.49
  -4  -2   2  489.75   13.82
   4   2  -2  521.59   14.11
   4  -2  -1   55.39    3.68
  -4  -2   1   55.54    4.21
  -4   2   1   53.49    3.76
   4   2  -1   56.35    4.01
   4  -2   0   34.16    1.75
   4  -2   0   34.44    2.90
   4   2   0   35.00    3.25
  -4  -2   0   38.10    3.31
  -4   2   0   36.89    3.04
   4  -2   1 1208.24   22.89
   4  -2   1 1206.74   24.87
  -4  -2  -1 1231.71   26.14
   4   2   1 1196.72   25.96
  -4   2  -1 1225.60   24.84
   4  -2   2  243.94    7.52
   4   2   2  231.36    8.64
  -4   2  -2  248.70    8.05
   4  -2   2  237.70    7.90
  -4  -2  -2  245.39    8.90
   4  -2   3 1336.18   28.14
   4  -2   3 1401.79   27.96
   4   2   3 1406.25   29.56
  -4  -2  -3 1455.74   29.87
  -4   2  -3 1420.41   27.98
   4  -2   4  452.23   13.30
   4  -2   4  456.74   12.39
   4   2   4  465.29   13.68
  -4   2  -4  481.10   12.57
  -4  -2  -4  505.60   14.16
   4  -2   5  386.86   12.88
   4   2   5  434.02   13.29
   4  -2   5  424.92   11.83
  -4  -2  -5  441.92   13.37
  -4   2  -5  419.05   11.76
   4  -2   6  637.88   18.50
   4  -2   6  677.97   16.65
  -4  -2  -6  674.54   18.27
   4   2   6  675.73   18.18
  -4   2  -6  675.80   16.65
   4  -2   7  903.25   24.15
   4  -2   7  922.14   21.52
   4   2   7  945.88   23.40
  -4   2  -7  929.65   21.55
  -4  -2  -7  926.43   23.27
   4  -2   8  414.06   15.30
   4   2   8  418.70   14.28
  -4   2  -8  427.70   13.16
   4  -2   8  431.36   13.08
  -4  -2  -8  414.57   14.30
   4  -2   9   38.88    3.92
   4   2   9   37.72    4.23
   4  -2   9   38.53    4.90
   4  -2   9   45.05    2.18
  -4  -2  -9   36.58    4.27
   4  -2  10    7.89    2.29
   4  -2  10    4.19    2.64
   4  -2  10    7.35    0.87
   4   2  10    6.88    1.81
  -4  -2 -10    5.42    2.43
   4  -2  11    8.88    2.37
   4   2  11    4.76    1.48
   4  -2  12   42.41    4.53
   4   2  12   53.59    4.15
   4  -2  12   48.72    6.25
   4   2  13   53.35    4.29
   4  -2  13   64.80    7.41
   4   2  14   39.52    3.86
   4  -2  14   36.12    5.76
   4  -2  15   49.08    6.67
   4   2  16  278.22   16.62
   4  -2  16  290.42   16.63
  -4   3  19  137.60   10.86
  -4   3  18   42.78    6.11
  -4  -3  18   53.45    6.92
  -4   3  17  168.40   11.02
  -4  -3  17  149.52   11.08
  -4   3  16   16.57    3.79
  -4  -3  16    7.41    3.26
  -4  -3  15  666.10   23.55
  -4   3  15  735.25   23.03
  -4   3  14   13.64    3.21
  -4  -3  14   20.52    4.10
  -4   3  13  109.06    7.33
  -4  -3  13  116.78    8.44
  -4   3  12   35.00    4.20
  -4  -3  12   35.69    4.82
   4   3 -11 1115.46   28.55
  -4   3  11 1067.91   26.00
  -4  -3  11 1076.41   28.55
  -4   3  10    4.52    1.52
  -4  -3  10    7.25    2.54
   4  -3  -9  171.06    9.54
   4   3  -9  160.84    8.01
  -4  -3   9  154.16    8.47
  -4   3   9  157.05    6.98
   4  -3  -8   33.64    4.24
   4   3  -8   31.32    3.40
  -4  -3   8   30.72    3.78
  -4   3   8   33.16    2.95
   4  -3  -7    0.50    1.71
  -4  -3   7    0.20    1.82
   4   3  -7    1.20    1.35
  -4   3   7    1.26    1.01
   4  -3  -6    3.79    2.28
  -4  -3   6    6.34    2.14
   4   3  -6    4.07    1.42
  -4   3   6    3.69    0.95
  -4  -3   5  752.64   19.41
   4  -3  -5  775.00   20.94
   4   3  -5  776.03   19.64
   4   3  -5  764.50   17.29
  -4   3   5  763.09   14.65
  -4   3   5  781.44   19.73
  -4  -3   4   20.18    2.90
   4  -3  -4   21.78    3.20
   4   3  -4   28.57    3.15
  -4   3   4   23.03    2.93
  -4  -3   3 1038.82   24.24
   4  -3  -3 1109.46   25.84
   4   3  -3 1123.49   24.77
  -4   3   3 1087.07   24.08
  -4  -3   2   14.12    2.52
   4  -3  -2   18.16    2.68
  -4   3   2   12.58    2.20
   4   3  -2   13.16    2.18
   4   3  -1   46.63    3.72
  -4   3   1   45.46    3.35
  -4  -3   1   45.04    3.75
   4  -3  -1   43.10    3.80
  -4   3   0    4.81    1.52
  -4  -3   0    2.47    1.74
   4   3   0    3.78    1.81
   4  -3   0    4.25    1.44
   4  -3   0    3.53    1.25
   4  -3   1  149.13    4.80
   4  -3   1  144.06    5.80
   4   3   1  143.03    6.71
  -4   3  -1  146.18    5.85
  -4  -3  -1  160.11    7.04
   4  -3   2 1360.82   26.44
   4   3   2 1377.36   29.10
  -4   3  -2 1377.14   26.96
   4  -3   2 1336.62   26.89
  -4  -3  -2 1399.13   29.31
   4  -3   3  543.55   13.68
   4   3   3  533.56   15.03
   4  -3   3  545.49   13.30
  -4   3  -3  544.01   13.26
  -4  -3  -3  552.89   15.36
   4  -3   4  457.64   13.17
   4   3   4  466.60   14.02
   4  -3   4  468.54   12.09
  -4   3  -4  479.11   12.19
  -4  -3  -4  473.47   14.24
   4  -3   5  222.68    9.10
   4   3   5  239.60    9.51
   4  -3   5  233.49    7.88
  -4  -3  -5  233.39    9.56
  -4   3  -5  235.34    7.90
   4  -3   6   -1.52    1.73
   4   3   6   -0.67    1.93
   4  -3   6   -0.19    1.33
  -4   3  -6    2.03    1.43
  -4  -3  -6    1.77    2.14
   4  -3   7  114.07    7.18
   4  -3   7  123.49    5.88
   4   3   7  140.69    7.56
  -4   3  -7  117.41    5.84
  -4  -3  -7  120.13    7.19
   4  -3   8    1.49    1.57
   4   3   8   -1.75    1.94
   4  -3   8    0.77    1.97
   4  -3   8    0.41    0.49
  -4  -3  -8    4.47    2.53
  -4   3  -8   -0.21    1.42
   4  -3   9  249.54   11.88
   4   3   9  258.57   11.42
   4  -3   9  257.49    9.64
  -4  -3  -9  236.28   11.06
   4  -3  10  183.20   10.50
   4   3  10  187.72    8.26
   4  -3  10  173.48    8.09
  -4  -3 -10  176.32    9.79
   4  -3  11  434.83   17.79
   4   3  11  478.07   14.40
   4  -3  11  463.02   14.89
   4  -3  12   32.57    3.78
   4   3  12   28.26    3.40
   4  -3  12   22.15    4.94
   4  -3  13   70.61    5.84
   4   3  13   73.01    5.31
   4  -3  13   62.78    7.13
   4   3  14   54.87    4.75
   4  -3  14   49.89    6.90
   4  -3  15   66.67    7.97
   4  -3  16   -1.33    3.53
  -4   4  19  102.61    9.28
  -4  -4  18   10.03    3.44
  -4   4  18    7.98    3.96
  -4   4  17  353.61   16.34
  -4  -4  17  323.79   16.43
  -4   4  16   25.40    4.68
  -4  -4  16   20.12    4.42
  -4   4  15   56.04    6.03
  -4  -4  15   41.64    5.69
  -4  -4  14  129.47    9.25
  -4   4  14  145.16    9.01
  -4  -4  13    5.33    2.66
  -4   4  13    6.57    2.68
  -4   4  12  106.69    6.95
  -4  -4  12   94.02    7.32
  -4   4  11   42.69    4.27
  -4  -4  11   46.66    5.21
  -4  -4  10   27.93    4.06
  -4   4  10   27.29    3.24
   4   4 -10   33.49    4.05
  -4  -4   9  651.66   19.42
   4  -4  -9  706.28   21.59
  -4   4   9  655.92   17.15
   4   4  -9  681.91   19.07
  -4  -4   8  194.56    9.23
   4  -4  -8  212.11   10.51
  -4   4   8  190.17    7.44
   4   4  -8  198.01    8.65
  -4  -4   7  790.22   21.02
   4  -4  -7  831.46   23.18
   4   4  -7  814.89   19.92
  -4  -4   6   66.21    4.99
   4  -4  -6   72.77    5.97
   4   4  -6   67.70    4.39
  -4  -4   5  476.23   14.43
   4  -4  -5  493.69   16.01
   4   4  -5  507.77   14.90
  -4  -4   4 1578.65   33.24
   4  -4  -4 1577.93   35.06
   4   4  -4 1638.69   33.78
  -4   4   4 1587.99   33.16
  -4  -4   3   62.43    4.60
   4   4  -3   59.28    4.34
   4  -4  -3   67.36    5.11
  -4   4   3   60.89    4.31
  -4   4   2  151.45    6.49
   4   4  -2  147.24    6.94
  -4  -4   2  134.43    6.71
   4  -4  -2  149.86    7.39
  -4   4   1   51.24    3.54
  -4  -4   1   48.03    4.03
   4   4  -1   49.16    4.00
   4  -4  -1   49.20    4.03
   4   4   0   17.16    2.59
  -4  -4   0   17.75    2.77
  -4   4   0   14.58    2.10
   4  -4   0   15.22    2.24
   4   4   1  892.89   21.16
  -4   4  -1  904.26   18.93
   4  -4   1  880.97   18.90
   4  -4   1  840.98   20.18
  -4  -4  -1  876.85   21.07
   4   4   2   64.39    4.58
   4  -4   2   58.64    3.44
  -4   4  -2   60.05    3.47
   4  -4   2   55.56    3.32
   4  -4   2   58.42    3.89
  -4  -4  -2   74.82    5.03
   4  -4   3  553.40   13.07
   4   4   3  525.33   15.29
   4  -4   3  535.51   13.70
   4  -4   3  528.49   13.51
  -4  -4  -3  546.54   15.65
  -4   4  -3  561.82   13.03
   4   4   4  134.17    6.94
   4  -4   4  123.83    5.14
   4  -4   4  127.42    6.14
   4  -4   4  119.93    5.07
  -4   4  -4  131.51    5.27
  -4  -4  -4  138.10    7.18
   4  -4   5 1748.60   33.28
   4  -4   5 1729.15   36.10
   4  -4   5 1730.33   32.22
  -4  -4  -5 1765.46   37.31
  -4   4  -5 1781.01   33.30
   4   4   5 1764.30   37.18
   4  -4   6   81.23    4.34
   4  -4   6   74.22    5.37
   4  -4   6   84.81    3.43
   4   4   6   82.07    5.71
  -4   4  -6   79.19    4.30
  -4  -4  -6   93.04    6.24
   4  -4   7  337.64   10.19
   4  -4   7  313.47   12.41
   4  -4   7  345.78    7.25
   4   4   7  345.43   12.81
  -4   4  -7  339.32   10.28
  -4  -4  -7  327.76   12.65
   4  -4   8   23.04    3.66
   4  -4   8   32.38    3.03
   4   4   8   33.51    4.04
  -4  -4  -8   32.13    4.17
   4  -4   9  238.72   11.67
  -4  -4  -9  272.71   12.09
   4  -4   9  259.80    9.37
   4  -4  10    5.00    2.48
   4  -4  10    4.45    1.96
   4   4  10    2.22    1.54
  -4  -4 -10   -0.83    2.78
   4  -4  11    1.08    2.65
   4  -4  11    4.22    1.87
   4   4  11    5.15    2.10
   4  -4  12   -1.19    1.83
   4   4  12   -1.66    1.88
   4  -4  12    0.22    2.91
   4  -4  13    8.78    2.70
   4   4  13    8.94    2.09
   4  -4  13   11.52    4.01
   4   4  14   28.37    3.77
   4  -4  14   22.62    4.65
   4  -4  15  222.14   14.23
   4  -4  16  105.46   10.02
  -4   5  19   19.24    5.23
  -4   5  18   34.15    5.63
  -4  -5  18   31.72    5.45
  -4  -5  17  183.50   12.24
  -4   5  17  185.49   11.67
  -4   5  16   99.00    8.13
  -4  -5  16   78.89    7.64
  -4   5  15  131.97    8.98
  -4  -5  15  122.94    9.34
  -4  -5  14  268.86   13.54
  -4   5  14  302.55   13.37
  -4  -5  13  408.39   16.57
  -4   5  13  452.07   16.09
  -4  -5  12  145.99    9.21
  -4   5  12  163.29    8.86
  -4  -5  11  517.71   17.88
  -4   5  11  530.52   16.52
   4   5 -11  570.25   18.67
  -4  -5  10  250.73   11.45
   4   5 -10  290.87   12.05
  -4  -5   9  115.28    7.24
   4   5  -9  100.78    6.56
   4  -5  -8   42.40    4.87
   4   5  -8   47.79    4.34
  -4  -5   8   35.21    4.12
  -4  -5   7  192.16    8.94
   4  -5  -7  207.90   10.42
   4   5  -7  202.20    8.62
  -4  -5   6  159.93    7.83
   4  -5  -6  165.97    8.98
   4   5  -6  157.60    7.18
  -4  -5   5   19.62    3.00
   4  -5  -5   22.08    3.38
   4   5  -5   24.68    3.40
  -4  -5   4  543.55   15.54
   4  -5  -4  544.21   17.07
  -4   5   4  552.30   15.43
   4   5  -4  575.42   16.00
  -4  -5   3  577.26   16.11
   4   5  -3  624.52   16.58
   4  -5  -3  573.35   17.34
  -4   5   3  598.70   15.61
   4   5  -2  148.88    7.15
  -4  -5   2  143.18    7.01
   4  -5  -2  146.59    7.58
  -4   5   2  146.72    3.98
  -4   5   2  149.61    6.46
  -4  -5   1 2464.81   47.85
   4   5  -1 2490.19   47.98
  -4   5   1 2503.92   45.75
   4  -5  -1 2422.33   48.39
  -4   5   1 2496.25   42.43
  -4   5   0  448.68   11.58
   4   5   0  440.06   13.36
  -4  -5   0  447.50   13.41
  -4   5   0  451.14   10.26
   4  -5   0  418.43   13.15
   4   5   1  634.08   16.96
  -4   5  -1  616.47   14.20
  -4   5  -1  605.47   13.94
   4  -5   1  605.66   16.07
  -4  -5  -1  652.58   17.10
  -4  -5  -2   38.66    3.91
   4   5   2   29.79    3.28
  -4   5  -2   35.97    2.68
   4  -5   2   37.50    2.66
   4  -5   2   30.27    2.93
   4  -5   3  375.01    9.84
   4   5   3  394.40   12.83
   4  -5   3  378.05   10.79
  -4   5  -3  387.78    9.83
  -4  -5  -3  392.99   12.95
   4   5   4   92.66    5.86
   4  -5   4   80.33    3.89
   4  -5   4   79.11    4.81
   4  -5   4   81.31    4.08
  -4   5  -4   82.46    3.90
  -4  -5  -4   85.33    5.84
   4  -5   5   24.55    2.22
   4   5   5   27.85    3.45
   4  -5   5   22.82    2.93
   4  -5   5   26.85    2.13
  -4   5  -5   26.85    2.37
  -4  -5  -5   29.66    3.80
   4  -5   6  406.81   10.71
   4  -5   6  395.70   13.45
   4  -5   6  403.67    9.06
   4   5   6  436.77   14.42
  -4   5  -6  403.08   10.65
  -4  -5  -6  414.12   14.37
   4  -5   7  323.31   12.57
   4  -5   7  326.98    9.59
   4   5   7  347.83   13.06
  -4   5  -7  334.27    9.72
  -4  -5  -7  339.15   13.12
   4  -5   8   49.93    5.23
   4  -5   8   44.95    3.38
  -4  -5  -8   47.40    5.00
   4  -5   9   94.49    7.25
   4  -5   9   99.92    5.26
  -4  -5  -9  114.02    7.87
   4  -5  10  479.04   18.09
   4   5  10  538.25   16.61
   4  -5  10  524.01   14.50
  -4  -5 -10  494.71   18.11
   4  -5  11  322.47   15.11
   4   5  11  375.69   13.60
   4  -5  11  357.91   11.86
   4  -5  12   65.42    7.12
   4   5  12   57.16    5.22
   4  -5  12   65.03    4.95
   4   5  13  152.19    8.68
   4  -5  13  120.91    9.90
   4   5  14    3.05    2.39
   4  -5  14    5.98    3.71
   4  -5  15   32.68    6.11
   4  -5  16   66.11    7.81
  -4  -6  19   53.03    7.42
  -4   6  18  119.80    9.97
  -4  -6  18   98.74    9.19
  -4   6  17    5.33    3.03
  -4  -6  17   12.48    4.24
  -4   6  16   34.19    5.31
  -4  -6  16   21.93    4.45
  -4   6  15   -1.12    2.64
  -4  -6  15   -0.41    3.16
  -4   6  14   15.18    3.49
  -4  -6  14   15.06    3.66
  -4   6  13    2.56    2.28
  -4  -6  13   -2.37    2.62
  -4  -6  12  203.22   10.69
  -4  -6  11   73.65    6.23
   4   6 -10   10.88    2.81
  -4  -6  10    5.29    2.54
  -4  -6   9  374.52   13.88
   4   6  -9  397.82   14.18
  -4  -6   8  919.09   23.99
   4   6  -8  964.95   24.10
  -4  -6   7 1072.34   26.55
   4  -6  -7 1173.70   29.72
   4   6  -7 1132.39   26.43
  -4  -6   6  432.74   14.12
   4  -6  -6  468.28   16.41
   4   6  -6  473.50   14.71
  -4  -6   5    6.22    2.08
   4  -6  -5    6.52    2.35
   4   6  -5    2.64    1.69
  -4  -6   4 1112.23   25.87
   4   6  -4 1153.96   26.32
   4  -6  -4 1129.38   28.05
   4   6  -3  575.74   16.07
  -4  -6   3  554.18   15.83
   4  -6  -3  543.63   17.04
  -4   6   3  576.63   15.31
   4   6  -2  174.13    7.79
  -4  -6   2  167.40    7.74
   4  -6  -2  165.87    8.23
  -4   6   2  162.56    6.84
  -4  -6   1  476.66   14.16
   4   6  -1  477.51   14.15
  -4   6   1  471.63   12.45
  -4   6   1  463.77   10.54
   4  -6  -1  455.31   14.47
  -4   6   0   75.11    4.06
   4   6   0   70.35    4.91
  -4   6   0   75.68    3.60
   4  -6   0   68.12    4.80
  -4  -6   0   77.71    5.26
  -4  -6  -1   15.02    2.77
   4   6   1   12.41    2.45
  -4   6  -1   12.45    1.74
  -4   6  -1   15.63    1.94
   4  -6   1   14.13    2.37
  -4   6  -2  725.76   15.47
   4   6   2  718.69   19.12
  -4   6  -2  730.21   16.96
   4  -6   2  707.47   17.54
  -4  -6  -2  720.25   19.33
   4   6   3  530.58   15.92
  -4   6  -3  523.81   14.28
   4  -6   3  518.38   12.06
   4  -6   3  533.88   13.69
  -4  -6  -3  539.31   16.14
  -4   6  -3  544.53   12.08
   4   6   4 1120.26   26.74
   4  -6   4 1108.11   21.60
   4  -6   4 1124.93   22.72
  -4  -6  -4 1087.09   26.72
  -4   6  -4 1102.18   21.47
   4  -6   5   48.40    2.80
   4  -6   5   45.22    2.75
  -4   6  -5   42.19    2.63
  -4  -6  -5   54.12    5.02
   4   6   5   52.25    4.74
   4  -6   6  978.54   19.86
   4  -6   6  985.50   24.39
   4  -6   6  980.66   18.52
  -4   6  -6  994.05   19.95
  -4  -6  -6  979.64   25.56
   4   6   6 1015.06   25.57
   4  -6   7 1453.35   33.60
   4  -6   7 1471.23   28.22
  -4  -6  -7 1484.98   34.75
   4  -6   8   63.49    5.74
   4  -6   8   60.71    3.65
  -4  -6  -8   53.49    5.64
   4  -6   9   18.48    3.49
   4  -6   9   15.90    2.11
  -4  -6  -9   13.34    3.27
   4  -6  10   37.29    5.09
   4  -6  10   31.12    2.98
   4   6  10   32.03    4.01
  -4  -6 -10   36.45    5.05
   4  -6  11  465.31   13.43
   4  -6  11  442.36   17.97
   4   6  11  466.25   16.18
   4  -6  12   -2.25    2.92
   4   6  12    2.40    2.29
   4   6  13    8.22    2.64
   4  -6  13    7.23    3.21
   4   6  14   60.55    5.77
   4  -6  14   57.32    7.27
   4   6  15   15.10    3.69
   4  -6  15   22.15    5.31
   4  -6  16   -2.34    3.53
  -4  -7  18   19.79    4.68
  -4   7  18   33.50    5.93
  -4  -7  17   -0.28    2.96
  -4   7  17    6.57    3.79
  -4  -7  16  216.85   12.76
  -4   7  16  234.00   12.94
  -4  -7  15   29.81    5.09
  -4   7  15   32.36    4.89
  -4   7  14   81.33    7.01
  -4  -7  14   74.42    6.93
  -4  -7  13   22.53    4.14
  -4  -7  12  256.59   12.15
  -4  -7  11    4.30    2.19
  -4  -7  10  229.17   10.73
  -4  -7   9   79.16    6.12
  -4   7   9   73.60    6.92
   4   7  -9   89.30    6.52
  -4  -7   8   14.41    2.75
  -4   7   8   16.38    3.74
   4   7  -8   19.32    3.38
  -4  -7   7  124.96    7.18
  -4   7   7  130.13    8.46
   4   7  -7  127.13    7.22
  -4  -7   6  729.28   19.96
   4  -7  -6  767.04   22.57
  -4   7   6  751.70   22.42
   4   7  -6  805.12   20.84
  -4  -7   5  249.83   10.04
  -4   7   5  238.08   11.10
   4  -7  -5  261.64   11.59
   4   7  -5  255.17   10.16
   4   7  -4  709.07   18.62
  -4  -7   4  651.48   18.07
  -4   7   4  654.02   19.67
   4  -7  -4  670.84   19.96
   4   7  -3  127.28    6.84
  -4  -7   3  126.87    6.84
  -4   7   3  129.61    7.49
   4  -7  -3  132.82    7.74
  -4  -7   2 1188.77   26.86
   4   7  -2 1228.49   27.27
  -4   7   2 1164.96   27.73
   4  -7  -2 1102.67   27.61
  -4   7   2 1176.81   25.20
   4   7  -1    1.52    1.54
  -4  -7   1   -0.42    1.90
  -4   7   1    1.41    1.29
   4  -7  -1    2.27    1.50
  -4   7   0  190.93    6.63
   4   7   0  184.46    8.35
  -4   7   0  182.08    6.33
   4  -7   0  172.13    8.02
  -4  -7   0  184.00    8.40
   4   7   1   54.64    4.48
  -4  -7  -1   43.59    4.26
  -4   7  -1   48.55    3.03
  -4   7  -1   48.07    3.35
   4  -7   1   49.34    3.99
  -4   7  -2  656.84   14.12
   4   7   2  657.54   18.27
  -4   7  -2  665.72   16.21
   4  -7   2  627.65   16.49
  -4  -7  -2  661.64   18.53
   4   7   3   99.25    6.32
  -4   7  -3  100.60    5.55
   4  -7   3  101.96    5.12
  -4   7  -3  103.96    3.97
  -4  -7  -3  109.04    6.85
   4   7   4  141.50    7.70
  -4   7  -4  138.03    7.08
   4  -7   4  138.75    5.66
  -4  -7  -4  131.29    7.61
  -4   7  -4  140.77    4.57
   4   7   5   47.05    4.58
   4  -7   5   47.97    2.51
   4  -7   5   43.27    2.78
  -4   7  -5   46.67    2.47
  -4  -7  -5   41.86    4.57
   4  -7   6   29.44    2.04
  -4  -7  -6   29.18    4.13
   4  -7   7  303.73    7.97
  -4  -7  -7  298.81   12.89
   4  -7   8  314.62   13.18
   4  -7   8  333.44    8.82
  -4  -7  -8  316.69   13.78
   4  -7   9   28.87    4.51
   4  -7   9   27.04    2.41
  -4  -7  -9   28.34    4.58
   4  -7  10  147.64    5.96
   4  -7  10  135.24    9.34
   4   7  10  150.01    8.83
  -4  -7 -10  133.62    9.44
   4  -7  11    9.00    3.34
   4  -7  11   15.17    2.12
   4   7  11    9.28    2.61
   4   7  12  949.03   26.41
   4  -7  12  912.07   28.94
   4   7  13   22.94    4.01
   4  -7  13   18.31    4.46
   4   7  14  158.38    9.73
   4  -7  14  149.15   11.47
   4   7  15    9.00    3.08
   4  -7  15   10.19    3.70
  -4  -8  18   57.34    7.18
  -4  -8  17   -0.72    3.21
  -4   8  17    3.29    3.48
  -4  -8  16   30.63    5.01
  -4   8  16   39.94    6.21
  -4  -8  15   18.44    4.10
  -4  -8  14    2.08    2.48
  -4  -8  13   14.51    3.35
  -4  -8  12   11.92    3.19
  -4   8  11    5.58    2.87
  -4  -8  11    8.02    2.65
  -4  -8  10    6.04    2.52
  -4   8  10   10.50    3.64
  -4  -8   9  245.33   10.93
  -4   8   9  258.85   13.16
  -4  -8   8  658.67   19.57
  -4   8   8  700.22   22.79
  -4  -8   7   19.59    3.09
  -4   8   7   20.28    3.97
   4   8  -7   10.87    2.35
  -4  -8   6  437.38   14.29
  -4   8   6  428.49   16.24
   4   8  -6  432.36   14.37
  -4  -8   5    1.27    2.02
   4  -8  -5    3.02    2.09
  -4   8   5    1.77    2.11
   4   8  -5    1.27    1.87
   4   8  -4  471.13   14.66
  -4  -8   4  468.30   14.49
   4  -8  -4  459.53   16.15
  -4   8   4  443.52   15.84
  -4  -8   3   -0.39    1.81
   4  -8  -3    2.72    1.83
  -4   8   3   -0.77    2.57
   4   8  -3    2.14    1.77
  -4  -8   2  171.97    8.26
   4   8  -2  175.31    8.27
   4  -8  -2  169.40    8.75
  -4   8   2  170.72    8.65
  -4   8   2  179.71    7.26
  -4  -8   1   18.97    3.01
   4   8  -1   19.02    3.13
  -4   8   1   19.83    2.41
   4  -8  -1   19.08    3.12
  -4   8   1   17.40    3.07
   4   8   0  405.75   13.63
  -4   8   0  433.74   11.19
  -4   8   0  440.61   11.57
   4  -8   0  414.14   13.64
  -4   8   0  410.87   13.57
  -4  -8   0  430.25   13.99
   4   8   1  182.91    8.59
  -4   8  -1  184.94    6.07
  -4   8  -1  178.78    7.06
   4  -8   1  185.27    8.13
  -4   8  -1  177.64    7.99
  -4  -8  -1  193.20    8.97
  -4   8  -2   27.17    2.08
   4   8   2   22.80    3.09
  -4   8  -2   25.82    2.83
   4  -8   2   26.24    2.95
  -4  -8  -2   28.09    3.78
   4   8   3  333.76   12.47
  -4   8  -3  351.92   11.46
   4  -8   3  332.81   10.53
  -4  -8  -3  332.36   12.78
  -4   8  -3  343.14    8.01
   4   8   4  530.31   16.84
  -4   8  -4  546.65   15.88
   4  -8   4  524.42   13.46
  -4  -8  -4  524.90   17.07
  -4   8  -4  528.99   10.70
  -4   8  -5    8.11    2.25
  -4  -8  -5    8.96    3.08
  -4   8  -5    7.49    0.94
  -4  -8  -6  387.44   14.82
   4  -8   7  102.65    3.39
  -4  -8  -7   93.03    7.19
   4  -8   8  298.85    7.34
  -4  -8  -8  297.06   13.59
   4  -8   9  199.68    5.97
  -4  -8  -9  198.35   11.25
   4  -8  10   81.35    3.83
   4   8  10   75.08    6.58
  -4  -8 -10   89.12    7.91
   4   8  11   67.26    6.30
   4   8  12   28.66    4.41
   4   8  13   -0.51    2.28
   4   8  14  123.22    9.12
   4   8  15   -0.92    2.62
  -4  -9  17    7.06    3.92
  -4   9  17    2.68    3.75
  -4  -9  16   61.39    6.62
  -4  -9  15   58.48    6.36
  -4  -9  14   36.70    5.01
  -4  -9  13  161.52    9.72
  -4  -9  12  242.07   11.77
  -4   9  12  277.98   14.92
  -4  -9  11    0.19    2.47
  -4   9  11    0.51    2.81
  -4  -9  10  221.87   10.67
  -4   9  10  227.86   12.91
  -4  -9   9    2.23    2.30
  -4   9   9   -2.04    3.02
  -4  -9   8  125.46    7.48
  -4   9   8  126.22    9.16
  -4  -9   7   56.74    5.14
  -4   9   7   56.66    6.10
  -4  -9   6    2.89    1.93
  -4   9   6   -2.30    2.44
   4   9  -6   -0.25    1.88
  -4  -9   5  125.37    7.12
  -4   9   5  137.90    8.83
   4   9  -5  138.00    7.50
  -4  -9   4  603.38   17.36
   4   9  -4  597.40   17.44
   4  -9  -4  578.26   19.02
  -4   9   4  603.71   19.34
  -4  -9   3   83.26    5.79
   4   9  -3   91.03    6.02
   4  -9  -3   94.39    6.72
  -4   9   3   89.06    6.68
   4   9  -2  268.83   10.59
  -4   9   2  244.87    8.96
   4  -9  -2  265.23   11.38
  -4   9   2  260.99   11.29
  -4  -9   2  264.91   10.51
   4   9  -1  162.39    8.17
  -4   9   1  177.43    6.92
   4  -9  -1  178.28    8.87
  -4   9   1  182.20    8.91
  -4  -9   1  173.09    8.50
   4   9   0 2140.61   43.94
  -4   9   0 2142.36   39.29
   4  -9   0 2110.99   43.63
  -4   9   0 2081.62   43.62
  -4  -9   0 2123.13   43.85
  -4   9  -1  107.31    4.41
   4   9   1   88.21    6.09
  -4   9  -1   94.12    5.26
   4  -9   1  104.46    6.17
  -4   9  -1  100.18    6.12
  -4  -9  -1   95.01    6.48
   4   9   2   -0.07    1.56
  -4   9  -2    1.15    0.94
  -4   9  -2    1.45    1.34
  -4   9  -2    1.22    1.62
  -4  -9  -2    3.79    2.35
   4  -9   2    2.65    1.60
   4   9   3  101.09    6.71
  -4   9  -3  104.40    6.08
   4  -9   3  107.94    5.67
  -4   9  -3  104.52    3.35
  -4  -9  -3  102.80    7.00
  -4   9  -4   43.62    4.23
  -4  -9  -4   39.30    4.74
  -4   9  -5  120.21    7.33
  -4  -9  -5  119.89    7.96
  -4   9  -6 1348.25   32.14
  -4  -9  -6 1262.93   32.53
  -4  -9  -7   10.89    3.26
  -4  -9  -8   34.52    5.02
  -4  -9  -9    0.39    2.99
   4   9  10 1123.21   30.32
  -4  -9 -10 1049.61   31.21
   4   9  11   25.22    4.50
   4   9  12  135.63    9.38
   4   9  13    2.65    2.37
   4   9  14  184.42   11.52
   4   9  15   20.06    4.26
  -4 -10  16    8.84    4.11
  -4 -10  15  203.70   11.69
  -4 -10  14   67.11    6.55
  -4 -10  13  143.98    9.28
  -4  10  13  143.86   11.23
  -4 -10  12   -0.78    2.66
  -4  10  12    1.39    3.20
  -4 -10  11    1.94    2.46
  -4  10  11    1.11    3.01
  -4 -10  10  112.28    7.49
  -4  10  10  115.75    9.41
  -4 -10   9  115.49    7.56
  -4  10   9  127.25    9.69
  -4 -10   8  170.61    8.90
  -4  10   8  136.72    9.84
  -4 -10   7  276.41   11.40
  -4  10   7  287.91   13.99
   4  10  -7  279.99   11.49
  -4 -10   6  341.65   12.72
  -4  10   6  352.26   15.25
   4  10  -6  357.54   12.95
  -4 -10   5  628.00   18.40
  -4  10   5  640.54   21.17
   4  10  -5  658.33   18.74
  -4 -10   4   67.35    5.35
   4  10  -4   73.31    5.52
  -4  10   4   54.06    5.73
   4  10  -3   95.66    6.26
   4 -10  -3   99.47    7.06
  -4  10   3   80.31    6.56
  -4 -10   3   84.33    6.02
  -4 -10   2    5.14    2.22
   4  10  -2    6.72    2.17
  -4  10   2    3.25    2.12
   4 -10  -2    6.90    2.24
   4  10  -1   76.13    5.59
  -4  10   1   71.82    4.30
   4 -10  -1   77.84    5.85
  -4  10   1   79.98    6.18
  -4 -10   1   77.53    5.88
   4  10   0    7.93    2.28
  -4  10   0   12.55    1.85
  -4  10   0    9.65    2.59
  -4 -10   0    8.07    2.58
   4 -10   0    9.01    2.28
  -4  10  -1  670.90   14.47
   4  10   1  671.38   19.37
  -4  10  -1  674.86   17.58
  -4  10  -1  664.80   18.80
   4 -10   1  631.05   18.30
  -4 -10  -1  667.36   19.63
   4  10   2   56.53    5.13
  -4  10  -2   51.20    2.53
  -4  10  -2   53.87    4.43
  -4  10  -2   48.49    4.37
   4 -10   2   47.59    4.18
  -4 -10  -2   46.53    4.96
  -4  10  -3  260.57   10.30
  -4  10  -3  252.15    9.62
  -4  10  -3  241.54    5.13
  -4 -10  -3  246.03   11.30
  -4  10  -4  548.36   16.76
  -4 -10  -4  510.73   17.68
  -4  10  -5   50.88    4.96
  -4 -10  -5   49.64    5.45
  -4  10  -6  571.48   18.55
  -4 -10  -6  522.35   18.68
  -4 -10  -7  633.47   21.42
  -4 -10  -8   29.74    5.06
  -4 -10  -9  710.36   24.06
   4  10  10   11.62    3.31
   4  10  11   88.78    7.80
   4  10  12    7.95    3.68
   4  10  13   25.59    4.71
   4  10  14   28.65    5.17
   4  10  15  191.32   12.46
  -4 -11  15  486.14   18.75
  -4 -11  14   74.06    6.72
  -4  11  14   71.59    8.39
  -4 -11  13  120.32    8.43
  -4  11  13  125.38   10.79
  -4 -11  12    6.31    2.64
  -4  11  12   13.66    4.87
  -4 -11  11   28.08    4.20
  -4  11  11   33.11    5.75
  -4 -11  10   32.06    4.16
  -4  11  10   31.52    5.36
  -4 -11   9  312.32   12.77
  -4  11   9  327.73   16.06
  -4 -11   8    2.00    2.12
  -4  11   8    1.46    2.89
  -4 -11   7  158.48    8.60
  -4  11   7  172.36   11.05
   4  11  -7  177.62    9.00
  -4 -11   6  487.93   16.08
  -4  11   6  510.86   19.35
   4  11  -6  518.01   16.42
  -4 -11   5  601.01   17.96
   4  11  -5  610.50   18.12
  -4  11   5  581.16   20.50
  -4 -11   4   10.74    2.59
   4  11  -4    9.59    2.63
  -4  11   4   12.69    3.41
   4  11  -3  906.59   23.27
  -4  11   3  834.03   24.89
  -4 -11   3  874.46   22.98
   4  11  -2  235.76   10.25
   4 -11  -2  234.71   11.11
  -4  11   2  218.05   10.96
  -4 -11   2  234.06   10.41
   4  11  -1  565.72   17.41
  -4  11   1  581.00   14.60
  -4  11   1  543.39   18.10
   4 -11  -1  566.68   18.23
  -4 -11   1  547.57   17.45
  -4  11   0   68.67    3.94
   4  11   0   66.69    5.51
  -4  11   0   69.70    5.80
   4 -11   0   71.52    5.67
  -4 -11   0   73.08    5.95
  -4  11  -1 1353.33   25.59
   4  11   1 1372.27   32.00
  -4  11  -1 1345.42   29.84
  -4  11  -1 1341.02   31.59
  -4 -11  -1 1334.11   32.16
  -4  11  -2   73.15    2.83
  -4  11  -2   69.44    5.10
  -4  11  -2   72.50    5.50
  -4 -11  -2   67.64    5.85
  -4  11  -2   66.89    2.80
  -4  11  -3 1021.16   25.29
  -4  11  -3 1021.12   24.59
  -4 -11  -3  994.95   27.10
  -4  11  -4   15.00    2.95
  -4  11  -4   11.11    2.43
  -4 -11  -4   14.91    3.86
  -4  11  -5   73.59    6.07
  -4 -11  -5   70.81    6.55
  -4 -11  -6  143.12    9.40
  -4 -11  -7  334.88   15.10
  -4 -11  -8   50.16    6.48
  -4 -11  -9  382.30   17.34
   4  11  10   88.68    8.05
   4  11  11  143.67   10.18
   4  11  12  133.85   10.20
   4  11  13    5.00    2.94
   4  11  14   26.64    5.17
   4  11  15  148.74   11.36
   4  11  16    7.91    4.34
  -4  12  14   54.45    7.71
  -4 -12  13   22.22    4.02
  -4  12  13   37.71    6.40
  -4 -12  12    5.02    2.93
  -4  12  12   12.15    4.38
  -4 -12  11  183.04    9.97
  -4  12  11  164.49   12.39
  -4 -12  10  191.29    9.95
  -4  12  10  197.80   12.95
  -4 -12   9  302.50   12.57
  -4  12   9  283.56   15.43
  -4 -12   8   49.85    4.85
  -4  12   8   52.96    6.66
  -4 -12   7 1014.89   25.95
  -4  12   7  967.53   30.05
   4  12  -7 1013.43   25.93
  -4 -12   6  400.71   14.37
  -4  12   6  393.62   17.16
   4  12  -6  427.95   14.71
  -4 -12   5   49.72    4.90
  -4  12   5   52.75    6.18
   4  12  -5   49.59    4.86
  -4 -12   4   16.10    3.16
  -4  12   4   12.78    3.47
   4  12  -4   15.86    2.85
  -4 -12   3   39.41    4.43
   4  12  -3   39.73    4.26
  -4  12   3   41.16    5.05
   4  12  -2   97.60    6.52
  -4  12   2   88.32    7.04
  -4 -12   2   89.13    6.49
   4  12  -1   38.17    4.25
  -4  12   1   35.65    3.15
  -4  12   1   27.74    4.12
  -4 -12   1   29.80    3.98
  -4  12   0  101.43    4.77
  -4  12   0   90.78    6.89
  -4  12   0  103.27    4.89
  -4 -12   0   96.81    6.97
  -4  12  -1    3.40    2.13
  -4  12  -1    3.41    1.05
  -4  12  -1    7.53    2.84
  -4  12  -1    5.10    1.15
  -4 -12  -1    4.00    2.39
  -4  12  -2   13.48    1.12
  -4  12  -2   15.14    2.83
  -4  12  -2   12.84    2.89
  -4 -12  -2    8.84    2.96
  -4  12  -2   14.71    1.14
  -4  12  -3  210.11   10.03
  -4  12  -3  225.58    9.87
  -4 -12  -3  211.17   10.93
  -4  12  -4   11.87    2.74
  -4  12  -4   16.21    2.70
  -4 -12  -4    8.66    3.35
  -4  12  -5   13.60    2.48
  -4 -12  -5    6.10    2.89
  -4 -12  -6  198.93   11.40
  -4 -12  -7  690.50   23.54
  -4 -12  -8  420.57   18.12
   4  12   9   40.51    5.78
  -4 -12  -9   40.17    6.06
   4  12  10   31.10    5.73
   4  12  11  112.81    9.44
   4  12  12    3.18    3.02
   4  12  13   62.05    7.57
   4  12  14    9.48    4.52
   4  12  15   82.13    8.85
  -4  13  13  437.90   21.47
  -4 -13  12   45.78    5.19
  -4  13  12   57.12    7.71
  -4 -13  11   11.48    3.08
  -4  13  11    7.12    3.70
  -4 -13  10   79.17    6.36
  -4  13  10   73.38    8.22
  -4 -13   9   25.49    3.77
  -4  13   9   23.95    5.40
  -4 -13   8   -4.17    3.03
  -4  13   8    2.01    3.45
  -4 -13   7   56.66    5.26
  -4  13   7   67.10    7.39
   4  13  -6  127.35    7.84
  -4  13   6  127.38    9.78
  -4 -13   6  124.83    7.66
  -4 -13   5   44.89    4.74
  -4  13   5   56.48    6.55
   4  13  -5   56.95    5.25
  -4 -13   4    2.77    2.32
   4  13  -4    3.72    2.20
  -4  13   4   -1.89    2.43
  -4  13   3  437.44   17.55
  -4 -13   3  459.64   15.77
  -4  13   3  436.05   14.36
  -4  13   2   32.63    4.91
  -4 -13   2   17.64    3.54
  -4  13   2   26.38    3.30
  -4  13   1  447.52   12.40
  -4  13   1  414.82   16.31
  -4  13   1  418.07   12.39
  -4 -13   1  404.73   15.31
  -4  13   0   40.49    3.07
  -4  13   0   33.08    4.53
  -4 -13   0   31.77    4.37
  -4  13   0   40.10    2.97
  -4  13  -1  182.73    5.65
  -4  13  -1  174.97    9.55
  -4 -13  -1  183.44    9.96
  -4  13  -1  176.20    5.63
  -4  13  -2   18.09    3.05
  -4  13  -2   20.46    3.56
  -4 -13  -2   21.70    3.91
  -4  13  -3    8.83    2.56
  -4 -13  -3    6.27    2.92
  -4  13  -4    8.74    2.42
  -4 -13  -4    9.27    3.29
  -4  13  -5   74.94    5.33
  -4 -13  -5   77.44    7.10
  -4 -13  -6   25.38    4.86
  -4 -13  -7  274.82   14.20
  -4 -13  -8  149.37   10.84
   4  13   9  291.20   15.30
   4  13  10   11.51    4.52
   4  13  11  148.05   11.42
   4  13  12  123.77   10.30
   4  13  13   31.63    5.68
   4  13  14   31.17    5.88
  -4  14  12  458.07   22.01
  -4 -14  11   47.48    5.22
  -4  14  11   51.59    7.06
  -4 -14  10   23.10    3.99
  -4  14  10   11.96    3.68
  -4 -14   9   43.93    4.95
  -4  14   9   46.27    6.90
  -4  14   8  690.57   25.81
  -4 -14   8  666.36   20.45
  -4  14   7  151.87   11.30
  -4 -14   7  140.03    8.46
  -4  14   6  135.30   10.42
  -4 -14   6  140.09    8.40
  -4  14   5  451.95   19.09
  -4 -14   5  440.26   15.71
  -4  14   4  784.44   25.78
  -4 -14   4  781.09   22.26
  -4  14   4  733.52   21.16
  -4  14   3   35.77    5.14
  -4  14   3   29.98    3.80
  -4 -14   3   33.09    4.50
  -4  14   2   82.44    7.38
  -4  14   2   87.32    5.56
  -4 -14   2   76.58    6.38
  -4  14   1   48.37    3.72
  -4  14   1   49.38    5.57
  -4  14   1   50.62    3.82
  -4 -14   1   49.39    5.30
  -4  14   0   17.12    2.16
  -4  14   0   11.83    3.42
  -4 -14   0   19.74    3.73
  -4  14   0   16.15    1.97
  -4  14  -1  183.64    5.50
  -4  14  -1  184.79   10.18
  -4 -14  -1  176.86   10.06
  -4  14  -1  173.64    5.37
  -4  14  -2  771.98   22.82
  -4 -14  -2  774.59   23.75
  -4  14  -3  120.34    7.69
  -4 -14  -3  111.52    8.39
  -4  14  -4  324.60   12.60
  -4 -14  -4  303.19   14.33
  -4  14  -5   29.97    3.70
  -4 -14  -5   27.52    4.90
  -4  14  -6  394.87   12.85
  -4 -14  -6  405.53   17.63
  -4 -14  -7    0.47    3.01
  -4 -14  -8  295.25   15.63
   4  14   9    4.81    3.35
   4  14  10   12.22    4.01
   4  14  11  120.92   10.43
   4  14  12   18.77    4.77
  -4  15  11    2.10    3.33
  -4  15  10  192.44   13.93
  -4 -15   9   41.27    4.75
  -4  15   9   33.11    6.18
  -4 -15   8   -0.76    2.74
  -4  15   8   11.04    4.77
  -4  15   7  173.06   12.29
  -4 -15   7  163.70    9.32
  -4 -15   6   27.72    4.14
  -4  15   6   28.45    5.48
  -4  15   5  141.61   10.72
  -4 -15   5  129.18    8.29
  -4  15   4 1206.45   34.78
  -4  15   4 1176.50   29.44
  -4 -15   4 1203.36   30.52
  -4  15   3   23.22    4.87
  -4  15   3   28.57    3.86
  -4 -15   3   30.48    4.34
  -4  15   2  229.87   12.86
  -4 -15   2  227.99   11.41
  -4  15   2  243.89    9.57
  -4  15   1   84.50    4.91
  -4  15   1   80.07    7.40
  -4 -15   1   78.40    6.69
  -4  15   0  144.53    5.71
  -4  15   0  146.84    9.62
  -4 -15   0  140.84    9.07
  -4  15  -1   13.96    1.41
  -4  15  -1   15.93    3.50
  -4 -15  -1   19.15    4.08
  -4  15  -2   11.95    3.10
  -4 -15  -2    8.72    3.34
  -4  15  -3   66.23    5.99
  -4 -15  -3   61.52    6.52
  -4  15  -4   41.90    4.67
  -4 -15  -4   33.82    5.31
  -4  15  -5    7.36    2.26
  -4 -15  -5    4.21    2.99
  -4  15  -6   77.72    5.52
  -4 -15  -6   65.77    7.45
  -4 -15  -7   19.89    4.95
   4  15   8   57.37    7.37
   4  15   9    9.36    4.01
   4  15  10  269.18   15.80
   4  15  11    3.77    3.29
  -4  16   9   80.19    8.80
  -4 -16   8   -3.18    2.63
  -4  16   8    3.06    3.41
  -4  16   7  282.06   16.21
  -4 -16   7  282.24   12.52
  -4  16   6  444.52   20.40
  -4 -16   6  437.87   16.10
  -4  16   5  179.23   12.26
  -4 -16   5  147.52    8.99
  -4  16   4    3.85    3.02
  -4 -16   4    5.44    2.84
  -4  16   3   19.97    4.71
  -4 -16   3   26.17    4.19
  -4  16   2   32.02    5.41
  -4 -16   2   27.53    4.43
  -4  16   1  137.68    6.32
  -4  16   1  130.37    9.57
  -4 -16   1  125.40    8.68
  -4  16   0    7.86    3.02
  -4 -16   0    9.79    3.68
  -4  16  -1    0.52    2.36
  -4 -16  -1   -0.17    2.55
  -4  16  -2  186.99   10.74
  -4 -16  -2  187.81   11.09
  -4  16  -3  129.16    8.67
  -4 -16  -3  141.30    9.96
  -4  16  -4  471.64   16.82
  -4 -16  -4  433.69   18.46
  -4  16  -5  134.72    8.16
  -4 -16  -5  132.45   10.23
  -4 -16  -6  300.56   15.69
  -4 -16  -7    5.56    3.67
   4  16   8  182.87   12.96
   4  16   9    1.99    3.46
  -4  17   8   47.41    7.58
  -4  17   7   -1.02    3.37
  -4  17   6    1.12    3.12
  -4 -17   6   -3.40    2.32
  -4  17   5  103.04    9.93
  -4 -17   5  110.44    7.85
  -4  17   4    2.65    2.99
  -4 -17   4    5.45    2.83
  -4  17   3    6.34    3.90
  -4 -17   3    1.21    2.20
  -4  17   2   69.60    7.79
  -4 -17   2   78.37    7.00
  -4  17   1  123.59    9.75
  -4 -17   1  129.52    9.04
  -4  17   0  118.52    9.32
  -4 -17   0  130.33    9.21
  -4  17  -1    8.18    2.89
  -4 -17  -1    6.57    2.91
  -4  17  -2   35.00    4.77
  -4 -17  -2   37.71    5.30
  -4  17  -3   26.61    4.42
  -4 -17  -3   22.26    5.01
  -4  17  -4   56.40    5.86
  -4 -17  -4   48.83    6.31
  -4 -17  -5   24.60    4.83
  -4 -17  -6   15.42    4.39
   4  17   7    4.93    3.40
  -4  18   6    6.50    3.55
  -4  18   5  132.24   11.23
  -4 -18   5  125.08    8.52
  -4  18   4   18.30    4.85
  -4 -18   4   20.35    3.74
  -4  18   3  130.50   10.83
  -4 -18   3  134.08    9.13
  -4  18   2   11.63    4.61
  -4 -18   2   14.84    3.66
  -4  18   1   21.84    4.65
  -4 -18   1   28.37    4.75
  -4  18   0    4.45    3.57
  -4 -18   0    4.06    2.78
  -4  18  -1  112.20    9.22
  -4 -18  -1  113.18    8.87
  -4  18  -2  152.84   10.35
  -4 -18  -2  150.15   10.61
  -4  18  -3   27.83    4.76
  -4 -18  -3   23.53    4.87
  -4  18  -4   75.56    6.93
  -4 -18  -4   66.56    7.50
  -4 -18  -5  218.83   13.66
  -4  19   5    3.87    3.60
  -4  19   4   12.66    4.63
  -4  19   3  246.40   15.29
  -4 -19   3  238.25   12.38
  -4  19   2   45.62    6.74
  -4 -19   2   30.14    4.99
  -4  19   1   71.34    8.27
  -4 -19   1   73.35    7.23
  -4  19   0   28.36    5.38
  -4 -19   0   26.36    4.97
  -4  19  -1  204.00   12.85
  -4 -19  -1  188.76   11.93
  -4  19  -2   29.41    5.08
  -4 -19  -2   15.79    4.19
  -4  19  -3   90.06    8.11
  -4 -19  -3   87.74    8.56
  -4 -19  -4    1.55    3.44
  -4  20   3   27.36    5.60
  -4  20   2   13.64    3.80
  -4  20   1    3.54    3.32
  -4  20   0    9.20    3.99
  -4 -20   0   11.53    3.78
  -4  20  -1    4.31    3.31
  -4 -20  -1    2.95    3.19
  -4  20  -2   -0.11    3.61
  -4 -20  -2   10.62    3.68
  -4 -20  -3  134.28   10.64
  -4  21   1  134.20   11.44
  -4  21   0    7.17    4.49
  -4  21  -1   20.90    5.16
  -4 -21  -2   87.65    8.61
  -5   0  17  125.10   10.49
  -5   0  16    2.26    2.94
  -5   0  15   78.19    7.93
  -5   0  14   -1.73    2.78
  -5   0  13  182.28   11.35
  -5   0  12   -3.52    3.03
  -5   0  11  247.66   12.41
  -5   0  10   -0.15    2.37
  -5   0   9  332.72   13.67
   5   0  -8    0.97    1.89
  -5   0   8   -2.39    2.43
  -5   0   7    6.41    2.66
  -5   0   6    1.96    2.07
  -5   0   5 2314.25   46.58
   5   0  -4    0.33    0.62
  -5   0   4   -1.85    2.05
   5   0  -3   23.08    3.07
   5   0  -3   23.73    1.37
  -5   0   3   20.94    2.97
   5   0  -2    0.62    1.64
  -5   0   2   -4.83    2.29
   5   0  -1   12.47    2.32
  -5   0   1   11.67    2.43
   5   0   0    2.87    1.82
  -5   0   0   -0.11    1.74
   5   0   1  449.63   13.39
  -5   0  -1  439.15   13.18
   5   0   2    0.79    1.60
  -5   0  -2    1.26    1.79
   5   0   3 1057.42   24.22
  -5   0  -3 1047.54   24.25
  -5   0  -4   -0.62    1.95
   5   0   4    3.73    1.96
   5   0   5 2487.14   48.95
  -5   0  -5 2538.15   49.16
   5   0   6   -0.21    1.54
  -5   0  -6    1.15    1.78
   5   0   7   -0.13    1.86
  -5   0  -7    0.04    1.85
   5   0   8   -0.24    1.51
  -5   0  -8    0.50    1.94
   5   0   9  342.85   12.95
  -5   0  -9  330.95   12.88
  -5   0 -10    0.50    2.10
   5   0  11  333.33    9.88
   5   0  12    0.00    1.12
   5   0  12   -0.30    3.19
   5   0  13    5.82    3.42
   5   0  14   -3.84    4.06
   5   0  15  256.94   15.73
   5   0  16   -5.70    3.47
  -5   1  17   88.29    9.13
  -5   1  17   71.37    6.91
  -5  -1  17   92.24    9.03
  -5   1  16    8.69    3.98
  -5   1  16   12.04    3.10
  -5  -1  16   13.33    4.35
  -5   1  15  276.37   12.71
  -5  -1  15  287.17   15.07
  -5   1  15  287.01   15.28
  -5   1  14   35.76    5.75
  -5   1  14   28.74    3.97
  -5  -1  14   29.08    5.10
  -5   1  13  144.68    8.21
  -5  -1  13  151.62   10.26
  -5   1  13  146.30   10.04
  -5   1  12   11.20    3.76
  -5   1  12   12.79    2.56
  -5  -1  12   11.35    3.24
  -5   1  11   39.68    5.17
  -5  -1  11   36.95    5.24
  -5   1  10   91.99    7.29
  -5  -1  10   87.53    7.04
  -5  -1   9    0.16    2.37
  -5   1   9    3.04    2.20
   5  -1  -8   29.72    4.29
  -5  -1   8   28.70    4.09
  -5   1   8   26.17    3.99
   5  -1  -7   54.96    5.28
  -5  -1   7   51.65    4.96
  -5   1   7   45.55    4.75
  -5  -1   6  146.51    8.00
   5  -1  -6  159.73    8.83
   5   1  -6  153.75    5.84
  -5   1   6  145.93    8.02
   5   1  -5  550.02   12.43
  -5   1   5  549.58   16.36
  -5  -1   5  521.57   16.17
   5   1  -4  572.74   12.25
   5   1  -4  579.83   16.76
  -5   1   4  581.88   16.51
  -5  -1   4  549.79   16.30
   5  -1  -3  808.34   20.19
   5   1  -3  819.54   20.57
  -5   1   3  788.82   20.04
  -5  -1   3  740.85   19.84
   5  -1  -2  153.67    7.20
   5   1  -2  151.76    7.37
  -5  -1   2  159.59    7.43
  -5   1   2  140.62    6.97
   5  -1  -1  169.09    7.53
  -5  -1   1  169.95    7.74
  -5   1   1  178.98    7.68
   5   1  -1  164.89    7.70
  -5   1   0 1942.56   38.47
   5   1   0 1975.08   39.20
  -5  -1   0 1898.03   38.81
   5  -1   0 1899.00   38.32
   5  -1   1    4.57    1.42
   5   1   1    5.79    1.91
  -5  -1  -1    6.09    2.11
  -5   1  -1    4.25    1.98
  -5   1  -2    9.98    2.23
  -5  -1  -2    4.83    2.09
   5  -1   2    7.86    2.04
   5   1   2    3.64    1.67
   5   1   3    0.64    1.46
  -5   1  -3    0.90    1.57
  -5  -1  -3    0.92    1.76
   5  -1   3    1.48    1.34
   5  -1   4   64.00    4.54
   5   1   4   57.14    4.55
  -5  -1  -4   63.10    4.80
  -5   1  -4   63.73    4.60
   5   1   5   20.23    2.85
   5  -1   5   17.44    2.71
  -5  -1  -5   11.71    2.59
  -5   1  -5   18.39    2.91
   5   1   6  334.05   12.09
   5  -1   6  331.68   11.49
  -5  -1  -6  318.74   11.95
  -5   1  -6  336.10   11.56
   5  -1   7  813.45   21.10
   5   1   7  833.32   22.01
  -5  -1  -7  855.98   22.31
  -5   1  -7  826.66   21.20
   5  -1   8    9.70    2.43
   5   1   8   10.10    2.45
  -5   1  -8   13.54    2.75
  -5  -1  -8    9.78    2.79
   5  -1   9  450.38   17.09
   5  -1   9  445.86   14.82
   5   1   9  424.80   15.15
  -5   1  -9  436.92   14.79
  -5  -1  -9  418.32   15.17
   5  -1  10  309.86   14.37
   5  -1  10  300.70    8.54
   5  -1  10  284.78   11.75
  -5   1 -10  273.99   11.72
  -5  -1 -10  279.62   12.37
   5  -1  11   64.98    3.43
   5   1  11   66.89    4.44
   5  -1  11   68.47    7.05
   5   1  12    2.57    1.47
   5  -1  12    5.85    3.58
   5  -1  13  172.82   12.07
   5   1  14   85.68    8.91
   5  -1  14   74.55    8.15
   5  -1  15   68.43    8.18
   5   1  15   51.12    7.16
   5  -1  16   26.81    5.68
  -5   2  18    1.15    3.12
  -5   2  17   22.14    5.23
  -5   2  17   23.07    4.70
  -5  -2  17   18.77    4.41
  -5   2  16    3.77    3.04
  -5   2  16    2.51    2.61
  -5  -2  16    2.29    3.25
  -5   2  15    0.88    3.09
  -5   2  15    1.44    2.03
  -5  -2  15   -4.31    3.77
  -5   2  14   48.06    6.47
  -5   2  14   41.93    4.80
  -5   2  13  187.30   11.70
  -5   2  13  188.90    9.23
  -5  -2  13  181.68   11.23
  -5   2  12  109.02    6.63
  -5  -2  12  103.52    8.24
  -5   2  12  109.36    8.70
  -5   2  11  951.94   22.86
  -5  -2  11  928.90   27.05
  -5   2  11  968.67   27.78
  -5   2  10  404.80   12.22
  -5  -2  10  418.85   15.92
  -5   2  10  405.83   16.03
  -5   2   9   62.13    5.89
  -5   2   9   63.62    3.97
  -5  -2   9   56.16    5.46
  -5  -2   8   33.20    4.33
  -5   2   8   31.57    4.26
  -5  -2   7  520.03   16.97
   5  -2  -7  590.97   18.85
  -5   2   7  513.51   17.00
   5   2  -7  565.19   14.56
  -5  -2   6  115.09    7.00
   5  -2  -6  120.77    7.74
  -5   2   6  106.97    6.79
   5   2  -6  112.54    5.15
   5   2  -5   42.98    2.90
  -5  -2   5   39.00    4.14
  -5   2   5   38.57    4.15
  -5  -2   4    3.80    1.95
   5  -2  -4    5.03    2.02
  -5   2   4    6.07    2.36
   5   2  -4    7.19    2.32
  -5   2   3    0.28    1.72
   5   2  -3    0.63    1.60
  -5  -2   3   -3.14    2.19
   5  -2  -2    0.55    1.59
   5   2  -2    1.34    1.61
  -5  -2   2    1.62    1.92
  -5   2   2   -0.22    1.73
   5  -2  -1 1181.92   25.95
  -5   2   1 1137.17   25.67
   5   2  -1 1177.84   26.82
  -5  -2   1 1181.74   26.67
   5  -2   0  151.47    6.93
   5  -2   0  153.37    4.43
  -5  -2   0  154.16    7.40
   5   2   0  159.61    7.59
  -5   2   0  154.80    6.94
   5  -2   1  345.97    8.79
  -5   2  -1  326.87   10.64
   5  -2   1  323.86   10.65
   5   2   1  326.36   11.44
  -5  -2  -1  324.82   11.47
   5  -2   2   36.06    3.32
   5  -2   2   38.16    2.91
  -5   2  -2   43.61    3.65
   5   2   2   40.27    3.96
  -5  -2  -2   44.96    4.30
   5  -2   3  248.76    8.83
   5   2   3  276.41   10.43
   5  -2   3  269.32    9.43
  -5   2  -3  267.03    9.38
  -5  -2  -3  268.12   10.34
   5  -2   4  195.17    8.16
   5  -2   4  193.18    7.86
   5   2   4  197.67    8.84
  -5   2  -4  207.33    8.16
  -5  -2  -4  194.02    8.82
   5  -2   5   11.94    2.38
   5  -2   5   14.54    2.30
   5   2   5   12.66    2.60
  -5  -2  -5   14.14    2.86
  -5   2  -5   13.75    2.47
   5  -2   6  468.24   15.46
   5   2   6  488.29   15.48
   5  -2   6  491.59   14.26
  -5  -2  -6  473.62   15.52
  -5   2  -6  484.57   14.18
   5  -2   7  261.95   11.48
   5   2   7  277.13   11.31
   5  -2   7  270.61   10.14
  -5  -2  -7  263.74   11.21
  -5   2  -7  268.22   10.18
   5  -2   8  160.16    9.29
   5  -2   8  180.47    8.29
   5   2   8  169.42    8.99
  -5   2  -8  178.95    8.26
  -5  -2  -8  175.27    9.22
   5  -2   9   48.60    5.43
   5  -2   9   50.30    4.51
  -5   2  -9   48.49    4.63
  -5  -2  -9   45.60    5.00
   5  -2  10   18.03    2.95
   5  -2  10   16.78    3.78
   5  -2  10   21.76    1.77
  -5   2 -10   16.15    3.05
  -5  -2 -10   21.91    4.01
   5  -2  11   11.54    2.55
   5  -2  11    4.55    2.43
   5  -2  11    7.99    0.95
   5   2  11    7.58    2.01
  -5  -2 -11    9.10    3.26
   5  -2  12   11.56    3.28
   5   2  12   12.90    2.41
   5   2  13  375.95   12.34
   5  -2  13  360.07   17.54
   5  -2  14   29.47    5.50
   5   2  15   41.96    6.78
   5  -2  15   44.98    6.74
  -5   3  17   51.68    6.12
  -5  -3  17   35.95    5.82
  -5   3  16  253.82   12.63
  -5  -3  16  250.75   14.51
  -5   3  15   -0.44    2.26
  -5  -3  15   -0.97    3.08
  -5   3  14  388.92   14.56
  -5  -3  14  369.43   16.86
  -5   3  13  172.34    8.83
  -5  -3  13  154.45   10.27
  -5   3  12   78.93    5.65
  -5  -3  12   84.95    7.34
  -5   3  11    3.97    1.73
  -5  -3  11    4.41    3.06
  -5   3  10   25.12    4.08
  -5   3  10   22.32    2.78
  -5  -3  10   27.80    4.27
  -5   3   9    9.71    3.00
   5   3  -9    2.38    1.62
  -5   3   9    8.03    1.76
  -5  -3   9    3.81    2.36
  -5   3   8   17.69    3.47
  -5   3   8   15.96    1.80
  -5  -3   8   14.33    3.13
   5   3  -8   24.41    3.04
  -5  -3   7  270.60   11.39
   5  -3  -7  294.25   12.76
   5   3  -7  282.21    9.64
  -5   3   7  263.73   11.46
  -5  -3   6 1004.33   25.76
   5  -3  -6 1099.99   28.06
   5   3  -6 1050.56   22.67
  -5   3   6 1049.66   26.18
  -5  -3   5    7.88    2.24
   5  -3  -5   15.96    3.27
   5   3  -5   14.81    2.83
   5   3  -5   10.81    1.67
  -5   3   5   14.08    2.99
  -5  -3   4   54.62    4.82
  -5   3   4   61.73    4.92
   5  -3  -4   63.87    5.44
   5   3  -4   60.11    4.88
  -5  -3   3  540.49   16.20
  -5   3   3  575.21   15.99
   5  -3  -3  572.65   17.57
   5   3  -3  580.41   16.73
  -5  -3   2 2407.20   48.44
  -5   3   2 2476.64   47.59
   5   3  -2 2543.41   49.07
   5  -3  -2 2491.93   50.00
   5   3  -1  106.62    6.17
  -5  -3   1   97.22    5.97
  -5   3   1  102.31    5.63
   5  -3  -1   90.46    5.91
   5  -3  -1   99.43    5.54
   5  -3   0  113.02    5.81
  -5   3   0  110.22    5.69
  -5  -3   0  107.41    6.38
   5   3   0  115.12    6.47
   5  -3   1    2.03    0.85
   5  -3   1    2.45    1.59
  -5   3  -1    4.23    1.69
   5   3   1    1.25    1.71
  -5  -3  -1    1.04    1.82
   5  -3   2  109.58    4.80
   5  -3   2  105.02    5.44
   5   3   2  109.35    6.36
  -5   3  -2  102.09    5.41
  -5  -3  -2  103.28    6.32
   5  -3   3   68.79    4.26
   5  -3   3   68.79    4.44
   5   3   3   71.50    5.28
  -5   3  -3   72.69    4.49
  -5  -3  -3   74.85    5.47
   5  -3   4  415.36   12.74
   5   3   4  443.11   14.26
   5  -3   4  419.38   12.37
  -5   3  -4  444.30   12.59
  -5  -3  -4  437.85   14.40
   5  -3   5   42.94    4.05
   5   3   5   50.80    4.61
   5  -3   5   48.67    3.79
  -5  -3  -5   57.37    5.16
  -5   3  -5   50.58    3.99
   5  -3   6  226.00   10.04
   5  -3   6  239.57    9.03
   5   3   6  245.21   10.53
  -5  -3  -6  254.85   10.93
  -5   3  -6  235.32    8.93
   5  -3   7  141.95    8.27
   5   3   7  166.06    8.74
   5  -3   7  139.64    6.88
  -5   3  -7  166.57    7.42
  -5  -3  -7  150.19    8.62
   5  -3   8  922.48   26.03
   5  -3   8  990.62   23.47
  -5   3  -8 1004.04   23.54
  -5  -3  -8  993.00   26.27
   5  -3   9  298.83   11.15
   5  -3   9  267.54   12.92
   5  -3   9  320.82    7.61
  -5   3  -9  303.08   11.35
  -5  -3  -9  296.25   13.00
   5  -3  10   17.92    3.64
   5  -3  10   27.79    3.43
  -5  -3 -10   15.99    3.80
   5  -3  11   27.43    4.69
   5  -3  11   32.03    3.85
   5   3  11   28.81    3.34
  -5  -3 -11   21.58    4.12
   5  -3  12  503.25   16.90
   5   3  12  549.28   16.22
   5  -3  12  516.49   20.67
   5   3  13   26.28    3.40
   5  -3  13   26.67    4.98
   5  -3  14   33.25    5.75
   5  -3  15   25.14    5.40
  -5   4  17   16.50    3.88
  -5  -4  17   10.66    3.97
  -5   4  16    0.42    2.74
  -5  -4  16   -2.80    3.80
  -5   4  15   32.11    4.38
  -5  -4  15   24.82    5.26
  -5  -4  14   -0.05    3.11
  -5   4  14    0.43    2.08
  -5  -4  13    1.28    2.48
  -5   4  13    2.41    2.12
  -5   4  12   69.37    5.33
  -5  -4  12   70.39    6.68
  -5   4  11    6.39    2.21
  -5  -4  11    4.65    2.80
  -5  -4  10  674.04   21.45
   5   4 -10  733.49   20.64
  -5   4  10  701.97   17.62
  -5   4   9   10.99    1.83
   5   4  -9   16.61    2.93
  -5  -4   9   14.49    3.59
  -5  -4   8 1689.73   38.06
  -5   4   8 1657.34   31.84
   5   4  -8 1721.68   35.66
  -5   4   8 1702.63   38.80
  -5   4   7    1.33    2.05
  -5  -4   7    5.62    2.60
  -5   4   7    3.87    1.02
   5   4  -7    2.77    1.55
  -5  -4   6   71.39    5.62
   5  -4  -6   62.51    5.69
  -5   4   6   73.41    2.66
   5   4  -6   72.13    4.53
  -5   4   6   74.00    5.73
  -5  -4   5  856.40   22.76
   5  -4  -5  932.97   25.05
  -5   4   5  883.91   22.93
   5   4  -5  937.00   23.65
  -5  -4   4   55.54    4.85
   5  -4  -4   55.21    5.23
  -5   4   4   57.89    4.77
   5   4  -4   52.98    4.72
   5   4  -3   94.14    6.17
  -5  -4   3   87.74    5.99
  -5   4   3  102.04    5.98
   5  -4  -3   97.89    6.66
   5   4  -2  675.70   18.52
  -5   4   2  665.03   17.39
  -5  -4   2  661.74   18.41
   5  -4  -2  676.01   19.40
  -5   4   1   65.16    4.50
   5   4  -1   72.30    5.26
  -5  -4   1   62.94    4.90
   5  -4  -1   65.20    5.11
  -5  -4   0  498.47   15.32
  -5   4   0  513.02   13.89
   5   4   0  515.80   15.47
   5  -4   0  514.02   14.04
   5  -4   0  481.64   15.20
  -5   4  -1  205.35    7.75
   5   4   1  202.61    8.90
   5  -4   1  210.33    7.89
   5  -4   1  186.65    8.37
  -5  -4  -1  194.45    8.92
   5   4   2  216.48    9.33
   5  -4   2  190.47    7.43
  -5   4  -2  197.07    7.49
   5  -4   2  196.07    6.72
   5  -4   2  186.65    8.11
  -5  -4  -2  187.39    8.78
  -5  -4  -3    2.96    2.13
  -5   4  -3   -0.75    1.39
   5   4   3    0.85    1.77
   5  -4   3    2.28    1.22
   5  -4   3    2.49    1.38
   5  -4   3    2.99    1.23
   5  -4   4 1013.17   22.33
   5   4   4 1065.74   25.52
   5  -4   4 1002.71   23.03
  -5   4  -4 1055.98   22.43
  -5  -4  -4 1023.63   25.47
   5   4   5   29.71    3.70
   5  -4   5   27.66    2.79
   5  -4   5   32.71    3.43
   5  -4   5   26.24    2.60
  -5   4  -5   31.18    3.08
  -5  -4  -5   27.82    3.91
   5  -4   6   96.65    5.29
   5   4   6  102.28    6.74
   5  -4   6  110.43    6.69
   5  -4   6  105.84    4.83
  -5   4  -6   95.27    5.28
  -5  -4  -6   99.64    6.98
   5  -4   7  137.72    6.62
   5  -4   7  137.71    7.97
   5  -4   7  142.69    5.23
  -5   4  -7  140.71    6.67
  -5  -4  -7  136.98    8.34
   5  -4   8   48.29    4.03
   5  -4   8   43.58    4.79
   5  -4   8   50.58    2.47
  -5  -4  -8   50.42    5.52
  -5   4  -8   43.42    3.98
   5  -4   9    3.98    2.55
   5  -4   9    0.45    1.50
  -5  -4  -9    2.27    2.77
  -5   4  -9   -1.49    2.16
   5  -4  10    8.56    2.89
   5  -4  10    7.77    2.47
  -5  -4 -10   14.43    3.69
   5  -4  11  105.58    6.64
   5  -4  11  106.31    8.58
   5   4  11  119.23    7.19
  -5  -4 -11   98.44    8.04
   5  -4  12  103.39    6.84
   5   4  12  101.36    6.77
   5  -4  12   96.95    8.63
   5   4  13    6.12    2.07
   5  -4  13    4.30    3.03
   5  -4  14  334.60   17.33
   5  -4  15   69.41    8.52
  -5  -5  17  102.11    9.44
  -5  -5  16  262.01   14.69
  -5   5  16  309.94   14.01
  -5   5  15   56.48    5.73
  -5  -5  15   59.06    7.02
  -5  -5  14  381.28   16.98
  -5   5  14  403.65   15.00
  -5  -5  13  281.18   13.93
  -5   5  13  282.13   11.69
  -5  -5  12  116.87    8.71
  -5   5  12  132.03    7.27
  -5  -5  11  150.68    9.43
   5   5 -11  157.61    9.15
  -5   5  11  154.88    7.54
  -5  -5  10  106.38    7.65
  -5   5  10  107.77    5.79
   5   5 -10  108.13    7.19
  -5  -5   9  126.72    8.15
   5   5  -9  131.40    7.52
  -5   5   9  131.34    5.95
  -5   5   8   10.26    1.71
   5   5  -8   15.42    2.78
  -5  -5   8   13.77    3.10
  -5  -5   7  732.74   20.99
   5   5  -7  775.53   19.60
  -5   5   7  739.96   15.66
  -5   5   7  740.92   21.55
  -5  -5   6  245.98   10.69
   5  -5  -6  252.07   11.98
   5   5  -6  253.43    9.40
  -5   5   6  242.51   10.69
  -5   5   6  248.79    6.26
   5   5  -6  250.30   10.91
  -5  -5   5    2.00    2.24
   5  -5  -5    1.84    2.00
   5   5  -5    4.00    2.36
  -5   5   5    1.20    1.97
  -5  -5   4 1757.62   38.53
   5  -5  -4 1845.15   40.94
   5   5  -4 1912.48   39.53
  -5   5   4 1793.66   38.08
   5   5  -3  188.05    8.87
  -5  -5   3  180.18    8.70
  -5   5   3  184.34    8.20
   5  -5  -3  183.85    9.33
  -5  -5   2 1583.88   34.40
  -5   5   2 1557.23   32.76
   5  -5  -2 1521.03   35.20
   5   5  -1  258.48   10.32
  -5   5   1  239.25    8.88
  -5  -5   1  236.65    9.98
   5  -5  -1  243.93   10.42
  -5   5   0  907.59   20.71
  -5  -5   0  898.63   23.00
   5   5   0  963.40   23.46
   5  -5   0  870.17   22.68
  -5   5  -1  135.76    6.04
   5   5   1  130.16    7.23
   5  -5   1  143.55    6.28
   5  -5   1  125.53    6.81
  -5  -5  -1  135.09    7.47
   5   5   2  183.36    8.73
  -5   5  -2  162.93    6.64
   5  -5   2  180.70    7.04
   5  -5   2  172.26    7.71
  -5  -5  -2  177.22    8.65
   5   5   3  157.56    8.16
   5  -5   3  160.62    6.50
   5  -5   3  145.22    6.82
  -5  -5  -3  157.22    8.36
  -5   5  -3  162.74    6.51
   5   5   4    9.47    2.47
  -5   5  -4   11.62    1.89
   5  -5   4    9.55    2.00
   5  -5   4    7.33    1.53
   5  -5   4    8.13    1.77
  -5  -5  -4    8.55    2.95
   5  -5   5  417.71   11.68
   5   5   5  410.01   14.54
   5  -5   5  411.61   13.26
   5  -5   5  399.81   11.41
  -5  -5  -5  415.67   14.86
  -5   5  -5  418.61   11.64
   5  -5   6 1005.92   22.27
   5  -5   6 1011.38   25.15
   5  -5   6 1032.94   21.20
  -5   5  -6 1025.97   22.28
  -5  -5  -6  996.80   26.66
   5  -5   7   38.99    3.24
   5  -5   7   39.25    4.39
   5  -5   7   42.59    2.51
  -5   5  -7   37.94    3.41
  -5  -5  -7   40.61    4.88
   5  -5   8  674.81   16.59
   5  -5   8  634.24   19.88
   5  -5   8  599.13   11.37
  -5   5  -8  673.95   16.59
  -5  -5  -8  658.22   20.62
   5  -5   9   85.22    7.03
   5  -5   9   94.52    5.52
  -5  -5  -9   88.42    7.30
   5  -5  10  458.69   17.82
   5  -5  10  470.19   14.07
  -5  -5 -10  464.81   18.04
   5  -5  11   42.62    5.66
   5  -5  11   34.25    3.71
   5   5  11   40.29    4.49
   5   5  12  112.43    7.35
   5  -5  12   95.26    8.62
   5   5  13   40.00    4.60
   5  -5  13   28.07    5.43
   5   5  14   68.65    6.02
   5  -5  14   62.37    7.63
   5  -5  15   63.39    8.53
  -5  -6  18    1.27    3.38
  -5  -6  17   -3.42    3.29
  -5   6  16   25.21    4.46
  -5  -6  16   24.29    4.99
  -5   6  15   59.35    5.97
  -5  -6  15   50.28    6.44
  -5  -6  14  179.00   11.32
  -5   6  14  194.88   10.12
  -5  -6  13  110.85    8.66
  -5   6  13  125.34    7.70
  -5   6  12   29.83    3.72
  -5  -6  12   25.19    4.39
  -5  -6  11   41.31    5.17
  -5   6  11   51.34    4.39
  -5  -6  10  743.47   22.96
  -5   6  10  785.70   19.50
   5   6 -10  796.46   22.63
  -5  -6   9  402.14   15.22
  -5   6   9  409.81   12.00
   5   6  -9  411.41   14.51
  -5  -6   8    3.82    2.17
   5   6  -8    5.10    1.95
  -5  -6   7  287.43   11.97
   5   6  -7  298.00   11.11
  -5  -6   6  143.03    8.06
   5   6  -6  161.63    8.61
  -5   6   6  160.58    8.59
  -5  -6   5  205.13    9.74
   5  -6  -5  248.62   11.71
   5   6  -5  225.10   10.14
  -5   6   5  219.59    9.76
  -5  -6   4    9.59    2.87
   5  -6  -4    8.14    2.25
   5   6  -4   11.22    2.50
  -5   6   4    8.81    2.66
   5   6  -3  380.72   13.18
  -5  -6   3  354.44   12.77
   5  -6  -3  329.22   13.38
  -5   6   3  361.02   12.04
  -5   6   3  351.31    7.06
  -5  -6   2   18.13    3.11
   5  -6  -2   14.47    2.90
  -5   6   2   13.30    1.11
  -5   6   2   16.30    2.61
   5   6  -2   14.71    2.89
  -5  -6   1    6.12    2.51
   5   6  -1    4.13    2.20
  -5   6   1    1.50    1.43
   5  -6  -1    2.97    1.77
   5   6   0  348.65   12.68
  -5   6   0  355.77   10.77
   5  -6   0  330.51   12.44
  -5  -6   0  357.47   12.84
  -5   6  -1  632.93   15.47
   5   6   1  655.31   18.58
   5  -6   1  598.94   17.47
  -5  -6  -1  633.69   18.47
   5   6   2  612.88   17.98
  -5   6  -2  603.79   14.56
   5  -6   2  559.21   16.25
  -5  -6  -2  585.90   17.87
   5   6   3  721.87   20.39
   5  -6   3  701.75   16.50
   5  -6   3  698.03   18.14
  -5  -6  -3  721.23   20.56
  -5   6  -3  720.88   16.45
   5   6   4  317.52   12.47
   5  -6   4  299.12    9.28
   5  -6   4  313.92   10.23
  -5   6  -4  323.55    9.39
  -5  -6  -4  328.40   12.99
   5  -6   5  851.06   18.90
   5  -6   5  872.74   19.32
  -5  -6  -5  833.38   23.60
  -5   6  -5  853.35   18.80
   5  -6   6  673.28   16.10
   5  -6   6  677.15   19.28
   5  -6   6  704.42   15.34
  -5  -6  -6  675.50   20.88
  -5   6  -6  673.79   16.02
   5  -6   7   21.69    2.41
   5  -6   7   30.18    4.05
   5  -6   7   25.61    1.81
  -5   6  -7   24.06    2.64
  -5  -6  -7   27.80    4.28
   5  -6   8   -0.78    2.32
   5  -6   8    2.49    1.25
  -5  -6  -8    2.40    2.73
  -5   6  -8    2.34    1.60
   5  -6   9  245.99   12.21
   5  -6   9  273.81    9.36
  -5  -6  -9  275.88   13.33
   5  -6  10   20.13    3.66
   5  -6  10   33.70    3.35
  -5  -6 -10   21.90    4.43
   5  -6  11   18.63    4.05
   5   6  11   25.55    3.78
  -5  -6 -11   19.83    4.27
   5  -6  12   99.52    8.71
   5   6  12  117.08    7.94
   5  -6  13   23.42    4.57
   5   6  13   41.43    4.88
   5   6  14    0.92    2.24
   5  -6  14   -1.28    3.31
   5  -6  15  147.06   11.89
  -5  -7  18    0.17    3.52
  -5  -7  17  156.35   11.51
  -5  -7  16    4.32    3.84
  -5  -7  15  601.52   22.55
  -5   7  15  638.44   20.75
  -5   7  14    0.44    2.10
  -5  -7  14    0.24    2.92
  -5  -7  13  381.98   16.44
  -5   7  13  394.82   14.49
  -5   7  12   74.53    5.87
  -5  -7  12   56.74    6.15
  -5  -7  11  390.58   15.66
  -5  -7  10  279.93   12.78
  -5  -7   9  174.60    9.76
   5   7  -9  172.40    9.27
  -5  -7   8   25.38    3.94
   5   7  -8   19.31    3.24
  -5  -7   7  501.20   17.01
   5   7  -7  550.10   16.65
  -5  -7   6   66.47    5.64
  -5   7   6   66.08    5.70
   5   7  -6   71.51    5.71
  -5  -7   5 1410.06   33.59
  -5   7   5 1465.57   33.47
  -5  -7   4    0.00    2.19
   5  -7  -4    9.06    2.50
   5   7  -4    5.42    1.97
  -5   7   4    3.06    2.03
   5   7  -3  881.30   22.90
  -5  -7   3  834.79   22.34
   5  -7  -3  848.24   24.03
  -5   7   3  856.92   16.44
  -5   7   3  861.12   21.38
  -5   7   2  164.56    7.40
   5   7  -2  169.77    8.58
  -5  -7   2  166.22    8.47
   5  -7  -2  148.42    8.65
  -5   7   2  166.19    5.05
  -5  -7   1 2900.07   57.93
   5   7  -1 3073.80   58.56
  -5   7   1 3023.17   54.90
   5  -7  -1 2841.08   58.46
  -5   7   1 2964.60   51.53
  -5   7   0   11.71    2.08
  -5  -7   0   10.93    2.90
   5   7   0   19.03    3.18
  -5   7   0   14.27    1.79
   5  -7   0   18.22    3.06
   5   7   1  382.11   13.55
  -5   7  -1  358.24   10.49
  -5   7  -1  363.43   10.48
   5  -7   1  354.54   12.68
  -5  -7  -1  380.64   13.68
  -5  -7  -2    3.21    2.58
  -5   7  -2    0.41    1.19
   5   7   2    2.21    1.70
   5  -7   2    5.87    1.82
   5   7   3    8.00    2.50
  -5   7  -3   13.25    1.87
   5  -7   3   10.13    1.89
  -5  -7  -3   15.99    3.28
   5  -7   4  208.07    7.00
   5  -7   4  211.32    8.07
  -5   7  -4  216.06    7.01
  -5  -7  -4  207.39   10.42
   5  -7   5   43.96    2.99
   5  -7   5   45.38    3.32
  -5   7  -5   40.52    2.91
  -5  -7  -5   38.73    4.99
   5  -7   6    3.86    1.42
   5  -7   6    3.62    0.96
  -5   7  -6    1.25    1.17
  -5  -7  -6    5.26    2.87
   5  -7   7  424.81   11.13
  -5   7  -7  419.24   11.06
  -5  -7  -7  397.82   15.95
   5  -7   8   68.25    6.16
   5  -7   8   68.32    3.92
  -5  -7  -8   69.19    6.65
   5  -7   9  644.46   21.56
   5  -7   9  706.56   16.48
  -5  -7  -9  683.07   22.95
   5  -7  10    0.66    2.43
  -5  -7 -10    2.43    2.88
   5  -7  11  428.89   18.32
   5   7  11  463.17   17.07
  -5  -7 -11  464.46   19.16
   5  -7  12   70.53    7.54
   5   7  12   77.90    6.82
   5  -7  13   23.63    4.55
   5   7  13   18.93    3.63
   5   7  14   28.57    4.24
   5  -7  14   39.65    6.29
   5  -7  15   -6.83    4.74
  -5  -8  17   39.32    6.19
  -5  -8  16   23.09    4.96
  -5  -8  15    2.15    3.13
  -5   8  14    8.90    2.91
  -5  -8  14   -1.97    3.11
  -5  -8  13    4.18    2.62
  -5   8  13    7.39    3.19
  -5  -8  12   26.00    4.45
  -5  -8  11    3.78    2.88
  -5  -8  10  304.48   13.40
  -5  -8   9  152.22    9.03
  -5  -8   8   19.87    3.58
   5   8  -8   27.78    3.80
  -5  -8   7   40.27    4.61
   5   8  -7   56.36    5.09
  -5  -8   6  624.85   19.07
  -5  -8   5  109.71    7.13
   5   8  -5  129.19    7.80
  -5   8   5  120.69    7.32
  -5  -8   4   50.23    4.87
   5  -8  -4   43.07    4.94
   5   8  -4   46.50    4.52
  -5   8   4   49.35    4.53
  -5  -8   3    1.93    2.21
   5  -8  -3    5.80    1.99
   5   8  -3    4.90    2.06
  -5   8   3    4.69    2.14
   5   8  -2    3.32    2.21
  -5   8   2   -0.32    0.96
  -5   8   2    2.01    1.66
   5  -8  -2    1.96    2.00
  -5   8   1  124.82    6.17
   5   8  -1  126.30    7.48
  -5   8   1  120.03    4.95
   5  -8  -1  126.05    7.57
  -5  -8   1  116.56    7.34
   5   8   0   19.81    3.17
  -5   8   0   18.79    2.58
  -5  -8   0   12.48    3.01
  -5   8   0   20.51    2.26
   5  -8   0   15.89    2.95
   5   8   1  388.04   13.83
  -5   8  -1  356.15   10.37
  -5   8  -1  354.83   10.74
   5  -8   1  356.12   12.77
  -5  -8  -1  359.14   13.62
  -5   8  -2  153.69    5.89
  -5   8  -2  144.38    6.75
   5  -8   2  163.30    7.85
  -5  -8  -2  162.64    8.94
   5  -8   3  562.11   15.89
  -5  -8  -3  582.20   18.73
  -5   8  -3  581.16   13.39
   5  -8   4  228.99    8.59
  -5   8  -4  228.44    6.94
  -5  -8  -4  233.80   11.29
   5  -8   5  320.33    9.80
  -5   8  -5  318.97    8.45
  -5  -8  -5  318.65   13.65
   5  -8   6   11.53    1.50
  -5   8  -6    6.26    1.35
   5  -8   6   11.25    1.64
  -5  -8  -6    8.04    2.87
   5  -8   7  340.71    8.97
  -5  -8  -7  332.95   14.62
   5  -8   8   39.28    2.72
  -5  -8  -8   43.64    5.69
  -5  -8  -9   27.04    4.92
  -5  -8 -10   26.83    4.92
   5   8  11   41.96    5.34
  -5  -8 -11   46.42    6.40
   5   8  12   37.53    5.29
   5   8  13  108.65    8.49
   5   8  14   66.04    6.78
  -5  -9  17  329.26   16.65
  -5  -9  16   10.76    3.87
  -5  -9  15   43.73    6.12
  -5  -9  14   10.98    3.35
  -5   9  14   12.30    3.52
  -5  -9  13  143.59    9.79
  -5  -9  12   12.23    3.60
  -5  -9  11    4.87    2.98
  -5  -9  10   18.90    3.64
  -5  -9   9  299.98   13.11
  -5  -9   8   10.90    3.27
  -5  -9   7 1265.08   31.22
  -5  -9   6   75.76    6.17
  -5  -9   5   98.42    6.86
   5   9  -4  348.46   13.44
  -5  -9   4  327.42   12.91
  -5   9   4  329.56   12.22
   5   9  -3  910.22   23.90
  -5  -9   3  848.21   23.40
  -5   9   3  862.06   21.82
   5  -9  -3  877.31   25.19
   5   9  -2  145.56    8.30
  -5   9   2  143.71    6.95
   5  -9  -2  136.01    8.44
  -5  -9   2  155.27    8.50
  -5   9   1  389.33   11.92
   5   9  -1  395.11   14.45
  -5   9   1  399.27   11.00
   5  -9  -1  405.99   14.84
  -5  -9   1  396.63   14.41
  -5   9   0  155.75    6.48
  -5   9   0  150.23    6.38
   5  -9   0  158.79    8.59
  -5  -9   0  129.12    7.90
  -5   9  -1  381.70   10.73
  -5   9  -1  378.32   11.67
   5  -9   1  399.00   13.81
  -5  -9  -1  402.86   14.76
  -5   9  -2    8.23    1.46
  -5   9  -2    9.25    2.17
   5  -9   2    8.94    2.04
  -5  -9  -2    4.53    2.76
  -5   9  -3  237.86    9.79
   5  -9   3  242.34    9.61
  -5  -9  -3  232.79   11.38
  -5   9  -3  251.56    7.18
  -5   9  -4  560.82   17.03
   5  -9   4  550.16   15.15
  -5  -9  -4  553.68   18.85
  -5   9  -4  565.82   12.20
  -5  -9  -5    2.42    2.74
   5  -9   5    5.50    1.59
  -5   9  -5    5.15    1.02
  -5  -9  -6  188.71   10.78
  -5  -9  -7  198.25   11.30
  -5  -9  -8  557.29   20.48
  -5  -9  -9  693.93   24.05
  -5  -9 -10  150.14   10.71
   5   9  11  277.81   13.86
  -5  -9 -11  303.57   15.74
   5   9  12   -0.76    2.87
   5   9  13  318.29   15.30
   5   9  14   23.46    4.43
  -5 -10  16   12.95    3.88
  -5 -10  15    4.70    3.83
  -5 -10  14   30.02    5.10
  -5 -10  13   35.15    5.38
  -5 -10  12  347.98   15.21
  -5 -10  11   75.83    7.02
  -5 -10  10  147.26    9.26
  -5 -10   9   53.24    5.58
  -5 -10   8   48.68    5.21
  -5  10   8   47.36    6.25
  -5 -10   7   89.21    6.86
  -5  10   7   91.61    8.15
  -5 -10   6   39.96    4.62
  -5  10   6   34.22    5.02
  -5 -10   5    1.96    2.14
  -5  10   5    2.39    2.52
  -5 -10   4  244.69   11.19
  -5  10   4  243.00   12.28
  -5  10   4  251.54   10.59
  -5  10   3    8.36    2.97
  -5  10   3    5.47    2.02
  -5 -10   2   30.30    4.02
   5 -10  -2   27.84    3.82
  -5  10   2   37.36    4.85
  -5  10   2   29.53    3.35
  -5 -10   1    1.22    2.47
   5 -10  -1   -0.19    1.81
  -5  10   1    1.01    1.38
  -5  10   1    0.74    1.48
  -5 -10   0    3.10    2.47
  -5  10   0    4.49    1.53
  -5  10   0    4.45    1.57
   5 -10   0    3.81    1.66
  -5  10  -1   30.72    3.21
  -5  10  -1   32.21    2.82
  -5 -10  -1   29.85    4.22
   5 -10   1   32.38    3.91
  -5  10  -2   42.49    3.97
  -5  10  -2   42.61    2.82
   5 -10   2   44.75    4.26
  -5 -10  -2   42.40    4.96
  -5  10  -3   94.25    6.30
   5 -10   3   88.95    5.77
  -5 -10  -3  106.50    7.63
  -5  10  -3   92.37    3.69
  -5  10  -4  412.32   14.53
   5 -10   4  412.48   12.75
  -5  10  -4  408.36    8.71
  -5 -10  -4  405.59   16.11
  -5  10  -5   24.17    3.54
  -5 -10  -5   22.69    4.32
  -5 -10  -6  375.88   16.01
  -5 -10  -7   19.44    4.52
  -5 -10  -8   73.72    7.36
  -5 -10  -9   -4.06    3.74
  -5 -10 -10   36.59    5.94
   5  10  11   37.46    5.66
   5  10  12   26.22    5.14
   5  10  13   66.69    7.48
   5  10  14   77.43    8.12
   5  10  15    8.48    3.84
  -5 -11  15   38.99    5.81
  -5 -11  14  250.40   13.49
  -5 -11  13   -1.82    2.77
  -5 -11  12  108.63    8.40
  -5 -11  11  217.78   11.70
  -5 -11  10   -0.96    2.54
  -5  11  10    1.45    3.26
  -5 -11   9  282.69   12.95
  -5  11   9  277.85   15.23
  -5 -11   8   15.13    3.16
  -5  11   8   11.70    3.79
  -5 -11   7   23.75    3.74
  -5  11   7   30.61    5.65
  -5 -11   6 1368.32   33.30
  -5  11   6 1365.04   36.90
  -5 -11   5   39.15    4.56
  -5  11   5   42.81    5.59
  -5 -11   4  650.88   20.10
  -5  11   4  631.82   21.96
  -5  11   4  690.55   19.35
  -5 -11   3   16.85    3.42
  -5  11   3   14.38    2.80
  -5  11   3   16.68    3.44
  -5  11   2 1301.92   28.30
  -5  11   2 1234.12   32.44
  -5 -11   2 1241.71   31.33
  -5  11   1   91.55    5.26
  -5  11   1   85.58    5.21
   5 -11  -1   88.42    6.82
  -5  11   1   84.55    6.85
  -5 -11   1   92.51    6.96
  -5  11   0  227.73    8.00
  -5  11   0  217.41    8.82
  -5  11   0  235.48   11.11
   5 -11   0  238.22   11.05
  -5 -11   0  234.18   11.32
  -5  11  -1   39.76    3.87
  -5  11  -1   40.08    2.97
   5 -11   1   45.80    4.70
  -5 -11  -1   27.94    4.21
  -5  11  -2   32.51    3.64
  -5  11  -2   38.89    2.52
   5 -11   2   39.58    4.26
  -5 -11  -2   41.56    5.09
  -5  11  -3  155.38    8.14
  -5 -11  -3  159.55    9.81
  -5  11  -3  157.18    4.53
  -5  11  -4  222.84   10.34
  -5 -11  -4  218.10   11.71
  -5  11  -5   53.26    5.44
  -5 -11  -5   47.46    5.89
  -5 -11  -6    0.35    3.13
  -5 -11  -7   15.90    4.11
  -5 -11  -8  650.35   23.42
  -5 -11  -9   -0.08    3.09
  -5 -11 -10  414.40   19.08
   5  11  11   43.22    6.27
   5  11  12  347.09   16.94
   5  11  13    3.38    3.33
   5  11  14   59.94    7.54
   5  11  15   10.48    4.45
  -5 -12  14   26.85    4.94
  -5 -12  13    2.05    2.97
  -5 -12  12   97.32    8.13
  -5 -12  11  175.42   10.59
  -5  12  11  185.37   13.20
  -5 -12  10  733.76   23.24
  -5  12  10  793.05   28.26
  -5 -12   9    4.06    2.45
  -5  12   9    3.85    3.14
  -5 -12   8    2.53    2.78
  -5  12   8    3.66    3.09
  -5 -12   7   12.37    2.91
  -5  12   7    5.70    2.95
  -5 -12   6  122.42    8.07
  -5  12   6  143.71   10.47
  -5 -12   5    3.77    2.31
  -5  12   5    7.43    3.66
  -5 -12   4    8.32    2.63
  -5  12   4   11.07    2.56
  -5 -12   3    5.89    2.66
  -5  12   3    9.53    3.47
  -5  12   3    4.21    2.24
  -5 -12   2   34.55    4.54
  -5  12   2   25.46    4.14
  -5  12   2   27.66    3.35
  -5 -12   1   46.29    5.12
  -5  12   1   60.42    4.27
  -5  12   1   53.95    5.77
  -5  12   0  130.20    5.78
  -5  12   0  120.88    6.77
  -5  12   0  125.30    8.27
   5 -12   0  108.09    7.57
  -5 -12   0  121.59    8.33
  -5  12  -1  191.66    6.55
  -5  12  -1  193.53    8.99
  -5  12  -1  203.28   10.26
   5 -12   1  194.00    9.90
  -5 -12  -1  189.63   10.69
  -5  12  -2  211.59    9.65
  -5  12  -2  209.30    5.97
  -5 -12  -2  199.16   10.98
  -5  12  -3  112.62    7.24
  -5 -12  -3  104.19    8.20
  -5  12  -4   18.85    3.18
  -5 -12  -4   18.63    4.05
  -5 -12  -5    3.25    2.99
  -5 -12  -6   46.39    6.20
  -5 -12  -7  260.65   14.05
  -5 -12  -8   11.82    4.34
  -5 -12  -9   20.59    4.76
  -5 -12 -10   19.51    4.77
   5  12  11   -0.15    2.89
   5  12  12  212.41   13.42
   5  12  13   18.30    4.29
   5  12  14   -2.46    3.11
  -5 -13  13  163.41   10.69
  -5 -13  12    1.66    2.88
  -5  13  12    9.31    4.25
  -5 -13  11   60.04    6.36
  -5  13  11   61.56    7.64
  -5 -13  10   10.77    3.61
  -5  13  10    5.78    3.75
  -5 -13   9    8.25    3.21
  -5  13   9   12.09    4.12
  -5 -13   8   -0.11    2.37
  -5  13   8    0.99    3.14
  -5 -13   7   42.56    5.07
  -5  13   7   33.82    5.55
  -5 -13   6   44.36    5.17
  -5  13   6   43.79    6.21
  -5  13   5  578.85   22.12
  -5 -13   5  591.54   19.51
  -5  13   4 1180.25   28.39
  -5  13   4 1132.24   32.83
  -5 -13   4 1112.54   29.78
  -5  13   3  143.59    7.64
  -5  13   3  153.61   10.31
  -5 -13   3  140.38    8.91
  -5 -13   2   55.07    5.76
  -5  13   2   55.90    4.52
  -5  13   2   42.23    5.47
  -5  13   1   24.21    2.84
  -5  13   1   24.17    4.25
  -5 -13   1   29.08    4.36
  -5  13   0  288.49    9.08
  -5  13   0  289.62   11.28
  -5  13   0  265.67   12.84
  -5 -13   0  280.02   13.24
  -5  13  -1   30.62    2.43
  -5  13  -1   23.88    3.43
  -5  13  -1   28.48    4.31
  -5 -13  -1   25.33    4.49
  -5  13  -1   33.81    2.61
  -5  13  -2   11.07    1.26
  -5  13  -2   13.89    2.83
  -5  13  -2   16.67    3.32
  -5  13  -2   13.36    1.26
  -5 -13  -2   16.25    4.12
  -5  13  -3    4.54    2.44
  -5 -13  -3   -0.43    2.81
  -5 -13  -4    2.59    3.13
  -5 -13  -5   -0.45    3.00
  -5 -13  -6  269.23   14.33
  -5 -13  -7    7.40    4.27
  -5 -13  -8  225.89   13.64
  -5 -13  -9  162.53   11.96
   5  13  10   80.83    8.56
  -5 -13 -10   67.00    8.18
   5  13  11   -0.61    2.68
   5  13  12    4.35    2.98
   5  13  13   -2.90    3.67
  -5 -14  11   31.03    4.59
  -5  14  11   20.10    4.95
  -5 -14  10    1.95    2.51
  -5  14  10   -3.92    3.92
  -5 -14   9   88.83    7.27
  -5  14   9   78.19    8.60
  -5 -14   8   66.92    6.35
  -5  14   8   67.77    8.15
  -5 -14   7    0.49    2.22
  -5  14   7    5.71    4.32
  -5 -14   6    6.31    2.69
  -5  14   6    7.79    3.44
  -5  14   5  252.58   14.46
  -5 -14   5  279.05   12.78
  -5 -14   4   20.95    3.96
  -5  14   4   30.04    4.25
  -5  14   4   17.47    4.73
  -5  14   3  303.42   11.50
  -5  14   3  279.96   14.59
  -5 -14   3  283.26   13.32
  -5  14   2    7.79    2.45
  -5  14   2    7.62    3.54
  -5 -14   2   14.00    3.76
  -5  14   2    6.70    2.30
  -5  14   1   12.97    2.35
  -5  14   1    7.13    2.39
  -5 -14   1   10.75    3.30
  -5  14   0   58.63    3.76
  -5  14   0   54.38    5.08
  -5  14   0   51.48    5.83
  -5 -14   0   59.35    6.19
  -5  14  -1  543.97   12.12
  -5  14  -1  512.37   17.09
  -5  14  -1  548.61   19.25
  -5 -14  -1  493.33   18.93
  -5  14  -2   72.54    6.39
  -5 -14  -2   74.31    7.22
  -5 -14  -3  139.50    9.86
  -5 -14  -4    7.00    3.55
  -5 -14  -5  278.58   14.53
  -5 -14  -6   49.33    6.45
  -5 -14  -7   41.49    6.13
  -5 -14  -8   75.85    8.29
  -5 -14  -9   67.25    8.30
   5  14  10   11.87    3.46
   5  14  11  168.64   12.49
  -5 -15  10   34.92    4.98
  -5 -15   9    1.95    2.54
  -5  15   9    5.38    3.47
  -5 -15   8   23.98    4.25
  -5  15   8   28.20    5.80
  -5  15   7   98.75    9.69
  -5 -15   7  105.03    7.95
  -5 -15   6   27.59    4.53
  -5  15   6   14.96    4.30
  -5 -15   5   53.42    5.88
  -5  15   5   46.00    6.68
  -5 -15   4    9.90    3.36
  -5  15   4    8.34    2.47
  -5  15   4   10.46    3.85
  -5  15   3  203.71    9.18
  -5  15   3  168.18   11.68
  -5 -15   3  186.57   10.81
  -5  15   2   80.11    5.34
  -5  15   2   75.75    7.51
  -5 -15   2   81.13    7.18
  -5  15   1  425.17   12.35
  -5  15   1  407.69   17.55
  -5 -15   1  380.48   16.25
  -5  15   0    4.35    2.53
  -5 -15   0    1.86    2.60
  -5  15  -1  218.64   11.87
  -5 -15  -1  207.93   11.95
  -5  15  -2   41.58    5.11
  -5 -15  -2   42.11    5.91
  -5  15  -3    0.90    1.95
  -5 -15  -3    7.28    3.42
  -5 -15  -4   33.68    5.64
  -5 -15  -5    8.29    4.29
  -5 -15  -6   40.54    6.23
  -5 -15  -7  319.68   16.88
  -5 -15  -8   32.46    6.01
   5  15   9  362.93   18.69
  -5 -15  -9  359.05   18.71
  -5 -16   8   32.24    4.70
  -5  16   8   21.33    4.91
  -5  16   7  389.93   19.62
  -5 -16   7  367.73   15.56
  -5 -16   6    3.89    2.37
  -5  16   6   12.76    4.72
  -5  16   5   40.89    6.52
  -5 -16   5   38.17    5.13
  -5  16   4   -2.09    2.42
  -5  16   4   -0.36    3.55
  -5 -16   4    3.52    2.76
  -5  16   3   16.38    2.96
  -5  16   3   20.91    4.84
  -5 -16   3   21.49    4.19
  -5  16   2   28.01    5.23
  -5 -16   2   27.72    4.69
  -5  16   1  461.52   19.29
  -5 -16   1  450.14   18.12
  -5  16   0    3.95    2.51
  -5 -16   0   -0.16    3.21
  -5  16  -1  162.03   10.52
  -5 -16  -1  168.42   10.98
  -5  16  -2   70.84    6.78
  -5 -16  -2   49.62    6.57
  -5  16  -3  570.14   19.62
  -5 -16  -3  545.03   21.33
  -5 -16  -4   43.92    6.30
  -5 -16  -5   16.05    4.56
  -5 -16  -6    2.79    3.58
  -5 -16  -7   78.34    9.04
  -5 -16  -8    5.89    4.72
  -5 -17   7   12.94    3.35
  -5  17   7    7.85    4.19
  -5  17   6  239.69   15.25
  -5 -17   6  227.07   12.28
  -5  17   5   61.28    8.06
  -5 -17   5   65.54    6.58
  -5  17   4   21.03    4.78
  -5 -17   4   15.55    3.86
  -5  17   3   25.36    5.14
  -5 -17   3   29.47    4.78
  -5  17   2  747.98   26.90
  -5 -17   2  771.56   24.92
  -5  17   1    4.74    3.52
  -5 -17   1    0.70    3.33
  -5  17   0   14.49    4.04
  -5 -17   0    8.11    3.41
  -5  17  -1   20.46    4.58
  -5 -17  -1   11.43    3.86
  -5  17  -2   14.33    3.75
  -5 -17  -2   17.44    4.74
  -5  17  -3    3.49    2.48
  -5 -17  -3   -6.11    3.62
  -5 -17  -4  149.03   11.15
  -5 -17  -5    9.75    4.47
  -5 -17  -6   -7.87    4.08
  -5  18   5   92.99    9.79
  -5 -18   5   87.60    7.75
  -5  18   4   -3.35    3.30
  -5 -18   4    0.63    2.77
  -5  18   3   43.96    7.21
  -5 -18   3   36.14    5.50
  -5  18   2   60.00    7.61
  -5 -18   2   61.20    6.85
  -5  18   1   83.89    8.77
  -5 -18   1   76.38    7.92
  -5  18   0    0.08    2.92
  -5 -18   0    4.99    3.86
  -5  18  -1   62.09    7.15
  -5 -18  -1   81.84    8.28
  -5  18  -2    5.23    2.99
  -5 -18  -2    9.44    4.18
  -5 -18  -3   42.72    6.48
  -5 -18  -4  357.00   17.87
  -5 -18  -5  192.75   13.32
  -5  19   4  134.29   11.76
  -5  19   3    4.80    4.21
  -5 -19   3    5.07    3.36
  -5  19   2   55.60    7.48
  -5 -19   2   66.56    7.29
  -5  19   1   -2.70    3.88
  -5 -19   1    5.46    3.51
  -5  19   0  537.85   22.35
  -5 -19   0  544.96   21.57
  -5  19  -1   33.73    5.98
  -5 -19  -1   25.10    5.09
  -5  19  -2    4.91    3.53
  -5 -19  -2    6.16    3.68
  -5 -19  -3   88.45    8.87
  -5 -19  -4    0.02    3.29
  -5  20   2   21.34    5.08
  -5  20   1   42.56    6.84
  -5 -20   1   37.64    6.13
  -5  20   0  150.16   11.69
  -5 -20   0  145.69   10.94
  -5  20  -1   32.74    5.91
  -5 -20  -1   28.28    5.34
  -5 -20  -2   38.28    6.23
  -5 -20  -3   15.53    4.37
  -6   0  16  155.71   12.03
  -6   0  15   -5.10    3.66
  -6   0  14  244.24   14.14
  -6   0  13    1.19    3.07
  -6   0  12 1108.17   32.06
  -6   0  11    4.89    3.14
  -6   0  10    6.50    2.62
  -6   0   9   -3.58    2.96
  -6   0   8  533.91   18.30
  -6   0   7    3.23    2.70
  -6   0   6  121.94    7.75
  -6   0   5   -3.02    2.49
  -6   0   4  128.62    7.51
   6   0  -3   -0.64    0.55
   6   0  -3   -0.21    1.94
  -6   0   3   -0.99    2.56
   6   0  -2  142.49    7.68
  -6   0   2  138.18    7.56
   6   0  -1   -0.80    1.58
  -6   0   1    2.43    2.32
   6   0   0 1682.76   36.25
  -6   0   0 1670.23   35.88
   6   0   1    0.35    1.68
  -6   0  -1    0.18    1.86
   6   0   2  382.57   13.12
  -6   0  -2  374.30   12.98
   6   0   3   -0.50    1.71
  -6   0  -3    0.98    1.97
  -6   0  -4   42.15    4.35
   6   0   4   36.51    3.99
   6   0   5    0.88    1.59
  -6   0  -5   -1.14    2.13
   6   0   6  183.45    9.07
  -6   0  -6  192.32    9.30
   6   0   7   -1.03    1.60
  -6   0  -7   -2.73    2.42
  -6   0  -8    1.88    2.48
  -6   0  -9   -2.32    2.29
  -6   0 -10  676.79   21.18
   6   0  11   -1.02    2.90
  -6   0 -11    1.22    2.49
   6   0  12   15.51    4.60
   6   0  13    3.01    3.96
   6   0  14  612.51   24.82
   6   0  15    2.64    3.46
  -6  -1  16  136.83   11.17
  -6   1  16  137.04   11.11
  -6  -1  15   23.87    5.30
  -6   1  15   22.10    5.28
  -6  -1  14    6.73    3.59
  -6   1  14   11.14    3.92
  -6  -1  13   23.85    5.05
  -6   1  13   27.75    5.13
  -6  -1  12    4.46    3.05
  -6   1  12   -2.56    3.45
  -6  -1  11   59.82    6.38
  -6   1  11   62.31    6.50
  -6  -1  10   34.18    5.34
  -6   1  10   26.51    4.38
  -6  -1   9    3.15    2.76
  -6   1   9    3.37    2.50
  -6  -1   8  167.56    9.68
  -6   1   8  184.54   10.26
  -6  -1   7   11.52    3.07
  -6   1   7   13.42    3.31
  -6   1   6  372.87   14.15
  -6  -1   6  373.74   14.21
  -6   1   5   19.35    3.26
   6   1  -5   18.52    1.72
  -6  -1   5   14.56    3.10
   6   1  -4  272.39    7.01
   6   1  -4  253.61   11.18
  -6   1   4  253.11   10.89
  -6  -1   4  258.32   10.98
   6   1  -3  145.62    7.92
   6  -1  -3  140.39    7.70
  -6  -1   3  134.60    7.66
  -6   1   3  133.67    7.50
   6   1  -2  429.06   14.28
   6  -1  -2  405.22   13.80
  -6  -1   2  386.16   13.62
  -6   1   2  390.36   13.41
   6  -1  -1  136.04    7.30
  -6   1   1  139.94    7.36
   6   1  -1  128.35    7.35
  -6  -1   1  127.06    7.27
  -6  -1   0   96.39    6.23
   6   1   0   88.34    5.99
  -6   1   0   82.22    5.62
   6  -1   0   86.93    5.77
   6  -1   1   56.73    4.62
   6   1   1   63.70    5.14
  -6  -1  -1   66.45    5.24
  -6   1  -1   59.14    4.93
   6  -1   2   17.79    2.83
  -6  -1  -2   12.43    2.87
   6   1   2   21.01    3.05
  -6   1  -2   17.21    2.91
   6   1   3  181.85    8.78
   6  -1   3  181.90    8.46
  -6   1  -3  187.70    8.55
  -6  -1  -3  180.96    8.84
   6  -1   4    8.59    2.01
   6   1   4   12.36    2.44
  -6  -1  -4   10.26    2.76
  -6   1  -4    5.96    2.20
   6   1   5    4.29    1.87
   6  -1   5    1.31    1.70
  -6  -1  -5   -1.86    2.31
  -6   1  -5   -0.10    1.88
   6  -1   6  823.53   21.95
   6   1   6  817.04   22.54
  -6  -1  -6  863.09   23.03
  -6   1  -6  820.16   21.90
   6  -1   7   49.69    4.91
  -6   1  -7   54.52    5.05
  -6  -1  -7   51.78    5.14
   6  -1   8 1115.45   30.35
   6  -1   8 1161.59   28.50
  -6   1  -8 1176.25   28.56
  -6  -1  -8 1168.85   29.51
   6  -1   9  565.13   20.13
  -6   1  -9  579.55   18.30
  -6  -1  -9  576.28   19.06
   6  -1  10  345.46   15.81
  -6   1 -10  335.37   13.77
  -6  -1 -10  352.85   14.62
   6  -1  11   22.05    4.61
   6  -1  11   20.32    2.25
  -6   1 -11   23.02    4.10
  -6  -1 -11   19.59    4.06
   6  -1  12   89.72    8.59
   6  -1  13   34.16    5.86
   6   1  13   31.46    6.10
   6  -1  14   72.23    8.34
   6   1  14   65.20    8.01
   6   1  15   34.70    6.09
   6  -1  15   40.48    6.72
  -6  -2  16   41.11    6.77
  -6   2  16   30.92    5.92
  -6   2  15  104.41    9.58
  -6  -2  15   90.15    8.83
  -6  -2  14  331.58   16.43
  -6   2  14  319.78   16.51
  -6  -2  13  190.86   11.94
  -6   2  13  190.10   12.16
  -6  -2  12  122.62    9.29
  -6   2  12  112.53    9.08
  -6  -2  11  110.90    8.65
  -6   2  11  103.42    8.42
  -6  -2  10  881.26   26.31
  -6   2  10  892.84   26.76
  -6  -2   9  239.21   11.91
  -6   2   9  237.78   12.13
  -6  -2   8  671.73   21.18
  -6   2   8  669.76   21.23
  -6  -2   7   20.89    3.94
  -6   2   7   22.03    3.75
   6   2  -7   24.97    2.65
  -6   2   6  116.77    7.56
  -6  -2   6  122.17    7.82
   6   2  -6  128.16    5.45
  -6   2   5  171.40    8.98
  -6  -2   5  161.47    8.70
   6  -2  -5  175.26    9.83
   6   2  -5  172.83    9.23
   6   2  -5  181.08    6.21
   6   2  -4  286.98   11.87
  -6  -2   4  291.61   11.84
  -6   2   4  265.83   11.16
   6   2  -3    2.65    1.63
  -6  -2   3    5.04    2.21
  -6   2   3    5.18    2.40
   6  -2  -2  457.86   14.65
  -6   2   2  447.27   14.44
  -6  -2   2  437.80   14.85
   6   2  -2  475.20   15.37
   6  -2  -1  612.59   17.51
  -6  -2   1  585.20   17.71
  -6   2   1  585.02   16.97
   6   2  -1  640.94   18.31
   6  -2   0 1011.44   24.24
   6  -2   0  987.99   18.57
  -6   2   0  955.05   23.63
   6   2   0 1003.76   25.04
  -6  -2   0  964.67   24.52
   6  -2   1  296.35    8.26
   6  -2   1  293.17   10.89
  -6  -2  -1  275.87   11.23
  -6   2  -1  280.29   10.61
   6   2   1  300.73   11.57
   6  -2   2  823.13   19.08
  -6   2  -2  851.25   21.42
   6   2   2  898.75   22.91
   6  -2   2  875.17   21.69
  -6  -2  -2  869.74   22.73
   6  -2   3 1255.53   27.81
   6  -2   3 1352.41   29.68
   6   2   3 1386.56   31.21
  -6  -2  -3 1302.70   30.78
  -6   2  -3 1321.46   29.43
   6  -2   4   15.76    2.48
   6   2   4   17.85    3.20
  -6  -2  -4   17.06    3.33
  -6   2  -4   16.69    2.74
   6  -2   4   15.82    2.67
   6  -2   5  143.32    7.66
   6  -2   5  147.56    7.55
   6   2   5  144.90    8.16
  -6  -2  -5  152.12    8.49
  -6   2  -5  143.85    7.54
   6  -2   6    6.47    2.29
   6  -2   6    4.68    1.82
  -6  -2  -6    5.72    2.66
  -6   2  -6    3.64    2.06
   6  -2   7   13.37    3.18
   6  -2   7   16.44    3.03
  -6   2  -7   10.87    2.87
  -6  -2  -7    8.76    3.20
   6  -2   8  125.87    8.38
   6  -2   8  131.07    7.53
  -6   2  -8  110.75    6.95
  -6  -2  -8  115.08    7.94
   6  -2   9  120.99    8.61
   6  -2   9  114.58    7.22
  -6   2  -9  102.09    6.94
  -6  -2  -9  123.28    8.39
   6  -2  10   96.62    7.95
  -6   2 -10   91.24    6.72
  -6  -2 -10   88.15    7.35
   6  -2  11    3.57    3.09
  -6  -2 -11   -2.07    2.91
   6   2  12   66.26    4.93
   6  -2  12   50.99    6.87
   6  -2  13  193.63   12.74
   6  -2  14   11.54    4.28
   6  -2  15   69.14    8.26
   6   2  15   73.61    8.80
  -6  -3  16   -2.31    3.62
  -6  -3  15  247.77   14.49
  -6   3  15  279.08   15.61
  -6   3  14   61.22    7.32
  -6  -3  14   50.73    6.75
  -6  -3  13   57.99    6.84
  -6   3  13   50.70    6.44
  -6  -3  12   20.84    4.64
  -6   3  12   21.75    4.69
  -6  -3  11  419.88   17.08
  -6   3  11  402.33   17.27
  -6  -3  10   15.25    3.91
  -6   3  10   14.75    3.77
  -6  -3   9   10.51    3.53
  -6   3   9    6.46    2.55
  -6  -3   8   32.63    4.65
   6   3  -8   33.60    3.41
  -6   3   8   32.61    4.57
  -6  -3   7  383.62   14.79
  -6   3   7  382.69   15.06
   6   3  -7  416.09   12.12
  -6   3   6   84.75    6.52
  -6  -3   6   78.89    6.28
   6   3  -6   79.35    4.50
  -6  -3   5 1788.21   40.08
  -6   3   5 1796.94   39.76
   6   3  -5 1849.96   34.97
  -6  -3   4  316.24   12.56
  -6   3   4  325.95   12.40
   6  -3  -4  315.06   13.44
   6   3  -4  330.87   12.94
  -6  -3   3  719.09   20.76
  -6   3   3  724.03   20.21
   6  -3  -3  786.29   22.66
   6   3  -3  799.61   21.65
   6   3  -2  182.33    9.04
  -6   3   2  172.06    8.28
  -6  -3   2  171.84    8.85
   6  -3  -2  192.72    9.79
   6  -3  -1  614.24   17.58
  -6   3   1  643.03   17.64
  -6  -3   1  620.69   18.43
   6   3  -1  640.40   18.82
   6   3   0    7.40    2.28
   6  -3   0    6.28    1.87
  -6   3   0    8.90    2.37
  -6  -3   0    6.83    2.30
   6  -3   1   -0.02    0.81
   6  -3   1    1.04    1.70
  -6   3  -1    0.41    1.95
   6   3   1    4.31    1.97
  -6  -3  -1    2.78    2.10
   6  -3   2  339.50    9.86
  -6   3  -2  360.46   11.91
   6   3   2  356.98   13.05
   6  -3   2  349.76   11.86
  -6  -3  -2  341.28   12.95
   6  -3   3  176.50    7.24
   6   3   3  183.77    9.14
   6  -3   3  173.42    7.98
  -6   3  -3  180.50    8.09
  -6  -3  -3  176.98    9.09
   6  -3   4    0.55    1.38
   6  -3   4    1.85    1.56
  -6   3  -4    0.49    1.66
   6   3   4   -0.28    1.61
  -6  -3  -4   -0.98    2.16
   6  -3   5  171.10    8.23
   6  -3   5  164.59    7.95
  -6  -3  -5  187.45    9.65
  -6   3  -5  169.47    7.92
   6  -3   6  155.51    8.46
   6  -3   6  188.39    8.46
  -6  -3  -6  191.34    9.92
  -6   3  -6  175.55    8.22
   6  -3   7  222.48   10.77
   6  -3   7  254.29   10.26
  -6   3  -7  263.04   10.36
  -6  -3  -7  246.69   11.72
   6  -3   8   81.28    6.60
   6  -3   8   73.44    5.54
  -6   3  -8   82.39    5.80
  -6  -3  -8   78.19    6.63
   6  -3   9   43.76    5.30
   6  -3   9   42.58    4.34
  -6   3  -9   51.81    4.91
  -6  -3  -9   51.56    5.88
   6  -3  10   41.96    5.59
   6  -3  10   44.68    4.52
  -6  -3 -10   47.46    5.71
  -6   3 -10   40.75    4.44
   6  -3  11  331.11   15.81
  -6  -3 -11  343.47   15.55
   6  -3  12   28.61    5.30
   6   3  12   31.92    3.75
  -6  -3 -12   22.58    4.69
   6  -3  13   16.65    4.54
   6  -3  14   68.74    8.01
   6  -3  15    4.26    3.19
  -6  -4  16  145.19   11.20
  -6   4  15   61.81    7.50
  -6  -4  15   59.55    7.27
  -6   4  14   -2.10    4.07
  -6   4  14    1.84    1.96
  -6  -4  14   -0.60    3.14
  -6  -4  13  380.11   17.25
  -6   4  13  397.19   13.21
  -6   4  13  398.17   18.16
  -6  -4  12  165.23   10.77
  -6   4  12  168.16    7.56
  -6   4  12  159.75   11.00
  -6  -4  11  329.59   15.01
  -6   4  11  331.96   10.52
  -6   4  11  331.59   15.54
   6   4 -10   12.99    2.96
  -6  -4  10    9.82    3.42
  -6   4  10    9.75    3.42
  -6  -4   9  200.16   10.93
  -6   4   9  189.42   10.96
   6   4  -9  228.37    9.72
  -6  -4   8   -3.45    2.82
   6   4  -8    0.80    1.63
  -6   4   8    2.68    2.45
  -6  -4   7   81.57    6.47
   6   4  -7   83.92    5.16
  -6   4   7   84.73    6.85
  -6  -4   6  182.89    9.66
   6   4  -6  184.85    7.55
  -6   4   6  193.60    9.95
  -6  -4   5   39.98    4.61
  -6   4   5   41.52    4.58
  -6  -4   4   14.83    2.98
   6  -4  -4   16.34    3.24
  -6   4   4   17.21    3.06
  -6  -4   3  316.91   12.55
   6   4  -3  331.46   12.82
  -6   4   3  320.76   11.98
   6  -4  -3  322.39   13.53
  -6   4   2    7.46    2.41
  -6  -4   2    6.53    2.67
   6  -4  -2    7.52    2.44
   6   4  -2    8.91    2.40
  -6   4   1  497.29   15.14
  -6  -4   1  534.64   16.71
   6   4  -1  529.16   16.91
   6  -4  -1  495.06   16.90
   6   4   0  145.85    8.09
  -6   4   0  143.65    7.11
  -6  -4   0  140.07    7.99
   6  -4   0  125.35    6.79
   6  -4   0  135.90    7.97
   6   4   1 2128.26   44.21
  -6   4  -1 2116.99   41.42
   6  -4   1 2057.00   41.49
   6  -4   1 1961.47   43.18
  -6  -4  -1 2064.92   43.84
  -6   4  -2   23.33    3.11
   6   4   2   26.00    3.48
  -6  -4  -2   23.48    3.72
   6  -4   2   18.10    3.00
   6  -4   2   22.56    2.31
   6  -4   2   26.03    3.12
   6   4   3   19.07    3.31
  -6  -4  -3   23.48    3.48
  -6   4  -3   21.28    2.92
   6  -4   3   24.81    2.70
   6  -4   3   25.55    3.25
   6  -4   3   25.52    3.35
  -6   4  -4   29.58    3.28
   6  -4   4   32.30    3.39
   6  -4   4   29.36    3.32
   6  -4   4   22.41    2.95
  -6  -4  -4   27.53    4.03
   6  -4   5  395.63   12.63
   6  -4   5  390.45   13.03
   6  -4   5  369.77   12.13
  -6  -4  -5  371.66   14.55
  -6   4  -5  392.61   12.46
   6  -4   6  180.76    8.12
   6  -4   6  181.18    9.02
   6  -4   6  192.36    7.81
  -6  -4  -6  182.48    9.96
  -6   4  -6  193.40    8.32
   6  -4   7   41.27    3.93
   6  -4   7   41.47    4.60
   6  -4   7   46.96    3.51
  -6  -4  -7   52.11    5.71
  -6   4  -7   50.08    4.46
   6  -4   8  188.78    8.63
   6  -4   8  171.98    9.81
   6  -4   8  201.49    6.93
  -6   4  -8  194.42    8.78
  -6  -4  -8  199.51   10.82
   6  -4   9  725.88   20.14
   6  -4   9  678.04   22.66
   6  -4   9  779.41   15.63
  -6   4  -9  736.62   20.18
  -6  -4  -9  746.02   23.66
   6  -4  10   22.85    4.26
   6  -4  10   24.98    3.47
  -6  -4 -10   28.11    4.95
  -6   4 -10   18.27    3.21
   6  -4  11  486.80   19.67
  -6  -4 -11  507.05   19.74
   6  -4  12    9.87    4.18
   6   4  12   12.63    3.00
  -6  -4 -12    6.68    4.19
   6  -4  13  127.75   10.42
   6  -4  14   25.11    5.21
   6  -4  15  246.38   15.43
  -6  -5  16   20.17    4.80
  -6  -5  15   84.76    8.26
  -6   5  15  110.40   10.00
  -6   5  14   36.47    6.32
  -6  -5  14   24.89    4.80
  -6   5  13   19.84    4.87
  -6  -5  13   18.57    4.59
  -6   5  13   26.81    3.51
  -6   5  12   -5.89    4.44
  -6  -5  12    1.11    2.63
  -6   5  12   -1.73    1.57
  -6   5  11   -2.22    3.54
  -6  -5  11    4.83    2.84
  -6   5  11    2.54    1.46
   6   5 -11   -4.87    2.73
  -6  -5  10  134.02    9.16
  -6   5  10  140.44    5.83
  -6   5  10  156.24   10.19
   6   5 -10  158.92    8.72
  -6  -5   9  103.70    7.83
  -6   5   9  102.42    4.32
  -6   5   9   84.18    7.53
   6   5  -9  113.69    6.95
  -6  -5   8  253.98   12.17
   6   5  -8  271.66   10.61
  -6   5   8  262.34   12.52
  -6  -5   7  774.35   23.33
  -6   5   7  806.77   23.72
  -6  -5   6   30.31    4.29
   6   5  -6   32.14    3.34
  -6   5   6   38.93    4.73
  -6  -5   5  564.06   18.28
  -6   5   5  581.55   18.11
  -6  -5   4  983.28   25.98
  -6   5   4  999.98   25.25
   6  -5  -4 1011.11   27.76
  -6   5   3  702.46   19.61
  -6  -5   3  696.41   20.54
   6  -5  -3  754.82   22.36
  -6  -5   2    1.44    2.19
   6  -5  -2    2.17    1.79
  -6   5   2   -1.65    2.07
   6   5  -2   -2.10    2.04
   6   5  -1  517.99   16.98
  -6  -5   1  537.28   17.08
  -6   5   1  503.14   15.16
   6  -5  -1  528.70   17.47
  -6   5   0  277.93   10.33
  -6  -5   0  304.86   12.27
   6   5   0  305.72   12.22
   6  -5   0  272.22   11.69
   6   5   1   -0.48    1.85
  -6   5  -1   -0.60    1.74
  -6  -5  -1   -2.21    2.13
   6  -5   1    0.37    1.68
   6  -5   1   -1.43    1.56
  -6  -5  -2   66.67    5.86
  -6   5  -2   88.15    5.29
   6  -5   2   70.96    4.86
   6  -5   2   64.47    5.26
   6  -5   3   70.11    4.76
   6  -5   3   69.23    5.16
  -6  -5  -3   69.23    6.01
  -6   5  -3   75.25    4.89
  -6   5  -4    4.18    1.82
   6  -5   4   11.14    2.04
   6  -5   4    7.91    2.02
   6  -5   4    9.34    2.16
  -6  -5  -4    3.25    2.47
   6  -5   5  125.05    6.50
   6  -5   5  139.23    7.31
   6  -5   5  141.77    6.79
  -6  -5  -5  125.44    8.27
  -6   5  -5  147.28    6.90
   6  -5   6  347.25   11.56
   6  -5   6  364.22   13.12
   6  -5   6  360.07   11.08
  -6  -5  -6  364.01   14.74
  -6   5  -6  344.51   11.43
   6  -5   7   40.91    3.78
   6  -5   7   32.48    4.33
   6  -5   7   38.50    3.10
  -6   5  -7   33.66    3.53
  -6  -5  -7   31.83    4.93
   6  -5   8   68.17    4.95
   6  -5   8   73.66    6.36
   6  -5   8   64.03    3.36
  -6  -5  -8   62.71    6.54
  -6   5  -8   68.60    4.97
   6  -5   9   93.96    7.54
   6  -5   9   89.47    5.76
  -6   5  -9   92.99    5.95
  -6  -5  -9   86.85    7.77
   6  -5  10  835.18   26.31
   6  -5  10  883.77   22.54
  -6  -5 -10  908.96   27.59
   6  -5  11  136.83   10.03
  -6  -5 -11  164.15   11.01
   6  -5  12   17.41    4.14
   6   5  12   23.99    3.82
  -6  -5 -12   19.80    4.85
   6  -5  13   36.57    6.13
   6   5  13   42.52    4.76
   6  -5  14    3.71    3.60
  -6  -6  16   62.77    7.45
  -6  -6  15  250.78   14.36
  -6   6  15  258.17   15.50
  -6   6  14   63.79    7.88
  -6  -6  14   64.66    7.38
  -6   6  13    8.40    3.46
  -6  -6  13   18.97    4.28
  -6  -6  12  211.01   12.22
  -6   6  12  224.12    8.99
  -6   6  12  225.61   13.22
  -6  -6  11  163.60   10.34
  -6   6  11  158.89    6.93
  -6   6  11  152.60   10.59
  -6  -6  10  369.37   15.87
  -6   6  10  405.15   11.22
  -6   6  10  413.91   17.23
   6   6 -10  429.99   15.45
  -6  -6   9  238.99   11.97
  -6   6   9  221.20    6.94
   6   6  -9  229.76   10.46
  -6   6   9  234.15   12.35
  -6  -6   8  833.80   24.76
   6   6  -8  876.69   22.74
  -6   6   8  860.43   16.71
  -6   6   8  852.57   25.24
  -6  -6   7  266.69   12.27
   6   6  -7  289.45   10.97
  -6   6   7  276.13   12.56
  -6  -6   6   78.69    6.42
  -6   6   6   82.06    6.53
  -6  -6   5  593.36   19.16
  -6   6   5  622.18   19.02
  -6  -6   4   49.00    5.13
  -6   6   4   40.84    4.51
  -6   6   3  168.65    8.45
  -6  -6   3  181.73    9.47
   6  -6  -3  176.12    9.97
  -6   6   2  180.55    8.44
  -6  -6   2  180.78    9.50
   6  -6  -2  203.73   10.49
  -6  -6   1 1609.46   36.74
  -6   6   1 1643.53   34.20
   6  -6  -1 1550.64   37.08
  -6   6   0  351.32   11.59
   6  -6   0  327.80   13.22
  -6  -6   0  361.69   13.78
  -6  -6  -1   14.79    3.27
  -6   6  -1   10.65    2.26
   6  -6   1   12.10    2.84
  -6   6  -2  407.21   12.26
   6  -6   2  404.02   12.47
   6  -6   2  408.51   14.14
  -6  -6  -2  417.17   15.26
   6  -6   3  462.33   13.50
   6  -6   3  452.50   14.84
  -6  -6  -3  488.46   16.94
  -6   6  -3  490.95   13.61
   6  -6   4   76.16    4.83
   6  -6   4   69.82    4.96
  -6  -6  -4   79.75    6.65
  -6   6  -4   84.46    5.02
   6  -6   5   20.57    2.64
   6  -6   5   27.28    3.00
  -6  -6  -5   21.16    3.87
  -6   6  -5   22.06    2.71
   6  -6   6   73.45    4.68
   6  -6   6   66.53    5.41
   6  -6   6   78.70    4.58
  -6   6  -6   65.88    4.41
  -6  -6  -6   68.85    6.54
   6  -6   7    7.87    2.51
   6  -6   7    8.18    1.86
   6  -6   7    7.69    1.43
  -6   6  -7    9.79    2.31
  -6  -6  -7    5.00    2.77
   6  -6   8    4.47    1.93
   6  -6   8    4.62    2.28
   6  -6   8    4.75    1.06
  -6   6  -8    1.84    1.49
  -6  -6  -8    2.63    2.63
   6  -6   9  171.22   10.30
   6  -6   9  193.13    8.29
  -6   6  -9  187.94    8.20
  -6  -6  -9  206.53   11.99
   6  -6  10   10.74    3.15
  -6  -6 -10   15.40    4.33
   6  -6  11    7.06    3.39
  -6  -6 -11    2.41    3.60
   6  -6  12   31.27    5.07
   6   6  12   39.27    4.76
  -6  -6 -12   38.08    6.09
   6   6  13  121.64    8.44
   6  -6  13  117.46   10.11
   6  -6  14   63.71    7.82
  -6  -7  16  193.57   12.95
  -6  -7  15   17.01    4.15
  -6  -7  14   46.59    6.35
  -6  -7  13   36.13    5.58
  -6  -7  12   29.97    4.86
  -6  -7  11    5.96    2.98
  -6   7  11    4.72    3.29
  -6   7  11    5.12    1.87
  -6  -7  10   63.77    6.61
  -6   7  10   61.44    6.43
  -6   7  10   67.27    4.10
  -6  -7   9   40.51    5.29
   6   7  -9   37.97    4.60
  -6   7   9   27.56    4.63
  -6   7   9   38.29    2.84
  -6  -7   8  344.65   14.66
   6   7  -8  384.81   13.95
  -6   7   8  376.36    9.14
  -6   7   8  358.64   15.23
  -6  -7   7    9.08    2.84
  -6   7   7    8.66    0.97
   6   7  -7    2.47    1.68
  -6   7   7    6.53    2.96
  -6  -7   6  443.14   16.39
  -6   7   6  456.77   16.28
  -6  -7   5  152.47    9.04
  -6   7   5  164.74    9.04
  -6   7   4  237.94   10.63
  -6  -7   4  244.57   11.23
  -6  -7   3   48.88    5.17
  -6   7   3   50.53    4.57
  -6  -7   2 1162.42   29.70
  -6   7   2 1201.98   27.63
   6  -7  -2 1206.40   31.18
  -6   7   1   40.67    4.05
  -6  -7   1   33.88    4.39
   6  -7  -1   42.87    4.72
  -6  -7   0    2.35    2.51
  -6   7   0    0.99    1.48
   6  -7   0    2.26    1.80
  -6  -7  -1   35.80    4.63
  -6   7  -1   39.09    3.59
   6  -7   1   33.33    4.13
  -6   7  -2   68.07    4.48
  -6  -7  -2   65.38    5.75
   6  -7   2   67.87    5.54
  -6   7  -3    7.68    2.05
   6  -7   3    8.60    2.19
  -6  -7  -3    4.80    2.43
   6  -7   4  755.54   18.21
   6  -7   4  768.63   19.85
  -6   7  -4  750.52   17.92
  -6  -7  -4  724.21   22.69
   6  -7   5   39.23    3.34
   6  -7   5   40.63    3.60
  -6   7  -5   40.41    3.40
  -6  -7  -5   38.74    5.19
   6  -7   6  748.57   18.27
   6  -7   6  797.86   18.31
  -6   7  -6  759.98   18.16
  -6  -7  -6  777.96   24.18
   6  -7   7  102.03    5.39
   6  -7   7   97.08    4.48
  -6   7  -7   96.84    5.23
  -6  -7  -7   96.00    8.00
   6  -7   8  308.99   10.16
  -6   7  -8  304.38   10.02
  -6  -7  -8  273.55   13.94
   6  -7   9   24.27    4.38
  -6  -7  -9   29.76    5.13
   6  -7  10   85.43    7.61
  -6  -7 -10  107.52    9.12
   6  -7  11    2.63    2.78
  -6  -7 -11   -0.46    3.33
   6  -7  12  140.15   10.69
   6   7  12  158.37    9.99
  -6  -7 -12  165.78   11.80
   6  -7  13   15.34    4.46
   6   7  13   23.41    4.32
   6  -7  14  103.23    9.67
  -6  -8  16   65.37    7.45
  -6  -8  15   25.79    5.13
  -6  -8  14  112.49    9.37
  -6  -8  13   17.27    4.59
  -6  -8  12  158.83   10.61
  -6  -8  11  150.65   10.06
  -6   8  11  151.28    7.11
  -6  -8  10   47.98    5.70
  -6   8  10   43.68    6.06
  -6   8  10   42.19    3.49
  -6  -8   9   30.24    4.47
  -6   8   9   33.00    5.05
  -6   8   9   33.65    2.90
  -6  -8   8  139.01    9.12
  -6   8   8  142.57    5.39
  -6   8   8  138.13    9.28
  -6  -8   7   42.72    5.32
   6   8  -7   45.14    4.67
  -6   8   7   39.67    5.03
  -6  -8   6    0.38    2.32
  -6   8   6   -3.79    2.65
  -6  -8   5  114.94    7.92
  -6   8   5  123.04    3.27
  -6   8   5  128.50    7.89
  -6  -8   4  322.61   13.42
  -6   8   4  335.18   12.75
  -6   8   4  322.80    6.59
  -6  -8   3   53.19    5.45
  -6   8   3   53.37    4.83
  -6  -8   2  146.14    8.79
  -6   8   2  133.38    7.18
   6  -8  -2  132.72    8.72
  -6   8   1  379.60   12.38
   6  -8  -1  378.51   14.95
  -6  -8   1  351.74   14.15
  -6   8   0  599.91   16.16
   6  -8   0  586.51   19.13
  -6  -8   0  612.93   19.53
  -6   8  -1  160.62    7.10
   6  -8   1  143.29    8.39
  -6  -8  -1  161.54    9.34
  -6   8  -2  239.46    8.53
   6  -8   2  223.75   10.22
  -6  -8  -2  219.34   11.19
   6  -8   3  508.12   15.74
  -6   8  -3  499.01   13.24
  -6  -8  -3  473.19   17.56
   6  -8   4  111.27    6.39
  -6   8  -4  117.49    5.46
  -6  -8  -4  109.26    8.20
   6  -8   5   38.47    3.50
  -6  -8  -5   31.97    5.03
  -6   8  -5   33.73    2.92
   6  -8   6   31.85    2.77
   6  -8   6   29.55    2.78
  -6  -8  -6   33.73    5.27
  -6   8  -6   31.62    2.85
   6  -8   7    2.06    1.23
  -6   8  -7    4.91    1.51
   6  -8   7    3.77    1.03
  -6  -8  -7    4.99    3.04
  -6  -8  -8   -0.33    3.05
  -6  -8  -9   72.33    7.70
  -6  -8 -10  134.74   10.47
  -6  -8 -11    5.23    4.10
   6   8  12  136.97    9.62
  -6  -8 -12  135.00   10.89
   6   8  13   21.74    4.48
  -6  -9  16   21.54    4.62
  -6  -9  15    0.48    3.40
  -6  -9  14  154.96   11.03
  -6  -9  13    9.48    3.89
  -6  -9  12   11.75    3.43
  -6  -9  11   29.47    4.99
  -6  -9  10   10.88    3.35
  -6  -9   9   30.15    4.69
  -6   9   9   36.98    5.36
  -6  -9   8  463.70   17.58
  -6   9   8  459.24   17.80
  -6  -9   7   57.91    6.05
  -6   9   7   58.40    5.98
  -6  -9   6   89.52    7.16
  -6   9   6   81.61    6.68
  -6  -9   5  169.34    9.68
  -6   9   5  165.92    9.19
  -6  -9   4  265.29   12.38
  -6   9   4  303.46    7.45
  -6   9   4  275.72   11.78
  -6  -9   3   71.48    6.33
  -6   9   3   69.28    5.45
  -6   9   3   78.06    3.38
  -6  -9   2   17.37    3.57
  -6   9   2   21.05    3.13
  -6   9   2   19.45    1.97
  -6   9   1   81.00    5.27
  -6  -9   1   72.67    6.39
  -6   9   1   81.53    4.18
   6  -9  -1   76.92    6.56
  -6   9   0  660.12   16.91
  -6   9   0  614.33   15.46
   6  -9   0  634.35   20.10
  -6  -9   0  649.95   20.60
  -6   9  -1   60.94    4.23
  -6  -9  -1   59.43    5.98
   6  -9   1   57.18    5.31
  -6   9  -2  215.06    7.84
   6  -9   2  205.79    9.89
  -6  -9  -2  208.43   11.22
  -6   9  -3   29.46    2.83
   6  -9   3   30.24    3.67
  -6  -9  -3   29.11    4.53
   6  -9   4   12.60    2.54
  -6  -9  -4   10.01    3.63
  -6   9  -4   13.95    2.03
   6  -9   5  186.82    7.90
  -6  -9  -5  173.37   10.66
  -6   9  -5  186.53    6.43
   6  -9   6  279.78    9.15
  -6  -9  -6  278.36   13.92
  -6   9  -6  261.96    7.82
  -6  -9  -7   90.50    8.12
  -6  -9  -8   62.62    7.03
  -6  -9  -9  123.71   10.03
  -6  -9 -10  333.43   16.85
  -6  -9 -11    4.17    3.08
   6   9  12   -0.80    3.13
   6   9  13   -1.49    2.97
  -6 -10  16   -0.48    3.20
  -6 -10  15   32.91    5.13
  -6 -10  14  115.65    9.50
  -6 -10  13  271.58   14.44
  -6 -10  12    6.70    3.14
  -6 -10  11  214.11   12.28
  -6 -10  10  253.14   13.12
  -6 -10   9   35.55    5.05
  -6  10   8  457.12   17.93
  -6 -10   8  457.29   17.60
  -6  10   7    8.09    3.00
  -6 -10   7   10.00    3.05
  -6  10   6    3.86    2.64
  -6 -10   6    1.50    2.46
  -6  10   5   34.22    4.46
  -6 -10   5   19.85    3.83
  -6  10   4   72.13    3.61
  -6  10   4   62.00    5.53
  -6 -10   4   69.45    6.49
  -6  10   3  687.26   15.17
  -6  10   3  661.14   19.02
  -6 -10   3  627.49   20.85
  -6  10   2  139.44    5.68
  -6  10   2  148.42    7.52
  -6 -10   2  139.35    8.96
  -6  10   1    0.87    1.71
  -6  10   1    1.13    1.16
  -6 -10   1    0.71    2.29
  -6  10   0  131.20    6.50
  -6  10   0  139.01    6.43
   6 -10   0  135.89    8.50
  -6 -10   0  141.38    9.04
  -6  10  -1  501.42   13.55
  -6  10  -1  492.72   14.33
   6 -10   1  493.24   17.04
  -6 -10  -1  471.96   17.76
  -6  10  -2  117.31    5.41
   6 -10   2  115.35    7.30
  -6 -10  -2  110.45    8.30
  -6  10  -3   32.00    2.63
   6 -10   3   46.66    4.60
  -6 -10  -3   34.06    5.08
   6 -10   4  140.74    7.35
  -6 -10  -4  129.12    9.23
  -6  10  -4  139.08    5.25
   6 -10   5   57.53    4.40
  -6 -10  -5   57.42    6.76
  -6  10  -5   52.27    2.83
  -6 -10  -6   37.75    5.87
  -6  10  -6   27.53    1.92
  -6 -10  -7    3.18    3.18
  -6 -10  -8   24.67    5.22
  -6 -10  -9   14.97    4.39
  -6 -10 -10   23.73    5.28
  -6 -10 -11  147.62   11.57
   6  10  12   32.44    5.49
   6  10  13   24.19    5.31
   6  10  14   17.87    4.60
  -6 -11  15  285.29   15.53
  -6 -11  14    2.33    3.50
  -6 -11  13   35.50    5.72
  -6 -11  12   72.59    7.49
  -6 -11  11    6.59    3.49
  -6 -11  10   -1.88    2.76
  -6 -11   9  135.91    9.56
  -6  11   8   -0.96    2.68
  -6 -11   8   -0.47    2.77
  -6  11   7  135.36    9.01
  -6 -11   7  135.72    9.09
  -6  11   6  142.78    8.94
  -6 -11   6  147.50    9.42
  -6  11   5  744.79   22.03
  -6 -11   5  725.95   22.99
  -6  11   4   -1.59    2.07
  -6 -11   4   -1.83    3.18
  -6  11   3  360.60   10.26
  -6  11   3  320.91   12.39
  -6 -11   3  325.22   14.32
  -6  11   2  544.87   14.11
  -6  11   2  558.41   16.29
  -6 -11   2  529.73   18.96
  -6  11   1   12.49    2.15
  -6  11   1    7.27    1.87
  -6 -11   1    4.80    2.59
  -6  11   0   52.16    4.08
  -6 -11   0   46.34    5.49
  -6  11   0   58.01    4.27
  -6  11  -1  128.70    5.96
  -6  11  -1  133.42    6.94
   6 -11   1  126.14    8.09
  -6 -11  -1  127.83    8.99
  -6  11  -2    3.92    2.32
  -6  11  -2    6.30    1.72
   6 -11   2    2.13    1.94
  -6 -11  -2    5.37    2.85
  -6  11  -3   12.43    3.05
  -6  11  -3   15.41    1.80
   6 -11   3   12.23    2.72
  -6 -11  -3   12.09    3.78
   6 -11   4  148.86    7.80
  -6 -11  -4  138.44    9.83
  -6  11  -4  149.33    4.78
  -6 -11  -5  155.14   10.55
  -6 -11  -6   58.15    6.90
  -6 -11  -7  328.16   16.19
  -6 -11  -8   44.53    6.47
  -6 -11  -9   76.97    8.27
  -6 -11 -10    8.33    4.47
  -6 -11 -11  361.07   18.71
   6  11  12   18.92    4.40
   6  11  13   -5.00    2.88
   6  11  14   49.82    6.91
  -6 -12  14   82.45    8.58
  -6 -12  13   63.24    7.26
  -6 -12  12   45.69    6.24
  -6 -12  11  448.62   18.43
  -6 -12  10   67.59    7.03
  -6 -12   9   60.73    6.50
  -6  12   8    1.78    3.16
  -6 -12   8   -3.26    3.00
  -6  12   7  409.92   16.37
  -6 -12   7  372.58   15.76
  -6  12   6  107.72    7.68
  -6 -12   6   94.29    7.60
  -6  12   5   10.08    3.17
  -6 -12   5   10.27    3.32
  -6  12   4   68.53    5.84
  -6 -12   4   56.92    6.17
  -6  12   3   18.36    2.50
  -6  12   3   20.04    3.19
  -6 -12   3   23.64    4.21
  -6  12   2  300.65   10.14
  -6  12   2  301.53   11.20
  -6 -12   2  273.63   13.35
  -6  12   1 1216.69   26.77
  -6  12   1 1188.56   26.84
  -6 -12   1 1181.57   32.10
  -6  12   0   58.81    4.62
  -6  12   0   60.87    4.32
  -6 -12   0   48.82    5.93
  -6  12  -1  219.76    9.56
  -6  12  -1  228.26    7.98
  -6 -12  -1  233.33   12.57
  -6  12  -2    7.97    2.72
  -6  12  -2    9.90    1.67
   6 -12   2    8.41    2.72
  -6 -12  -2    2.30    3.09
  -6  12  -3  740.64   21.18
   6 -12   3  737.94   20.94
  -6 -12  -3  713.17   24.03
  -6  12  -3  708.26   14.67
  -6  12  -4   65.07    6.03
  -6 -12  -4   67.02    7.16
  -6 -12  -5   24.58    5.15
  -6 -12  -6    6.21    3.45
  -6 -12  -7   46.32    6.37
  -6 -12  -8    7.16    3.72
  -6 -12  -9  300.22   16.58
  -6 -12 -10   27.26    5.91
   6  12  11   37.39    6.13
   6  12  12    6.51    3.97
   6  12  13  162.84   12.21
  -6 -13  13  196.95   12.43
  -6 -13  12   10.61    3.84
  -6 -13  11    0.17    2.88
  -6 -13  10    2.89    2.83
  -6 -13   9    1.28    2.79
  -6 -13   8    2.27    2.90
  -6  13   7    3.23    2.58
  -6 -13   7    7.75    3.18
  -6  13   6   36.13    4.86
  -6 -13   6   26.32    4.56
  -6  13   5  391.81   15.03
  -6 -13   5  378.99   16.09
  -6  13   4  109.83    7.25
  -6 -13   4  113.00    8.47
  -6  13   3  141.22    7.85
  -6 -13   3  134.94    9.32
  -6  13   2   51.35    4.56
  -6 -13   2   48.11    5.88
  -6  13   1    1.33    1.62
  -6 -13   1    5.87    3.22
  -6  13   0    0.79    1.47
  -6 -13   0   -0.04    2.88
  -6  13  -1    4.10    2.14
  -6  13  -1    0.24    1.32
  -6 -13  -1    2.69    3.09
  -6  13  -2   61.33    5.57
  -6 -13  -2   58.01    6.76
  -6 -13  -3   71.03    7.52
  -6 -13  -4  211.99   12.75
  -6 -13  -5  388.91   17.74
  -6 -13  -6  109.98    9.65
  -6 -13  -7   16.98    4.51
  -6 -13  -8   87.63    8.97
  -6 -13  -9  267.75   15.91
   6  13  11   32.53    5.71
  -6 -14  12  483.34   19.75
  -6 -14  11   66.03    7.17
  -6 -14  10  162.49   10.75
  -6 -14   9   16.45    4.21
  -6 -14   8  272.18   13.88
  -6  14   7    4.68    2.74
  -6 -14   7    7.01    3.16
  -6  14   6    0.56    2.46
  -6 -14   6    2.29    2.71
  -6  14   5  113.33    7.79
  -6 -14   5  109.18    8.61
  -6  14   4   72.29    5.98
  -6 -14   4   75.14    7.26
  -6  14   3    9.42    2.41
  -6 -14   3   15.86    4.18
  -6  14   2  300.29   11.15
  -6 -14   2  277.26   13.94
  -6  14   1    1.80    1.71
  -6 -14   1    3.46    3.26
  -6 -14   0  427.34   17.92
  -6 -14  -1   74.20    7.48
  -6 -14  -2  180.90   11.73
  -6 -14  -3   49.55    6.49
  -6 -14  -4   79.07    8.18
  -6 -14  -5  123.30    9.97
  -6 -14  -6    6.60    4.13
  -6 -14  -7   14.24    4.43
  -6 -14  -8   31.57    5.75
  -6 -15  10   16.36    4.23
  -6 -15   9    1.74    3.31
  -6 -15   8    8.80    3.76
  -6 -15   7   14.72    3.89
  -6  15   7   10.07    4.00
  -6  15   7    8.00    3.37
  -6 -15   6   31.86    5.08
  -6  15   6   32.00    4.73
  -6  15   6   31.05    5.83
  -6  15   5  153.07    9.16
  -6  15   5  147.95   11.49
  -6 -15   5  150.92   10.22
  -6  15   4  700.90   20.61
  -6  15   4  664.02   25.23
  -6 -15   4  652.17   22.90
  -6  15   3    9.75    2.63
  -6 -15   3    3.76    2.93
  -6 -15   2   87.20    8.04
  -6 -15   1   11.44    4.05
  -6 -15   0  126.36    9.71
  -6 -15  -1    0.43    3.48
  -6 -15  -2   62.21    7.27
  -6 -15  -3   11.40    4.10
  -6 -15  -4   20.38    4.91
  -6 -15  -5   40.24    6.22
  -6 -15  -6  318.29   16.85
  -6 -15  -7   88.72    9.10
  -6 -16   9   56.37    6.80
  -6 -16   8   15.15    4.25
  -6  16   8   15.57    4.47
  -6 -16   7    0.99    3.11
  -6  16   7   -2.02    3.58
  -6  16   7    1.19    3.01
  -6 -16   6   17.22    4.62
  -6  16   6   22.39    5.20
  -6  16   6   26.15    4.68
  -6 -16   5   31.46    5.37
  -6  16   5   19.53    3.77
  -6  16   5   25.30    5.48
  -6  16   4   85.88    8.95
  -6 -16   4   84.77    7.99
  -6  16   3    5.67    3.55
  -6 -16   3    7.14    3.71
  -6  16   2  118.27   10.12
  -6 -16   2  126.35    9.75
  -6 -16   1   82.88    8.10
  -6 -16   0  115.15    9.42
  -6 -16  -1   54.15    6.99
  -6 -16  -2  570.38   22.57
  -6 -16  -3   48.65    6.83
  -6 -16  -4   50.96    6.80
  -6 -16  -5   86.84    8.90
  -6 -16  -6   24.92    5.37
  -6  17   8   66.54    7.39
  -6 -17   7    3.86    3.38
  -6 -17   6   46.32    6.15
  -6  17   5   66.63    8.24
  -6 -17   5   46.48    6.44
  -6  17   4  213.29   14.30
  -6 -17   4  224.75   12.98
  -6  17   3   30.72    5.68
  -6 -17   3   26.40    4.91
  -6  17   2   32.15    5.78
  -6 -17   2   28.16    5.58
  -6  17   1   73.96    7.93
  -6 -17   1   67.56    7.48
  -6 -17   0   18.32    4.70
  -6 -17  -1   30.80    5.45
  -6 -17  -2    3.13    3.55
  -6 -17  -3   14.10    4.26
  -6 -17  -4   -4.81    3.80
  -6 -18   5   19.78    4.76
  -6  18   4    2.13    3.22
  -6 -18   4   -2.19    3.37
  -6  18   3   63.52    7.97
  -6 -18   3   66.32    7.28
  -6  18   2  129.20   10.97
  -6 -18   2  132.06   10.24
  -6  18   1  125.86   10.64
  -6 -18   1  130.82   10.38
  -6 -18   0   38.55    6.20
  -6 -18  -1  341.19   17.34
  -6 -18  -2   -0.07    3.49
  -6 -18  -3  158.89   12.01
  -6 -19   4    7.53    3.96
  -6 -19   3   99.68    9.20
  -6  19   2    1.82    3.02
  -6 -19   2   -5.95    3.71
  -6  19   1   18.27    4.88
  -6 -19   1   26.26    5.80
  -6 -19   0   20.37    5.08
  -6 -19  -1   45.20    6.58
  -7   0  15  166.08   12.36
  -7   0  14   -2.10    2.98
  -7   0  13 1105.65   33.68
  -7   0  12    2.58    3.27
  -7   0  11  137.35   10.13
  -7   0  10    0.59    2.85
  -7   0   9  255.34   13.14
  -7   0   8   -0.56    3.28
  -7   0   7  366.93   15.20
  -7   0   6    3.23    2.73
  -7   0   5 2002.37   44.49
  -7   0   4    0.18    2.58
  -7   0   3 4090.65   77.78
  -7   0   2   -2.18    2.40
  -7   0   1   14.73    3.22
   7   0   0    1.08    2.09
  -7   0   0   -1.54    2.24
   7   0   1 2364.66   48.87
  -7   0  -1 2321.95   48.49
   7   0   2   -0.84    1.98
  -7   0  -2   -2.04    2.47
   7   0   3   22.98    3.56
  -7   0  -3   24.25    3.65
  -7   0  -4    1.18    2.13
  -7   0  -5  319.69   13.03
  -7   0  -6   -2.60    2.31
  -7   0  -7    4.91    2.70
  -7   0  -8   -0.69    2.23
  -7   0  -9    5.16    2.71
   7   0  10    1.47    3.01
  -7   0 -10    7.17    3.24
   7   0  11  779.16   26.72
  -7   0 -11  793.40   24.93
   7   0  12    2.85    3.28
  -7   0 -12   -1.87    3.31
   7   0  13  464.04   21.03
   7   0  14    5.76    2.91
  -7  -1  15   70.47    8.54
  -7  -1  14   16.47    4.70
  -7   1  14   17.45    4.67
  -7  -1  13    2.39    3.03
  -7   1  13   -2.40    3.75
  -7  -1  12  431.38   18.82
  -7   1  12  432.00   18.92
  -7   1  11  144.80   10.47
  -7  -1  11  141.94   10.23
  -7  -1  10   42.75    5.89
  -7   1  10   39.84    6.24
  -7  -1   9    1.53    2.70
  -7   1   9    4.63    2.82
  -7   1   8  726.70   23.15
  -7  -1   8  707.29   23.01
  -7  -1   7   50.56    5.66
  -7   1   7   52.00    5.71
  -7   1   6   30.30    4.35
  -7  -1   6   26.17    4.27
   7   1  -5  415.09    9.56
  -7   1   5  389.43   15.09
  -7  -1   5  385.35   15.15
   7   1  -4    1.44    0.73
  -7   1   4   -2.60    2.84
  -7  -1   4    1.21    2.27
  -7  -1   3  157.91    9.05
  -7   1   3  161.65    9.00
  -7  -1   2  318.25   13.00
  -7   1   2  305.04   12.51
   7  -1  -1    4.03    0.70
   7  -1  -1   -0.74    2.05
  -7  -1   1    2.99    2.30
  -7   1   1    0.10    2.25
   7  -1   0    2.32    0.90
   7  -1   0   -0.53    1.78
  -7  -1   0    2.89    2.51
  -7   1   0    1.19    1.97
   7  -1   1   14.56    2.80
  -7  -1  -1   14.01    3.12
  -7   1  -1   20.26    3.46
  -7   1  -2  268.42   11.34
   7  -1   2  282.32   11.58
  -7  -1  -2  258.58   11.47
   7  -1   3  306.23   12.09
  -7   1  -3  279.38   11.65
  -7  -1  -3  265.55   11.79
  -7  -1  -4    2.36    2.47
  -7   1  -4   -1.32    2.45
   7  -1   4    6.71    2.16
   7  -1   5  207.09    9.98
  -7   1  -5  205.86    9.99
  -7  -1  -5  203.81   10.44
  -7  -1  -6  137.76    8.65
  -7   1  -6  141.37    8.38
   7  -1   7  157.55    9.34
  -7  -1  -7  161.59    9.54
  -7   1  -7  159.79    9.02
   7  -1   8    3.40    2.65
  -7   1  -8   -2.13    2.38
  -7  -1  -8   -3.43    3.06
   7  -1   9    0.33    2.40
  -7   1  -9    9.38    3.16
  -7  -1  -9    7.02    3.28
   7  -1  10   19.66    4.27
  -7   1 -10   22.36    3.92
  -7  -1 -10   19.85    4.13
   7  -1  11  188.79   12.14
  -7   1 -11  193.63   10.98
  -7  -1 -11  178.30   11.18
   7  -1  12   76.85    8.18
  -7   1 -12   79.17    7.34
  -7  -1 -12   85.09    7.92
   7  -1  13    9.87    4.54
   7   1  13    4.38    4.09
   7   1  14   20.04    5.14
   7  -1  14   17.89    5.30
  -7  -2  15   70.07    7.91
  -7   2  14  276.38   15.72
  -7  -2  14  274.81   15.42
  -7  -2  13   63.76    7.44
  -7   2  13   36.91    6.01
  -7   2  12  203.11   12.73
  -7  -2  12  187.38   12.25
  -7   2  11  284.08   14.89
  -7  -2  11  296.65   14.91
  -7  -2  10  260.21   13.63
  -7   2  10  251.53   13.46
  -7  -2   9    3.16    3.18
  -7   2   9    0.05    2.73
  -7  -2   8   17.93    4.10
  -7   2   8   11.91    3.52
   7   2  -7  306.85    9.47
  -7  -2   7  272.96   12.99
  -7   2   7  269.45   12.99
   7   2  -6  166.91    6.21
  -7   2   6  165.37    9.65
  -7  -2   6  145.13    9.22
  -7   2   5   19.47    3.62
   7   2  -5   19.59    1.99
  -7  -2   5   13.09    3.13
   7   2  -4  177.12    5.95
  -7  -2   4  170.24    9.58
  -7   2   4  175.05    9.41
  -7  -2   3  332.79   13.58
  -7   2   3  336.62   13.21
   7  -2  -2  333.54   13.09
  -7   2   2  311.69   12.50
  -7  -2   2  316.66   13.02
   7  -2  -1 1486.98   33.83
  -7   2   1 1451.49   33.41
  -7  -2   1 1404.62   33.95
   7  -2   0  405.01    8.98
   7  -2   0  421.67   14.55
  -7  -2   0  390.76   14.66
  -7   2   0  390.22   13.99
   7  -2   1  270.31    7.88
   7  -2   1  253.21   11.02
  -7  -2  -1  253.75   11.53
  -7   2  -1  282.07   11.37
   7  -2   2  289.53    9.26
  -7   2  -2  286.69   11.58
   7  -2   2  299.36   11.84
  -7  -2  -2  269.79   12.01
   7  -2   3  614.21   16.59
   7  -2   3  653.70   19.00
  -7  -2  -3  651.57   20.05
  -7   2  -3  639.81   18.75
   7  -2   4   37.92    4.16
   7  -2   4   38.03    3.85
  -7   2  -4   33.41    4.22
  -7  -2  -4   39.12    4.89
   7  -2   5    3.95    1.91
   7  -2   5    2.74    1.98
  -7  -2  -5    2.24    2.69
  -7   2  -5    3.40    2.27
   7  -2   6    8.23    2.49
   7  -2   6    6.66    2.36
  -7   2  -6    5.60    2.46
  -7  -2  -6    9.82    3.03
   7  -2   7   21.63    3.76
  -7  -2  -7   13.40    3.37
  -7   2  -7   15.64    3.36
   7  -2   8  168.31   10.07
  -7  -2  -8  192.77   10.86
  -7   2  -8  185.36    9.70
   7  -2   9  323.69   14.92
  -7   2  -9  340.12   13.78
  -7  -2  -9  334.53   14.85
   7  -2  10  209.00   12.23
  -7   2 -10  201.82   10.64
  -7  -2 -10  194.81   11.47
   7  -2  11  285.25   15.00
  -7   2 -11  295.67   13.44
  -7  -2 -11  293.67   14.71
   7  -2  12  397.11   18.45
  -7  -2 -12  391.86   17.69
   7  -2  13   51.43    7.16
   7   2  14    5.49    4.39
   7  -2  14   -5.68    4.03
  -7  -3  15    1.25    3.28
  -7  -3  14    6.60    3.65
  -7   3  14    7.16    3.77
  -7  -3  13   -4.25    3.86
  -7   3  13   -0.18    3.20
  -7  -3  12    4.15    3.62
  -7   3  12   -0.89    3.15
  -7  -3  11    0.40    3.15
  -7   3  11   -2.55    3.28
  -7   3  10  377.65   16.85
  -7  -3  10  372.61   16.50
  -7   3   9   90.47    8.02
  -7  -3   9   65.76    6.71
   7   3  -8  158.29    7.21
  -7  -3   8  131.84    9.09
  -7   3   8  144.01    9.52
   7   3  -7  222.34    8.21
  -7   3   7  194.19   10.86
  -7  -3   7  192.36   10.85
   7   3  -6  787.58   18.00
  -7   3   6  736.93   22.76
  -7  -3   6  714.07   22.64
   7   3  -5  211.87    7.40
  -7  -3   5  212.03   10.86
  -7   3   5  187.48   10.18
  -7  -3   4    8.51    2.72
  -7   3   4   13.07    3.19
  -7  -3   3  320.18   13.36
  -7   3   3  312.10   12.64
  -7   3   2  450.49   15.33
  -7  -3   2  447.02   16.12
   7  -3  -1   43.74    4.45
  -7   3   1   36.85    4.25
  -7  -3   1   42.05    4.77
   7  -3   0  338.62   12.72
  -7  -3   0  319.39   13.23
  -7   3   0  332.98   12.47
   7  -3   1   33.34    2.35
   7  -3   1   32.93    3.80
  -7   3  -1   33.58    4.05
  -7  -3  -1   28.33    4.18
   7  -3   2   49.28    3.38
   7  -3   2   51.50    4.83
  -7   3  -2   49.51    4.73
  -7  -3  -2   43.29    5.09
   7  -3   3    3.24    1.66
   7  -3   3    6.70    2.00
  -7  -3  -3    8.07    2.78
  -7   3  -3    4.12    2.07
   7  -3   4  798.17   20.39
   7  -3   4  808.52   21.83
  -7  -3  -4  822.86   23.89
  -7   3  -4  808.16   21.68
   7  -3   5  212.33    9.57
   7  -3   5  219.60    9.92
  -7   3  -5  228.63   10.09
  -7  -3  -5  230.21   11.47
   7  -3   6   30.21    3.90
   7  -3   6   31.70    3.88
  -7   3  -6   36.41    4.25
  -7  -3  -6   37.07    4.84
   7  -3   7    1.93    1.98
   7  -3   7    2.68    1.89
  -7   3  -7    1.00    2.16
  -7  -3  -7    5.10    2.93
   7  -3   8  627.07   19.07
  -7  -3  -8  633.09   21.42
  -7   3  -8  627.58   19.00
   7  -3   9    8.25    3.09
  -7   3  -9    4.97    2.61
  -7  -3  -9    6.76    3.36
   7  -3  10    8.62    3.27
  -7   3 -10    3.87    2.28
  -7  -3 -10    5.20    3.95
   7  -3  11   -2.03    3.04
  -7  -3 -11    1.27    3.15
  -7   3 -11   -0.63    2.37
   7  -3  12    7.85    3.80
  -7  -3 -12    7.77    3.87
   7  -3  13   52.04    7.36
   7  -3  14   42.53    6.65
  -7  -4  15    4.24    3.67
  -7  -4  14   78.05    8.34
  -7   4  14   85.72    9.06
  -7  -4  13  179.52   12.08
  -7   4  13  172.83   12.25
  -7  -4  12  282.79   14.88
  -7   4  12  279.41   15.22
  -7  -4  11   41.38    5.84
  -7   4  11   33.16    5.43
  -7  -4  10  231.16   12.71
  -7   4  10  224.27   12.79
  -7  -4   9    0.44    3.00
   7   4  -9    2.97    1.96
  -7   4   9    2.25    2.78
  -7   4   8  216.54   11.99
  -7  -4   8  220.39   12.05
   7   4  -8  242.50    9.56
  -7  -4   7   21.71    4.18
   7   4  -7   22.54    2.86
  -7   4   7   19.57    3.97
  -7  -4   6    0.80    2.30
   7   4  -6    2.94    1.49
  -7   4   6   -1.96    3.19
  -7  -4   5  110.33    7.93
  -7   4   5  109.08    7.57
  -7  -4   4  219.92   11.14
  -7   4   4  233.78   10.97
  -7   4   3    3.30    2.26
  -7  -4   3   11.74    3.11
  -7   4   2  879.32   23.41
  -7  -4   2  862.71   24.42
  -7   4   1  145.55    7.96
  -7  -4   1  144.85    8.76
   7  -4  -1  151.69    9.27
  -7   4   0  844.25   22.41
  -7  -4   0  846.50   24.15
   7  -4   0  880.24   22.90
   7  -4   0  833.23   24.43
  -7   4  -1  115.15    6.93
   7  -4   1  112.80    6.85
   7  -4   1  110.40    7.58
  -7  -4  -1  114.57    7.79
  -7   4  -2  526.14   16.14
   7  -4   2  544.11   16.54
   7  -4   2  517.96   17.39
  -7  -4  -2  519.24   17.99
  -7  -4  -3   16.58    3.54
  -7   4  -3   15.10    2.98
   7  -4   3   12.18    2.02
   7  -4   3   10.33    2.47
   7  -4   3   14.18    2.85
   7  -4   4  129.82    7.27
   7  -4   4  137.38    6.92
   7  -4   4  129.31    7.59
  -7  -4  -4  135.31    8.76
  -7   4  -4  144.22    7.66
   7  -4   5    3.29    2.12
   7  -4   5    2.72    1.67
   7  -4   5   -3.17    2.04
  -7  -4  -5    0.38    2.56
  -7   4  -5    2.19    2.10
   7  -4   6  513.58   16.08
   7  -4   6  501.39   16.43
   7  -4   6  511.55   15.55
  -7  -4  -6  492.26   18.29
  -7   4  -6  502.52   15.89
   7  -4   7   -0.81    1.75
   7  -4   7   -0.79    2.29
   7  -4   7   -0.46    1.55
  -7   4  -7    1.99    2.12
  -7  -4  -7   -2.30    2.83
   7  -4   8  309.99   12.14
  -7   4  -8  282.85   11.57
  -7  -4  -8  296.85   14.30
   7  -4   9   -2.27    2.34
  -7   4  -9   -1.89    2.37
  -7  -4  -9    0.72    3.19
   7  -4  10  102.37    8.43
  -7  -4 -10   96.58    8.55
  -7   4 -10   96.56    6.92
   7  -4  11   33.58    5.40
  -7  -4 -11   45.82    6.47
   7  -4  12  135.78   10.52
  -7  -4 -12  149.43   11.00
   7  -4  13   61.41    7.46
   7  -4  14  196.32   13.48
  -7  -5  15   -0.47    3.20
  -7  -5  14   32.06    5.50
  -7   5  14   22.71    5.28
  -7  -5  13    2.16    3.26
  -7   5  13    8.93    4.19
  -7  -5  12  111.50    9.42
  -7   5  12  140.23   10.79
  -7  -5  11   45.50    6.17
  -7   5  11   41.58    6.07
  -7  -5  10   62.58    6.65
   7   5 -10   65.41    5.67
  -7   5  10   47.42    6.20
  -7  -5   9   37.72    5.19
  -7   5   9   41.62    5.67
   7   5  -9   52.41    5.00
  -7  -5   8  740.03   24.02
  -7   5   8  733.83   24.05
   7   5  -8  795.90   20.59
  -7   5   7  514.78   18.75
  -7  -5   7  512.63   18.85
   7   5  -7  533.00   15.49
  -7  -5   6  518.03   18.64
  -7   5   6  521.69   18.41
   7   5  -6  538.41   15.24
  -7  -5   5   12.33    3.62
  -7   5   5    9.74    2.80
  -7   5   4  112.58    7.55
  -7  -5   4  114.58    8.00
  -7   5   3  125.97    7.69
  -7  -5   3  111.98    7.88
  -7  -5   2    1.15    2.52
  -7   5   2    0.04    2.08
  -7  -5   1  105.24    7.67
  -7   5   1  110.47    6.85
   7  -5  -1  114.71    8.10
  -7   5   0  128.90    7.33
  -7  -5   0  120.21    8.13
   7  -5   0  131.11    8.43
  -7   5  -1  457.94   14.62
   7  -5   1  453.44   14.77
   7  -5   1  445.35   16.24
  -7  -5  -1  437.71   16.42
  -7   5  -2  499.47   15.27
   7  -5   2  492.10   15.44
   7  -5   2  458.84   16.37
  -7  -5  -2  501.85   17.77
  -7  -5  -3   23.23    4.26
  -7   5  -3   25.34    3.35
   7  -5   3   26.73    3.29
   7  -5   3   24.06    3.58
  -7   5  -4   26.45    3.52
   7  -5   4   26.58    2.96
   7  -5   4   25.45    3.33
   7  -5   4   21.58    3.16
  -7  -5  -4   25.10    4.28
   7  -5   5  479.84   14.98
   7  -5   5  453.17   14.66
   7  -5   5  478.62   15.10
  -7   5  -5  443.31   14.42
  -7  -5  -5  463.65   17.74
   7  -5   6  119.05    7.02
   7  -5   6  125.83    7.53
   7  -5   6  131.75    6.94
  -7  -5  -6  128.69    9.28
  -7   5  -6  129.51    7.24
   7  -5   7   41.12    4.26
   7  -5   7   44.17    4.93
  -7   5  -7   44.30    4.43
  -7  -5  -7   47.04    5.94
   7  -5   8  242.24   11.96
   7  -5   8  241.09   10.41
  -7   5  -8  250.88   10.40
  -7  -5  -8  233.37   12.90
   7  -5   9   11.17    3.36
  -7   5  -9   13.80    2.93
  -7  -5  -9   10.98    3.68
   7  -5  10  124.53    9.25
  -7   5 -10  130.07    7.67
  -7  -5 -10  120.36    9.63
   7  -5  11   10.17    3.50
  -7  -5 -11   26.50    5.60
   7  -5  12    0.29    3.63
  -7  -5 -12    5.16    3.54
   7  -5  13   -5.06    3.65
   7  -5  14    5.26    3.79
  -7  -6  15    9.98    3.74
  -7  -6  14  122.46   10.38
  -7  -6  13  132.95   10.44
  -7   6  13  135.55   10.86
  -7  -6  12   90.83    8.71
  -7   6  12   95.88    9.18
  -7  -6  11  195.97   12.00
  -7   6  11  190.50   12.33
  -7  -6  10   35.23    5.36
  -7   6  10   34.83    5.54
  -7  -6   9  232.33   12.66
  -7   6   9  250.38   13.33
   7   6  -9  253.61   11.05
  -7  -6   8    5.48    3.54
  -7   6   8    0.73    2.69
   7   6  -8    0.42    2.02
  -7  -6   7    8.11    3.33
   7   6  -7    9.59    2.42
  -7   6   7    7.90    2.71
  -7  -6   6   73.66    6.75
  -7   6   6   76.04    6.71
  -7  -6   5   -0.46    2.56
  -7   6   5   -0.05    2.23
  -7  -6   4    3.58    2.66
  -7   6   4    2.66    2.48
  -7   6   3  558.50   17.58
  -7  -6   3  509.33   18.23
  -7  -6   2   82.51    7.00
  -7   6   2   83.06    6.12
  -7  -6   1  519.86   18.38
  -7   6   1  559.81   16.87
  -7   6   0   52.39    4.90
  -7  -6   0   52.05    5.49
   7  -6   0   47.78    5.17
  -7   6  -1  491.38   15.17
   7  -6   1  474.75   17.02
  -7  -6  -1  484.46   17.64
  -7   6  -2  406.46   13.30
   7  -6   2  394.52   13.38
   7  -6   2  388.52   14.78
  -7  -6  -2  410.15   16.09
  -7  -6  -3   34.92    4.89
  -7   6  -3   37.43    3.96
   7  -6   3   44.05    4.22
   7  -6   3   37.02    4.29
  -7   6  -4   12.66    2.76
   7  -6   4   13.38    2.67
   7  -6   4   15.05    3.07
  -7  -6  -4   11.18    3.21
   7  -6   5  180.83    8.39
   7  -6   5  177.13    8.62
  -7  -6  -5  186.41   11.06
  -7   6  -5  185.52    8.32
   7  -6   6   84.97    5.69
   7  -6   6   92.08    6.47
   7  -6   6   89.32    5.64
  -7   6  -6   83.25    5.49
  -7  -6  -6   78.14    7.38
   7  -6   7   52.96    5.36
   7  -6   7   57.94    4.82
  -7  -6  -7   52.00    6.36
  -7   6  -7   51.02    4.51
   7  -6   8  109.80    7.93
  -7   6  -8  119.07    6.78
  -7  -6  -8  120.07    9.46
   7  -6   9   65.76    6.50
  -7  -6  -9   62.78    7.32
  -7   6  -9   61.13    5.08
   7  -6  10   39.45    5.59
  -7  -6 -10   35.58    5.62
   7  -6  11  173.06   11.48
  -7  -6 -11  203.50   13.05
   7  -6  12  160.83   11.61
  -7  -6 -12  189.92   12.91
   7  -6  13   76.93    8.17
   7  -6  14    1.08    3.15
  -7  -7  14   53.31    6.98
  -7  -7  13   20.07    4.45
  -7   7  13   27.83    5.04
  -7  -7  12   -3.24    3.42
  -7   7  12    7.35    3.13
  -7  -7  11   28.86    5.02
  -7   7  11   31.17    5.48
  -7  -7  10    6.14    3.23
  -7   7  10   10.98    3.89
  -7  -7   9  422.39   17.54
  -7   7   9  427.77   18.00
  -7  -7   8    2.26    2.78
   7   7  -8    1.19    2.16
  -7   7   8   -0.88    2.86
  -7  -7   7  129.73    9.31
   7   7  -7  128.76    7.53
  -7   7   7  142.06    9.49
  -7  -7   6   47.42    5.70
  -7   7   6   51.18    5.58
  -7   7   5  250.09   11.72
  -7  -7   5  238.74   12.17
  -7  -7   4   51.30    5.72
  -7   7   4   47.84    5.10
  -7  -7   3  283.32   13.03
  -7   7   3  264.53   11.49
  -7  -7   2   22.96    4.05
  -7   7   2   21.21    3.29
  -7  -7   1   55.41    5.85
  -7   7   1   55.82    4.90
  -7   7   0   23.01    3.48
  -7  -7   0   21.44    4.14
   7  -7   0   15.73    3.35
  -7   7  -1   11.59    2.34
  -7  -7  -1    8.34    3.25
   7  -7   1   10.62    2.68
  -7   7  -2   -0.72    1.78
   7  -7   2   -0.91    1.84
   7  -7   3  506.20   17.16
  -7  -7  -3  539.68   19.51
  -7   7  -3  552.72   15.59
  -7   7  -4    3.61    1.69
   7  -7   4    2.24    1.81
  -7  -7  -4   -1.11    2.72
   7  -7   5   55.52    4.40
   7  -7   5   56.19    4.74
  -7   7  -5   47.84    4.09
  -7  -7  -5   52.09    6.29
   7  -7   6    1.66    1.85
  -7  -7  -6    0.21    3.35
  -7   7  -6    2.17    1.61
  -7  -7  -7  569.68   21.29
  -7   7  -7  553.79   15.68
  -7   7  -8    6.76    2.27
  -7  -7  -8    9.63    4.01
  -7  -7  -9  146.97   10.80
   7  -7  10    2.81    2.55
  -7  -7 -10    3.85    3.64
   7  -7  11   18.93    4.15
  -7  -7 -11   23.14    5.15
   7  -7  12   -1.97    3.72
  -7  -7 -12   11.83    4.45
   7  -7  13   45.35    6.67
  -7  -8  14    1.76    3.04
  -7   8  13  190.43   13.05
  -7  -8  13  169.83   11.79
  -7   8  12    0.55    2.95
  -7  -8  12    3.59    2.98
  -7   8  11   93.09    8.82
  -7  -8  11   89.66    8.36
  -7   8  10   43.43    6.25
  -7  -8  10   45.81    5.90
  -7   8   9  254.39   13.66
  -7  -8   9  236.46   12.98
  -7   8   8   26.94    4.72
  -7  -8   8   17.98    4.16
  -7   8   7   58.23    6.19
  -7  -8   7   53.06    6.19
  -7   8   6  152.65    9.56
  -7  -8   6  175.91   10.57
  -7   8   5  150.31    9.07
  -7  -8   5  143.02    9.55
  -7   8   4    3.10    2.37
  -7  -8   4    5.03    3.09
  -7   8   3   28.47    3.93
  -7  -8   3   24.46    4.42
  -7  -8   2   87.55    7.34
  -7   8   2   79.47    5.97
  -7   8   1   45.13    4.50
  -7  -8   1   46.58    5.55
  -7   8   0   41.87    4.21
  -7  -8   0   53.37    5.85
  -7   8  -1  177.06    8.17
   7  -8   1  169.15    9.78
  -7  -8  -1  180.63   10.68
  -7   8  -2  200.82    8.57
   7  -8   2  207.79   10.48
  -7  -8  -2  197.77   11.39
   7  -8   3  123.25    7.75
  -7   8  -3  134.38    6.69
  -7  -8  -3  123.14    9.07
  -7   8  -4    1.47    1.68
   7  -8   4    1.17    1.86
   7  -8   5    2.98    1.87
  -7   8  -5    1.58    1.53
  -7  -8  -5    2.66    2.95
  -7   8  -6  116.36    5.97
  -7  -8  -6  117.62    9.36
  -7   8  -7   37.90    3.45
  -7  -8  -7   28.38    5.38
  -7  -8  -8   51.94    6.98
  -7  -8  -9   29.31    5.42
  -7  -8 -10    4.65    3.18
  -7  -8 -11  202.62   13.50
  -7  -9  14    4.04    3.38
  -7  -9  13   -4.00    3.05
  -7   9  12   15.65    4.09
  -7  -9  12    2.42    3.12
  -7   9  11  195.23   12.73
  -7  -9  11  185.19   11.96
  -7   9  10   35.44    5.66
  -7  -9  10   29.85    5.33
  -7   9   9  245.75   13.45
  -7  -9   9  252.10   13.51
  -7   9   8   71.97    7.17
  -7  -9   8   77.62    7.40
  -7   9   7  359.07   15.64
  -7  -9   7  368.95   16.03
  -7   9   6   29.21    4.42
  -7  -9   6   26.43    4.95
  -7   9   5   49.50    5.36
  -7  -9   5   37.37    5.21
  -7   9   4   29.03    3.98
  -7  -9   4   34.45    5.14
  -7  -9   3  140.26    9.33
  -7   9   3  131.35    7.83
  -7   9   2   72.03    5.80
  -7  -9   2   68.26    6.70
  -7   9   1    1.08    1.89
  -7  -9   1    6.66    2.97
  -7   9   0  102.47    6.20
  -7  -9   0  101.83    8.26
  -7   9  -1  707.15   18.57
   7  -9   1  666.00   21.66
  -7  -9  -1  702.89   23.11
  -7   9  -2    0.71    1.62
   7  -9   2   -3.45    2.10
  -7  -9  -2    0.36    2.64
  -7   9  -3   27.01    3.05
   7  -9   3   28.48    4.03
  -7  -9  -3   28.16    4.95
  -7   9  -4    0.01    1.54
   7  -9   4    4.13    2.17
  -7  -9  -4    1.82    3.00
  -7  -9  -5  437.13   18.47
  -7   9  -5  461.13   12.79
  -7  -9  -6  133.65   10.13
  -7   9  -6  130.38    5.94
  -7  -9  -7   74.88    7.80
  -7  -9  -8   37.05    5.92
  -7  -9  -9  127.49   10.36
  -7  -9 -10   20.12    5.27
  -7 -10  14   52.90    6.91
  -7 -10  13   24.57    5.31
  -7  10  12  222.01   13.92
  -7 -10  12  214.45   13.21
  -7  10  11   99.00    9.19
  -7 -10  11  122.77    9.91
  -7  10  10   27.91    5.24
  -7 -10  10   34.13    5.66
  -7  10   9  132.62    9.97
  -7 -10   9  122.13    9.50
  -7  10   8    2.88    3.06
  -7 -10   8    6.57    3.33
  -7  10   7   34.31    4.74
  -7 -10   7   44.53    5.64
  -7  10   6   17.94    3.95
  -7 -10   6   18.37    3.78
  -7  10   5   -0.79    2.40
  -7 -10   5    0.22    2.84
  -7  10   4    7.31    2.84
  -7 -10   4   12.17    3.45
  -7  10   3    2.70    2.51
  -7 -10   3    4.05    3.03
  -7  10   2  323.09   12.51
  -7 -10   2  333.52   15.01
  -7  10   1  179.03    8.72
  -7 -10   1  195.06   11.39
  -7  10   0  180.23    8.33
  -7 -10   0  178.62   10.99
  -7  10  -1  167.08    7.65
  -7 -10  -1  150.74   10.21
  -7  10  -2  111.28    5.95
   7 -10   2  110.09    7.79
  -7 -10  -2  107.35    8.75
   7 -10   3  124.75    7.90
  -7 -10  -3  133.10    9.72
  -7  10  -3  117.04    5.85
  -7  10  -4  292.03    9.40
  -7 -10  -4  290.28   14.76
  -7 -10  -5   -0.68    3.15
  -7 -10  -6    5.40    3.36
  -7 -10  -7    2.79    3.24
  -7 -10  -8    4.86    3.45
  -7 -10  -9   20.66    4.99
  -7 -10 -10   92.19    9.34
  -7 -11  14   80.14    8.71
  -7 -11  13   -1.02    3.33
  -7  11  12    5.96    3.99
  -7 -11  12    9.71    3.84
  -7  11  11   -3.30    3.06
  -7 -11  11   -0.44    2.89
  -7  11  10  211.10   13.19
  -7 -11  10  215.84   12.91
  -7  11   9   41.73    5.92
  -7 -11   9   44.02    6.04
  -7  11   8  108.19    8.82
  -7 -11   8   84.92    8.02
  -7  11   7   72.51    6.97
  -7 -11   7   63.04    7.01
  -7  11   6  633.81   21.22
  -7 -11   6  629.66   22.16
  -7  11   5   48.36    5.58
  -7 -11   5   53.37    6.12
  -7  11   4  169.62    9.42
  -7 -11   4  169.16   10.74
  -7  11   3   10.69    2.82
  -7 -11   3    9.35    3.41
  -7  11   2   88.98    6.29
  -7 -11   2   77.63    7.22
  -7  11   1    0.98    2.00
  -7 -11   1   -2.88    2.87
  -7  11   0  111.83    6.42
  -7 -11   0  110.59    8.88
  -7  11  -1   31.97    3.40
  -7 -11  -1   32.56    5.30
  -7  11  -2   71.15    4.55
  -7 -11  -2   65.96    7.14
  -7  11  -3  278.38    8.99
  -7 -11  -3  277.36   14.52
  -7 -11  -4  322.70   15.97
  -7 -11  -5    6.19    3.75
  -7 -11  -6  164.31   11.69
  -7 -11  -7  149.38   11.33
  -7 -11  -8  354.32   17.87
  -7 -11  -9   -4.75    3.94
   7  11  12   -3.52    3.89
  -7 -12  13   25.92    5.44
  -7 -12  12  215.82   13.41
  -7  12  11   97.31    9.34
  -7 -12  11  108.35    9.43
  -7  12  10  177.51   12.13
  -7 -12  10  182.76   11.85
  -7  12   9   -4.76    3.75
  -7 -12   9   -2.60    3.32
  -7  12   8    3.13    3.05
  -7 -12   8   -0.15    2.89
  -7  12   7    1.53    2.96
  -7 -12   7    0.17    3.04
  -7  12   6   38.48    5.29
  -7 -12   6   30.68    4.99
  -7  12   5    0.66    2.26
  -7 -12   5   -0.42    3.43
  -7  12   4  161.60    9.25
  -7 -12   4  162.44   10.71
  -7  12   3    8.21    2.86
  -7 -12   3    3.72    3.07
  -7  12   2  575.35   17.46
  -7 -12   2  585.24   21.38
  -7 -12   1   77.90    7.52
  -7  12   1   74.40    5.41
  -7  12   0  366.25   12.11
  -7 -12   0  367.77   16.68
  -7  12  -1    2.05    1.73
  -7 -12  -1    2.11    3.27
  -7 -12  -2  461.92   19.36
  -7 -12  -3  173.51   11.73
  -7 -12  -4   37.66    6.29
  -7 -12  -5   17.75    4.88
  -7 -12  -6   -0.82    3.67
  -7 -12  -7    7.90    4.08
  -7 -12  -8  182.73   12.99
  -7 -13  12   22.62    4.77
  -7  13  11   14.33    4.17
  -7 -13  11   16.32    4.52
  -7  13  10   -0.18    3.10
  -7 -13  10    4.89    3.87
  -7  13   9   35.89    6.15
  -7 -13   9   42.41    6.32
  -7  13   8  322.68   15.51
  -7 -13   8  300.91   15.26
  -7  13   7   91.45    8.03
  -7 -13   7   86.79    8.01
  -7  13   6  154.59    9.90
  -7 -13   6  137.47   10.09
  -7  13   5  203.70   10.97
  -7 -13   5  206.49   12.37
  -7  13   4   50.87    5.47
  -7 -13   4   54.68    6.79
  -7  13   3   15.13    3.17
  -7 -13   3   13.86    4.23
  -7  13   2   19.09    3.38
  -7 -13   2   13.56    3.87
  -7  13   1    2.28    1.91
  -7 -13   1   -1.50    3.24
  -7 -13   0    2.94    3.05
  -7 -13  -1   60.58    7.12
  -7 -13  -2  247.07   14.01
  -7 -13  -3   80.61    8.17
  -7 -13  -4   70.44    7.76
  -7 -13  -5   23.32    5.08
  -7 -13  -6  261.12   15.26
  -7 -13  -7  208.88   13.94
  -7 -14  11   74.25    7.97
  -7  14  10   31.89    5.34
  -7 -14  10   40.51    6.28
  -7  14   9  131.08   10.40
  -7 -14   9  138.33   10.52
  -7  14   8   -1.71    3.39
  -7 -14   8   -2.36    3.66
  -7  14   7    0.40    3.00
  -7 -14   7    1.06    3.25
  -7  14   6   16.87    4.22
  -7 -14   6   21.55    4.92
  -7  14   5   71.07    6.61
  -7 -14   5   69.13    7.29
  -7  14   4    5.77    2.75
  -7 -14   4    1.64    3.63
  -7  14   3  441.10   15.21
  -7 -14   3  402.91   18.13
  -7 -14   2  100.85    8.91
  -7 -14   1  118.07    9.58
  -7 -14   0   15.36    4.28
  -7 -14  -1  435.24   19.13
  -7 -14  -2    4.30    3.17
  -7 -14  -3   11.19    4.03
  -7 -14  -4   51.58    6.85
  -7 -14  -5   18.86    5.14
  -7  15  10   27.89    5.38
  -7 -15  10   22.79    4.48
  -7  15   9  196.94   12.63
  -7 -15   9  174.55   11.80
  -7  15   8    7.35    3.71
  -7 -15   8    7.36    3.72
  -7  15   7  296.14   14.50
  -7 -15   7  268.61   14.66
  -7  15   6   28.15    5.11
  -7 -15   6   28.23    5.43
  -7  15   5  143.46    9.15
  -7 -15   5  132.12   10.20
  -7 -15   4   28.07    5.11
  -7 -15   3   23.65    4.76
  -7 -15   2    9.65    3.70
  -7 -15   1    9.47    3.23
  -7 -15   0   58.31    7.38
  -7 -15  -1    1.10    3.27
  -7 -15  -2   95.81    9.22
  -7 -15  -3   23.18    5.54
  -7 -15  -4   18.92    4.82
  -7  16   9    1.06    3.62
  -7 -16   9    0.74    3.54
  -7  16   8    7.05    4.00
  -7 -16   8   11.13    4.08
  -7 -16   7   -1.49    3.11
  -7 -16   6   12.98    4.56
  -7 -16   5   87.30    8.24
  -7 -16   4   -2.04    3.42
  -7 -16   3  109.16    9.51
  -7 -16   2   18.02    4.51
  -7 -16   1  456.08   20.09
  -7 -16   0    1.33    3.14
  -7 -16  -1   31.64    5.80
  -7 -16  -2   11.23    4.23
  -7 -16  -3  144.69   11.69
  -7 -17   7   20.03    5.33
  -7 -17   6   93.05    8.98
  -7 -17   5   15.70    4.74
  -7 -17   4   19.23    4.66
  -7 -17   3  122.30   10.22
  -7 -17   2   88.08    8.86
  -7 -17   1   15.71    4.52
  -7 -17   0  215.13   13.62
  -7 -17  -1    4.90    3.87
  -7 -18   5   -6.93    4.13
  -7 -18   4   32.14    5.55
  -7 -18   3   91.98    9.10
  -7 -18   2   52.92    7.25
  -8   0  13   -1.70    3.72
  -8   0  12  267.79   15.10
  -8   0  11    1.61    3.80
  -8   0  10   -2.86    3.54
  -8   0   9   -1.36    3.25
  -8   0   8  133.72    9.78
  -8   0   7    2.16    2.88
  -8   0   6  142.98    9.47
  -8   0   5   -0.78    2.56
  -8   0   4  130.82    8.77
  -8   0   3   -1.61    2.90
  -8   0   2  427.12   16.24
  -8   0   1   -1.66    2.66
  -8   0   0 1050.74   28.10
  -8   0  -1   -0.69    2.46
  -8   0  -2    3.88    2.25
  -8   0  -3   -3.28    2.86
  -8   0  -4  122.61    8.46
  -8   0  -5   -4.88    2.76
  -8   0  -6  244.19   12.27
  -8   0  -7   -0.39    3.00
  -8   0  -8   11.55    3.35
   8   0   9    1.77    2.96
  -8   0  -9   -0.42    3.04
   8   0  10  882.55   28.37
  -8   0 -10  863.54   26.92
   8   0  11   -0.99    3.48
  -8   0 -11   -1.46    3.17
   8   0  12   79.17    8.45
  -8   0 -12   82.90    8.06
   8   0  13    2.72    3.47
  -8  -1  13   20.21    4.56
  -8   1  13    7.56    3.49
  -8  -1  12   73.47    8.03
  -8   1  12   84.30    8.60
  -8   1  11  141.13   10.86
  -8  -1  11  137.49   10.58
  -8  -1  10  133.13   10.09
  -8   1  10  136.70   10.34
  -8  -1   9  304.79   15.31
  -8   1   9  322.91   15.69
  -8   1   8  243.96   13.28
  -8  -1   8  244.87   13.18
  -8   1   7   41.77    5.54
  -8  -1   7   34.16    5.23
  -8  -1   6  623.30   21.36
  -8   1   6  622.35   21.23
  -8   1   5   47.35    5.60
  -8  -1   5   52.93    5.93
   8   1  -4    4.79    0.79
  -8  -1   4    9.35    3.09
  -8   1   4    4.22    2.85
   8   1  -3    1.38    0.69
  -8   1   3   -1.61    2.69
  -8  -1   3    4.06    2.58
  -8   1   2  763.85   22.98
  -8  -1   2  760.99   23.19
  -8  -1   1  188.42   10.39
  -8   1   1  205.26   10.61
  -8  -1   0  106.37    7.73
  -8   1   0   90.27    7.05
   8  -1   1  254.59    8.22
  -8  -1  -1  248.98   12.10
  -8   1  -1  253.45   11.80
   8  -1   2  134.46    6.34
  -8   1  -2  142.22    8.67
  -8  -1  -2  135.36    8.76
   8  -1   3    5.60    1.90
  -8  -1  -3    2.62    2.45
  -8   1  -3    3.58    2.58
   8  -1   4  332.58   12.27
  -8  -1  -4  312.09   13.96
  -8   1  -4  338.21   13.96
   8  -1   5   86.22    6.42
  -8   1  -5   81.89    6.85
  -8  -1  -5   92.14    7.45
   8  -1   6   59.90    5.67
  -8  -1  -6   48.35    5.66
  -8   1  -6   63.73    6.18
   8  -1   7    7.53    2.47
  -8  -1  -7    8.15    3.40
  -8   1  -7    8.57    3.31
   8  -1   8    0.05    2.35
  -8   1  -8    5.40    2.93
  -8  -1  -8    6.59    3.36
   8  -1   9  130.99    9.63
  -8   1  -9  140.26    9.37
  -8  -1  -9  143.00    9.87
   8  -1  10    6.24    3.12
  -8   1 -10    9.26    3.61
  -8  -1 -10   13.45    4.12
   8  -1  11   90.77    8.74
   8   1  11   87.30    8.68
  -8   1 -11   70.07    7.19
  -8  -1 -11   81.05    8.07
   8  -1  12    9.33    4.09
   8   1  12    5.60    3.71
  -8  -1 -12    1.81    3.16
   8   1  13   13.60    4.21
   8  -1  13   18.26    4.44
  -8  -2  13   20.69    5.11
  -8   2  13   13.02    4.59
  -8  -2  12   22.56    4.78
  -8   2  12   20.88    5.55
  -8  -2  11   45.24    6.49
  -8   2  11   41.38    6.58
  -8   2  10   11.69    4.30
  -8  -2  10    9.96    3.86
  -8   2   9   41.46    5.92
  -8  -2   9   40.60    5.79
  -8   2   8   10.21    3.61
  -8  -2   8   17.96    4.11
  -8   2   7    3.41    2.93
  -8  -2   7    0.58    4.47
   8   2  -6  103.02    4.45
  -8   2   6   92.03    7.80
  -8  -2   6   94.47    8.10
   8   2  -5  440.41   10.58
  -8  -2   5  411.69   16.70
  -8   2   5  404.26   16.38
   8   2  -4  103.19    4.20
  -8  -2   4  110.50    8.17
  -8   2   4   85.71    7.06
  -8   2   3   -2.03    2.61
  -8  -2   3    1.85    2.31
  -8   2   2    3.07    2.34
  -8  -2   2    3.69    2.77
  -8  -2   1  200.68   10.84
  -8   2   1  199.50   10.35
  -8  -2   0  112.98    8.05
  -8   2   0  111.75    7.69
   8  -2   1   13.99    1.78
  -8   2  -1   11.30    3.22
  -8  -2  -1    8.15    2.74
   8  -2   2  373.06   10.89
  -8   2  -2  365.71   14.33
  -8  -2  -2  350.23   14.77
   8  -2   3    2.33    1.43
  -8   2  -3   -0.98    2.32
   8  -2   4   70.51    5.24
  -8  -2  -4   63.99    6.35
  -8   2  -4   57.66    5.54
   8  -2   5   19.80    3.31
  -8  -2  -5   23.34    4.36
  -8   2  -5   30.85    4.58
   8  -2   6   58.08    5.50
  -8  -2  -6   61.54    6.47
  -8   2  -6   57.27    5.65
   8  -2   7    7.01    2.53
  -8  -2  -7    9.15    3.45
  -8   2  -7    4.39    2.59
   8  -2   8  384.56   15.97
  -8   2  -8  406.33   15.92
  -8  -2  -8  392.36   16.96
   8  -2   9   15.92    4.02
  -8   2  -9    8.34    2.90
  -8  -2  -9    5.76    3.36
   8  -2  10   59.28    6.70
  -8   2 -10   59.23    6.39
  -8  -2 -10   44.17    6.22
   8  -2  11   -0.72    3.40
  -8   2 -11    3.77    3.37
  -8  -2 -11   -4.84    3.94
   8  -2  12   78.28    8.26
  -8   2 -12   81.48    7.49
  -8  -2 -12   84.01    8.23
   8   2  13   77.41    8.61
   8  -2  13   79.26    8.47
  -8  -2 -13   77.77    8.58
  -8   3  13  181.47   12.77
  -8  -3  13  152.96   11.63
  -8  -3  12   25.10    5.43
  -8   3  12   29.71    5.68
  -8   3  11  138.18   10.71
  -8  -3  11  131.72   10.48
  -8   3  10   -0.65    3.30
  -8  -3  10    5.85    3.54
  -8   3   9  272.70   14.36
  -8  -3   9  245.15   13.64
  -8   3   8   49.47    6.26
  -8  -3   8   39.48    5.82
  -8   3   7   96.66    8.20
  -8  -3   7  119.97    9.20
  -8   3   6   48.01    5.57
   8   3  -6   45.62    3.31
  -8  -3   6   43.85    5.66
   8   3  -5   28.02    2.59
  -8  -3   5   27.86    4.73
  -8   3   5   24.68    4.55
  -8  -3   4  447.80   17.46
  -8   3   4  451.16   16.91
  -8  -3   3    1.13    2.47
  -8   3   3    4.04    3.16
  -8   3   2    6.82    2.63
  -8  -3   2    9.78    3.01
  -8  -3   1   11.87    3.40
  -8   3   1   15.02    3.53
  -8  -3   0   62.16    6.27
  -8   3   0   54.08    5.40
  -8   3  -1   55.50    5.46
  -8  -3  -1   53.67    5.89
   8  -3   2  293.58    8.95
  -8   3  -2  275.36   12.15
  -8  -3  -2  290.85   13.48
   8  -3   3  611.14   15.82
  -8   3  -3  574.76   18.65
  -8  -3  -3  586.97   20.34
   8  -3   4   80.10    5.34
  -8  -3  -4   87.00    7.48
  -8   3  -4   87.82    6.69
   8  -3   5   38.93    4.07
  -8  -3  -5   36.37    5.25
  -8   3  -5   37.70    4.57
   8  -3   6   57.49    5.30
  -8   3  -6   74.16    6.19
  -8  -3  -6   54.32    6.41
   8  -3   7  443.30   16.51
  -8  -3  -7  457.35   18.52
  -8   3  -7  492.63   16.99
   8  -3   8    2.65    2.55
  -8   3  -8   -1.05    2.22
  -8  -3  -8    5.68    3.53
   8  -3   9   39.12    5.56
  -8   3  -9   37.87    4.79
  -8  -3  -9   48.20    6.25
   8  -3  10   93.22    8.30
  -8  -3 -10   99.97    8.90
  -8   3 -10  101.95    7.66
   8  -3  11    3.65    3.49
  -8  -3 -11    0.44    3.42
  -8   3 -11   -0.16    2.60
   8  -3  12  103.52    9.48
  -8  -3 -12  110.05    9.77
   8  -3  13  313.27   17.00
  -8  -3 -13  329.14   17.23
  -8  -4  13  279.36   15.78
  -8   4  12   -1.14    3.02
  -8  -4  12   -0.69    3.23
  -8   4  11   19.46    4.52
  -8  -4  11   26.85    5.48
  -8   4  10   12.77    4.28
  -8  -4  10    0.26    3.32
  -8   4   9  123.00    9.77
  -8  -4   9  131.47    9.98
  -8   4   8   21.55    4.75
  -8  -4   8   21.68    4.53
  -8   4   7   16.74    4.09
  -8  -4   7   16.28    4.31
  -8   4   6   16.20    3.52
   8   4  -6   14.14    2.27
  -8  -4   6    9.24    3.28
  -8   4   5  168.64   10.13
  -8  -4   5  150.19   10.08
  -8   4   4  493.52   17.77
  -8  -4   4  486.86   18.50
  -8   4   3 1036.92   27.97
  -8  -4   3 1032.57   29.04
  -8   4   2  180.95    9.82
  -8  -4   2  174.27   10.41
  -8   4   1  788.54   22.84
  -8  -4   1  796.71   24.30
  -8   4   0   13.34    3.27
  -8  -4   0   15.12    3.81
  -8   4  -1  354.15   13.76
  -8  -4  -1  363.71   15.35
  -8  -4  -2    8.66    3.02
  -8   4  -2   11.74    3.05
  -8  -4  -3    5.63    3.00
  -8   4  -3    0.30    2.31
   8  -4   3    3.60    1.61
   8  -4   3    2.48    1.98
  -8   4  -4   -2.30    2.95
   8  -4   4    2.08    1.72
   8  -4   4    0.89    2.03
  -8  -4  -4    1.97    2.73
   8  -4   5   92.69    6.20
   8  -4   5   73.17    5.99
  -8   4  -5   86.61    6.52
  -8  -4  -5   77.73    7.40
   8  -4   6   42.58    4.65
  -8   4  -6   37.04    4.71
  -8  -4  -6   31.50    5.28
   8  -4   7  189.06   10.10
  -8  -4  -7  187.50   11.73
  -8   4  -7  179.92    9.55
   8  -4   8    9.69    3.15
  -8   4  -8    8.69    2.70
  -8  -4  -8   10.14    3.73
   8  -4   9  291.65   14.07
  -8   4  -9  291.93   12.69
  -8  -4  -9  309.84   15.47
   8  -4  10   98.18    8.40
  -8  -4 -10  106.61    9.32
  -8   4 -10   94.12    7.12
   8  -4  11  184.72   12.05
  -8  -4 -11  194.00   12.80
   8  -4  12    8.21    4.48
  -8  -4 -12    1.74    3.21
   8  -4  13   36.46    5.94
  -8  -5  13   15.17    4.77
  -8   5  12  121.70   10.39
  -8  -5  12  124.20   10.36
  -8  -5  11  212.16   13.30
  -8   5  11  254.02   14.68
  -8   5  10   42.92    6.24
  -8  -5  10   36.96    6.00
  -8  -5   9  407.67   18.10
  -8   5   9  455.61   18.95
  -8  -5   8  396.05   17.41
  -8   5   8  420.58   17.74
  -8  -5   7  355.19   16.03
  -8   5   7  336.84   15.38
   8   5  -6   22.15    2.85
  -8   5   6   25.71    4.41
  -8  -5   6   22.42    4.65
  -8   5   5   89.57    7.40
  -8  -5   5   91.56    7.99
  -8  -5   4  417.28   16.97
  -8   5   4  403.75   15.84
  -8  -5   3   82.47    7.38
  -8   5   3   93.48    7.19
  -8   5   2  173.93    9.59
  -8  -5   2  185.79   10.83
  -8  -5   1   26.91    4.70
  -8   5   1   20.62    3.81
  -8   5   0  378.77   14.23
  -8  -5   0  374.59   15.90
  -8   5  -1  479.42   16.15
  -8  -5  -1  450.63   17.76
   8  -5   2 1520.26   35.60
  -8   5  -2 1537.61   35.21
  -8  -5  -2 1555.33   38.77
   8  -5   3  479.52   16.13
   8  -5   3  434.17   16.57
  -8  -5  -3  464.85   18.33
  -8   5  -3  463.54   15.69
   8  -5   4   93.96    6.70
   8  -5   4   85.91    6.80
  -8  -5  -4   88.40    7.95
  -8   5  -4   84.56    6.35
   8  -5   5  699.85   20.69
   8  -5   5  719.38   19.61
   8  -5   5  669.76   20.50
  -8   5  -5  705.83   20.43
  -8  -5  -5  721.91   24.10
   8  -5   6  245.75   10.99
  -8  -5  -6  247.37   13.39
  -8   5  -6  259.64   11.23
   8  -5   7  113.86    7.71
  -8   5  -7  119.27    7.54
  -8  -5  -7  113.81    9.40
   8  -5   8   43.74    5.17
  -8   5  -8   44.39    4.73
  -8  -5  -8   44.01    6.26
   8  -5   9   56.08    6.17
  -8   5  -9   58.81    5.59
  -8  -5  -9   55.35    7.07
   8  -5  10    2.64    2.93
  -8  -5 -10    8.85    3.81
   8  -5  11   96.59    8.82
  -8  -5 -11  110.13    9.80
   8  -5  12   62.34    7.26
  -8  -5 -12   68.36    8.23
   8  -5  13   34.60    5.67
  -8  -6  13    2.37    3.02
  -8   6  12  101.50    9.55
  -8  -6  12  101.37    9.67
  -8  -6  11  179.13   12.11
  -8   6  11  182.67   12.70
  -8  -6  10  116.23    9.60
  -8   6  10  105.79    9.31
  -8   6   9    5.34    3.17
  -8  -6   9    1.36    2.96
  -8   6   8   38.05    5.86
  -8  -6   8   36.64    5.61
  -8   6   7   55.22    6.37
  -8  -6   7   38.26    5.68
   8   6  -6   28.11    3.46
  -8   6   6   31.07    4.88
  -8  -6   6   42.57    5.92
  -8   6   5  420.13   16.46
  -8  -6   5  393.72   16.87
  -8  -6   4   26.77    4.51
  -8   6   4   27.67    4.28
  -8  -6   3   -1.96    3.09
  -8   6   3    1.03    2.34
  -8  -6   2   69.39    6.76
  -8   6   2   52.94    5.44
  -8   6   1  124.36    7.94
  -8  -6   1  139.02    9.41
  -8   6   0  259.24   11.47
  -8  -6   0  267.27   13.32
  -8   6  -1    1.37    2.30
  -8  -6  -1    5.37    2.80
  -8   6  -2   50.92    4.96
  -8  -6  -2   53.72    6.46
  -8  -6  -3   17.93    4.38
  -8   6  -3   13.70    3.22
   8  -6   3   14.53    2.96
   8  -6   3   14.41    3.18
   8  -6   4  172.51    9.02
   8  -6   4  171.16    9.46
  -8   6  -4  170.91    8.75
  -8  -6  -4  169.16   10.88
  -8  -6  -5    0.47    2.91
  -8   6  -5    3.39    2.30
  -8  -6  -6   75.70    7.79
  -8   6  -6   59.16    5.30
  -8   6  -7    0.52    1.85
  -8  -6  -7   -2.56    3.29
   8  -6   8   41.05    5.07
  -8   6  -8   36.23    4.20
  -8  -6  -8   38.78    6.15
   8  -6   9   48.55    5.87
  -8  -6  -9   53.98    7.23
   8  -6  10   96.32    8.44
  -8  -6 -10   88.52    8.88
   8  -6  11   24.47    4.87
  -8  -6 -11   26.68    5.58
   8  -6  12   12.65    4.17
   8  -6  13  121.10   10.53
  -8   7  12   58.68    7.48
  -8  -7  12   55.48    7.03
  -8   7  11   36.10    5.90
  -8  -7  11   33.16    5.46
  -8   7  10  851.08   28.63
  -8  -7  10  854.15   28.36
  -8   7   9   14.35    4.39
  -8  -7   9   19.14    4.80
  -8  -7   8  279.75   14.56
  -8   7   8  254.26   13.90
  -8   7   7    2.13    2.97
  -8  -7   7   -1.52    3.23
  -8  -7   6  419.63   17.69
  -8   7   6  415.87   16.96
  -8   7   5   28.00    4.33
  -8  -7   5   17.40    4.17
  -8  -7   4   16.83    3.82
  -8   7   4   14.58    3.81
  -8  -7   3    5.52    3.51
  -8   7   3    3.22    2.60
  -8   7   2   39.07    4.59
  -8  -7   2   35.44    5.17
  -8   7   1   17.09    3.23
  -8  -7   1   15.69    4.30
  -8   7   0  568.50   17.93
  -8  -7   0  548.08   20.35
  -8   7  -1  136.19    7.89
  -8  -7  -1  135.35   10.14
  -8   7  -2  254.32   10.79
  -8  -7  -2  259.68   13.53
  -8   7  -3   32.69    3.88
   8  -7   3   38.73    4.76
  -8  -7  -3   44.82    6.06
   8  -7   4  741.82   22.33
  -8   7  -4  768.63   20.67
  -8  -7  -4  731.43   25.01
  -8   7  -5   15.89    3.15
  -8  -7  -5    7.04    3.28
  -8   7  -6   91.95    6.13
  -8  -7  -6  100.98    8.99
  -8  -7  -7   17.09    4.46
  -8   7  -7   10.69    2.86
  -8  -7  -8   37.45    5.95
  -8  -7  -9   30.29    5.77
  -8  -7 -10   47.68    6.74
  -8  -8  12    8.07    3.36
  -8   8  11  147.35   11.31
  -8  -8  11  128.26   10.39
  -8   8  10   57.11    7.33
  -8  -8  10   58.97    7.15
  -8   8   9   68.50    7.80
  -8  -8   9   71.47    7.54
  -8   8   8   46.08    6.17
  -8  -8   8   40.39    5.97
  -8   8   7   48.35    6.21
  -8  -8   7   45.33    5.96
  -8   8   6  244.77   12.72
  -8  -8   6  227.08   12.79
  -8   8   5  214.50   11.52
  -8  -8   5  204.12   11.95
  -8  -8   4   85.41    7.94
  -8   8   4   84.75    7.00
  -8  -8   3   14.67    4.08
  -8   8   3    9.34    2.70
  -8  -8   2  208.08   12.11
  -8   8   2  219.24   10.70
  -8   8   1  152.40    8.66
  -8  -8   1  146.32   10.27
  -8   8   0  225.43   10.31
  -8  -8   0  209.86   12.28
  -8   8  -1   10.53    2.68
  -8  -8  -1   17.35    4.48
  -8   8  -2    6.61    2.35
  -8  -8  -2    4.37    3.13
  -8   8  -3  119.04    6.92
  -8  -8  -3  117.47    9.35
  -8   8  -4    3.81    1.83
  -8  -8  -4   10.35    4.12
  -8   8  -5    1.94    1.94
  -8  -8  -5    1.29    3.24
  -8  -8  -6    0.43    3.14
  -8   8  -6    2.68    1.78
  -8  -8  -7   21.46    4.85
  -8  -8  -8  188.64   12.65
  -8  -8  -9    4.56    4.11
  -8  -9  12  459.00   20.61
  -8   9  11   51.21    7.19
  -8  -9  11   61.41    7.39
  -8   9  10  109.13    9.43
  -8  -9  10  105.84    9.29
  -8   9   9  111.32    9.26
  -8  -9   9  112.28    9.64
  -8   9   8  395.97   17.71
  -8  -9   8  414.33   18.29
  -8   9   7   43.47    6.00
  -8  -9   7   28.74    5.30
  -8   9   6   77.48    7.33
  -8  -9   6   72.22    7.62
  -8   9   5   47.71    5.59
  -8  -9   5   36.64    5.53
  -8   9   4  257.90   12.42
  -8  -9   4  264.67   14.02
  -8   9   3    2.95    2.44
  -8  -9   3    4.25    2.80
  -8   9   2  129.70    8.18
  -8  -9   2  136.75   10.14
  -8   9   1  105.79    7.07
  -8  -9   1  123.42    9.40
  -8  -9   0   11.03    3.58
  -8   9   0    8.81    2.84
  -8   9  -1   34.96    4.03
  -8  -9  -1   36.20    5.68
  -8   9  -2  409.30   13.71
  -8  -9  -2  396.32   17.75
  -8   9  -3   86.44    5.73
  -8  -9  -3   91.17    8.64
  -8  -9  -4   83.37    8.38
  -8   9  -4  108.26    6.23
  -8  -9  -5  138.45   10.53
  -8  -9  -6  140.42   10.96
  -8  -9  -7    3.95    3.65
  -8  -9  -8   21.72    5.09
  -8  10  11    1.16    3.01
  -8 -10  11    7.31    3.69
  -8  10  10   22.05    4.84
  -8 -10  10   12.49    4.00
  -8  10   9   19.70    4.75
  -8 -10   9   25.22    5.08
  -8  10   8    3.32    3.41
  -8 -10   8   -1.50    2.94
  -8  10   7  136.93   10.00
  -8 -10   7  117.80    9.71
  -8  10   6  137.46    9.44
  -8 -10   6  121.26    9.72
  -8  10   5   42.60    5.62
  -8 -10   5   40.46    6.13
  -8  10   4   12.90    3.42
  -8 -10   4   16.57    4.30
  -8  10   3  554.57   18.61
  -8 -10   3  556.68   21.26
  -8  10   2    9.19    2.90
  -8 -10   2   11.74    4.49
  -8  10   1   56.10    5.21
  -8 -10   1   53.88    6.57
  -8  10   0  143.59    8.02
  -8 -10   0  147.28   10.53
  -8  10  -1  207.09    9.29
  -8 -10  -1  209.95   12.73
  -8  10  -2   16.18    2.84
  -8 -10  -2   10.38    4.18
  -8 -10  -3   28.13    5.24
  -8 -10  -4    9.27    3.75
  -8 -10  -5    3.02    3.44
  -8 -10  -6   33.50    5.87
  -8 -10  -7   41.93    6.51
  -8 -11  11  230.30   14.14
  -8  11  10   63.43    7.45
  -8 -11  10   58.56    7.20
  -8  11   9  251.04   14.42
  -8 -11   9  250.98   14.44
  -8  11   8   24.54    4.92
  -8 -11   8   27.30    5.47
  -8  11   7  246.68   13.37
  -8 -11   7  251.03   14.19
  -8  11   6    5.38    3.33
  -8 -11   6    2.76    3.07
  -8 -11   5  101.70    8.98
  -8  11   5  108.72    8.18
  -8  11   4    1.54    2.36
  -8 -11   4    1.90    3.06
  -8  11   3    0.55    2.46
  -8 -11   3    2.09    3.47
  -8  11   2  193.26    9.82
  -8 -11   2  195.63   12.31
  -8  11   1   46.79    4.74
  -8 -11   1   41.79    6.27
  -8 -11   0   60.60    7.16
  -8  11   0   53.78    4.83
  -8  11  -1    9.88    2.58
  -8 -11  -1    6.63    3.63
  -8 -11  -2    8.46    3.88
  -8 -11  -3  328.32   16.69
  -8 -11  -4  102.78    9.43
  -8 -11  -5  156.28   11.64
  -8 -11  -6    4.18    3.54
  -8  12  10   -4.97    3.84
  -8 -12  10    2.41    3.15
  -8  12   9   36.42    5.78
  -8 -12   9   26.95    5.36
  -8  12   8    8.36    3.60
  -8 -12   8    7.79    3.54
  -8  12   7   -0.43    3.35
  -8 -12   7    0.21    2.98
  -8  12   6   -0.12    2.68
  -8 -12   6    2.64    3.05
  -8  12   5  213.41   11.53
  -8 -12   5  189.43   12.27
  -8  12   4    3.48    2.48
  -8 -12   4   -0.02    3.01
  -8  12   3  156.53    9.10
  -8 -12   3  136.49   10.37
  -8  12   2    7.55    2.48
  -8 -12   2    4.08    3.20
  -8  12   1  501.76   16.19
  -8 -12   1  492.15   20.57
  -8 -12   0   10.39    4.01
  -8 -12  -1   36.85    6.12
  -8 -12  -2   39.85    7.01
  -8 -12  -3  147.73   11.20
  -8 -12  -4   29.30    5.64
  -8 -12  -5   90.50    9.04
  -8  13  10  106.59    9.70
  -8  13   9  187.31   12.40
  -8 -13   9  178.70   12.40
  -8  13   8    3.95    3.36
  -8 -13   8    0.95    3.11
  -8  13   7   71.18    7.39
  -8 -13   7   63.52    7.30
  -8  13   6   87.40    7.90
  -8 -13   6   92.49    8.80
  -8  13   5  116.68    8.46
  -8 -13   5   97.88    9.10
  -8  13   4   17.86    3.60
  -8 -13   4   18.18    4.57
  -8  13   3    1.37    2.51
  -8 -13   3   -0.83    3.45
  -8 -13   2    8.28    3.81
  -8 -13   1   32.01    5.68
  -8 -13   0   80.29    8.38
  -8 -13  -1   40.82    6.36
  -8 -13  -2    7.65    3.67
  -8 -13  -3   34.15    6.06
  -8 -13  -4  478.17   21.45
  -8  14   9   -7.56    3.75
  -8  14   8    6.27    3.46
  -8 -14   8    6.92    3.78
  -8  14   7   11.78    3.81
  -8 -14   7    5.97    3.16
  -8  14   6   40.31    5.66
  -8 -14   6   36.87    6.11
  -8  14   5   72.36    6.97
  -8 -14   5   54.74    7.22
  -8 -14   4  141.95   10.91
  -8 -14   3   55.84    7.20
  -8 -14   2  118.80   10.01
  -8 -14   1    8.29    3.86
  -8 -14   0   24.78    5.42
  -8 -14  -1   13.14    4.67
  -8 -14  -2   14.39    4.88
  -8 -15   6   52.35    7.12
  -8 -15   5   10.77    4.60
  -8 -15   4  100.60    9.42
  -8 -15   3    4.01    3.15
  -8 -15   2   41.55    6.33
  -8 -15   1    3.12    3.53
  -9   0  11  217.46   13.81
  -9   0  10    2.68    3.58
  -9   0   9   14.47    4.36
  -9   0   8    1.86    3.01
  -9   0   7  420.90   18.19
  -9   0   6   -1.04    3.24
  -9   0   5  330.33   15.55
  -9   0   4    3.32    3.54
  -9   0   3 1869.35   44.77
  -9   0   2    2.50    3.07
  -9   0   1   32.55    4.98
   9   0   0   -1.04    1.25
  -9   0   0   -4.33    3.33
   9   0   1  168.71    6.93
  -9   0  -1  197.04   11.17
  -9   0  -2    1.03    2.57
  -9   0  -3  330.26   14.89
  -9   0  -4   -2.59    2.77
   9   0   5  265.22   11.90
  -9   0  -5  274.13   13.68
   9   0   6    2.39    2.57
  -9   0  -6    6.39    3.38
   9   0   7  427.25   17.03
  -9   0  -7  453.83   18.35
   9   0   8    5.71    3.17
  -9   0  -8   -1.17    2.98
   9   0   9  269.43   14.31
  -9   0  -9  292.93   14.74
   9   0  10    0.87    3.27
  -9   0 -10    5.11    3.49
   9   0  11   95.13    9.11
  -9   0 -11  100.42    8.98
   9   0  12    1.73    3.65
  -9   0 -12   -6.92    4.18
  -9  -1  11  238.45   14.75
  -9   1  11  247.43   14.88
  -9   1  10    3.09    3.73
  -9  -1  10   -2.12    3.50
  -9   1   9  191.77   12.61
  -9  -1   9  198.31   12.74
  -9  -1   8  141.87   10.73
  -9   1   8  146.99   10.62
  -9  -1   7  429.39   18.47
  -9   1   7  405.26   18.01
  -9  -1   6    6.19    2.99
  -9   1   6   17.16    4.36
  -9  -1   5   84.57    7.89
  -9   1   5   82.49    7.84
  -9   1   4   -0.73    3.07
  -9  -1   4   -0.83    3.06
  -9  -1   3   59.85    6.63
  -9   1   3   50.85    6.12
  -9  -1   2    5.45    2.87
  -9   1   2    5.82    2.56
  -9  -1   1   18.26    3.87
  -9   1   1   21.60    4.21
  -9  -1   0    2.83    3.11
  -9   1   0    1.33    2.63
   9  -1   1   17.06    2.03
  -9  -1  -1   26.57    4.48
  -9   1  -1   20.12    4.02
   9  -1   2  454.16   12.87
  -9   1  -2  439.50   17.21
  -9  -1  -2  440.44   17.60
   9  -1   3  237.45    9.47
  -9  -1  -3  250.07   13.02
  -9   1  -3  236.38   12.33
   9  -1   4  157.27    8.21
  -9   1  -4  160.58   10.12
   9  -1   5   76.42    6.02
  -9   1  -5   79.55    7.28
  -9  -1  -5   84.05    7.61
   9  -1   6   82.64    6.71
  -9  -1  -6   81.79    7.84
  -9   1  -6   75.54    7.24
   9  -1   7   -3.83    2.58
  -9  -1  -7   -5.81    3.41
   9  -1   8   13.41    3.41
  -9   1  -8    7.83    3.59
  -9  -1  -8   13.54    4.37
   9  -1   9    4.15    3.08
   9   1   9    4.47    3.35
  -9   1  -9   -0.70    3.14
  -9  -1  -9    0.84    3.33
   9   1  10    9.11    4.01
   9  -1  10    8.80    3.78
  -9   1 -10    5.12    3.43
  -9  -1 -10    8.91    3.74
   9   1  11   35.68    5.91
   9  -1  11   38.88    6.18
  -9   1 -11   40.03    5.95
  -9  -1 -11   40.77    6.06
   9  -1  12    4.64    3.69
   9   1  12   10.72    3.77
  -9  -1 -12   13.86    4.08
  -9   1 -12    9.06    4.07
  -9   2  11    6.10    3.05
  -9  -2  11   19.97    4.45
  -9   2  10   -5.12    4.18
  -9  -2  10   -2.66    2.91
  -9   2   9  353.48   17.20
  -9  -2   9  344.60   17.15
  -9   2   8   46.54    6.56
  -9  -2   8   49.50    6.67
  -9  -2   7    6.83    3.65
  -9   2   7    7.04    3.15
  -9  -2   6  231.46   13.11
  -9   2   6  242.88   13.34
  -9  -2   5  225.43   12.85
  -9   2   5  221.33   12.46
  -9   2   4  175.29   10.71
  -9  -2   4  160.56   10.74
  -9   2   3   63.03    6.70
  -9  -2   3   76.38    7.57
  -9  -2   2  152.53   10.18
  -9   2   2  160.15   10.08
  -9  -2   1   50.37    6.23
  -9   2   1   39.55    5.28
  -9  -2   0   98.74    8.28
  -9   2   0   90.87    7.54
  -9   2  -1   55.95    5.82
  -9  -2  -1   56.05    6.41
   9  -2   2    1.03    1.70
  -9  -2  -2   -0.45    2.66
  -9   2  -2   -3.97    3.18
   9  -2   3    1.41    1.39
  -9  -2  -3    1.09    2.68
  -9   2  -3    1.40    2.74
   9  -2   4  152.14    7.70
  -9  -2  -4  150.50   10.35
  -9   2  -4  138.61    9.20
   9  -2   5  523.57   16.76
  -9   2  -5  532.58   19.13
  -9  -2  -5  521.38   20.16
   9  -2   6   -1.93    2.56
  -9  -2  -6    4.78    3.56
  -9   2  -6    1.39    2.58
   9  -2   7   50.67    5.42
  -9  -2  -7   55.37    6.84
  -9   2  -7   63.96    6.61
   9  -2   8   20.29    3.87
  -9  -2  -8   29.78    5.25
  -9   2  -8   25.28    4.63
   9  -2   9   79.01    7.60
  -9   2  -9   96.64    8.12
  -9  -2  -9   76.98    7.93
   9  -2  10   11.74    3.73
  -9   2 -10   14.27    4.06
  -9  -2 -10    6.85    3.82
   9  -2  11  110.91    9.72
  -9   2 -11  133.40    9.98
  -9  -2 -11  129.97   10.65
   9  -2  12   70.56    8.07
   9   2  12   57.56    7.70
  -9  -2 -12   56.26    7.64
  -9   3  11    2.21    3.32
  -9  -3  11    2.60    3.17
  -9   3  10  416.29   19.21
  -9  -3  10  414.57   19.24
  -9   3   9    2.31    3.11
  -9  -3   9    3.88    3.02
  -9   3   8    6.31    3.70
  -9  -3   8    1.26    2.77
  -9  -3   7   41.36    6.00
  -9   3   7   50.00    6.57
  -9  -3   6  135.59   10.15
  -9   3   6  130.09    9.72
  -9  -3   5  109.04    9.17
  -9   3   5  118.43    9.04
  -9   3   4   12.64    3.68
  -9  -3   4   12.07    4.07
  -9   3   3  233.85   12.45
  -9  -3   3  258.65   13.41
  -9  -3   2    5.03    2.87
  -9   3   2   -2.71    2.78
  -9  -3   1    2.74    2.86
  -9   3   1   -1.22    2.43
  -9  -3   0  780.97   25.00
  -9   3   0  742.78   23.28
  -9   3  -1   25.61    4.42
  -9  -3  -1   14.67    4.16
  -9  -3  -2  196.64   11.68
  -9   3  -2  195.19   10.70
  -9   3  -3  114.33    8.20
  -9  -3  -3  133.14    9.76
   9  -3   4  363.62   12.17
  -9  -3  -4  333.25   15.90
  -9   3  -4  352.64   14.77
   9  -3   5  109.40    6.79
  -9   3  -5  104.03    8.01
  -9  -3  -5  105.44    8.97
   9  -3   6   90.59    6.66
  -9   3  -6   95.83    7.66
  -9  -3  -6   87.53    8.26
   9  -3   7    8.48    2.62
  -9  -3  -7   18.01    4.34
  -9   3  -7   18.63    4.14
   9  -3   8   -2.41    2.64
  -9  -3  -8    1.73    3.36
  -9   3  -8    4.28    3.09
   9  -3   9   17.10    3.81
  -9   3  -9   17.30    4.34
  -9  -3  -9    6.25    3.32
   9  -3  10   14.75    3.72
  -9   3 -10   16.15    4.34
  -9  -3 -10   14.85    4.46
   9  -3  11   27.19    5.24
  -9  -3 -11   28.20    5.65
   9  -3  12   73.84    8.05
  -9   4  11   15.76    4.40
  -9  -4  11   18.07    5.15
  -9   4  10   53.69    7.26
  -9  -4  10   59.89    7.38
  -9   4   9    0.61    3.24
  -9  -4   9    1.81    2.91
  -9  -4   8  136.96   10.58
  -9   4   8  127.10    9.91
  -9  -4   7    4.99    3.04
  -9   4   7    2.92    3.48
  -9  -4   6  190.32   12.05
  -9   4   6  177.53   11.29
  -9   4   5   -0.25    2.93
  -9  -4   5    3.62    3.42
  -9   4   4  549.87   20.06
  -9  -4   4  535.40   20.65
  -9   4   3   11.32    3.69
  -9  -4   3    8.24    3.50
  -9  -4   2    6.21    3.45
  -9   4   2    7.69    3.39
  -9  -4   1    4.21    3.12
  -9   4   1    6.69    2.87
  -9   4   0   56.62    5.96
  -9  -4   0   65.81    6.96
  -9   4  -1  330.11   14.18
  -9  -4  -1  353.80   16.10
  -9  -4  -2   43.65    5.85
  -9   4  -2   46.52    5.26
  -9  -4  -3   -0.70    3.12
  -9   4  -3    0.33    2.28
  -9   4  -4   10.45    3.01
  -9  -4  -4   22.74    4.91
   9  -4   5    1.07    1.61
  -9   4  -5    1.41    2.52
  -9  -4  -5   -1.23    3.43
   9  -4   6  375.91   14.02
  -9  -4  -6  365.51   17.21
  -9   4  -6  362.03   14.91
   9  -4   7    2.55    2.30
  -9  -4  -7    6.94    3.64
  -9   4  -7    0.70    2.36
   9  -4   8  104.86    7.96
  -9   4  -8   88.60    7.43
  -9  -4  -8   93.94    8.99
   9  -4   9    2.35    2.49
  -9   4  -9    6.68    3.38
  -9  -4  -9    0.17    3.15
   9  -4  10  342.51   16.24
  -9  -4 -10  389.79   18.66
   9  -4  11    7.66    4.31
   9  -4  12   36.00    6.03
  -9   5  10  123.19   10.43
  -9  -5  10  107.21    9.60
  -9  -5   9  152.34   11.26
  -9   5   9  165.80   11.58
  -9  -5   8  241.09   14.02
  -9   5   8  237.52   13.89
  -9   5   7    0.82    3.03
  -9  -5   7   -0.39    3.30
  -9   5   6   45.79    6.27
  -9  -5   6   42.34    6.15
  -9   5   5   41.76    5.68
  -9  -5   5   53.23    6.52
  -9  -5   4   54.79    6.60
  -9   5   4   61.84    6.71
  -9  -5   3    7.00    3.92
  -9   5   3   -2.93    2.97
  -9   5   2   76.79    7.02
  -9  -5   2   71.78    7.38
  -9   5   1   31.70    4.69
  -9  -5   1   26.67    5.13
  -9   5   0  338.85   14.32
  -9  -5   0  328.44   15.74
  -9   5  -1  260.17   12.18
  -9  -5  -1  256.68   13.79
  -9   5  -2  638.33   20.52
  -9  -5  -2  671.54   23.62
  -9  -5  -3   18.93    4.77
  -9   5  -3   20.05    3.52
  -9   5  -4  169.40    9.65
  -9  -5  -4  178.18   11.64
  -9   5  -5  434.96   16.26
  -9  -5  -5  461.03   19.51
  -9  -5  -6  160.08   11.35
  -9   5  -6  146.07    8.96
  -9  -5  -7   22.35    4.98
  -9   5  -7   23.60    4.04
  -9   5  -8   12.14    2.94
  -9  -5  -8   12.00    4.52
  -9  -5  -9   30.11    5.50
  -9   6  10   24.01    5.05
  -9  -6  10   16.60    4.67
  -9   6   9    2.88    3.09
  -9  -6   9    1.41    3.10
  -9   6   8    6.80    3.05
  -9  -6   8    5.02    3.03
  -9   6   7  347.09   16.46
  -9  -6   7  339.10   16.72
  -9   6   6  178.36   11.42
  -9  -6   6  185.32   11.93
  -9  -6   5   44.57    6.37
  -9   6   5   43.66    5.91
  -9   6   4  165.39   10.44
  -9  -6   4  183.54   11.76
  -9   6   3  230.47   12.02
  -9  -6   3  215.85   12.74
  -9   6   2   99.63    7.90
  -9  -6   2  107.54    8.96
  -9   6   1  187.99   10.51
  -9  -6   1  199.81   12.09
  -9   6   0   35.28    4.61
  -9  -6   0   43.31    6.01
  -9   6  -1   98.52    7.31
  -9  -6  -1   82.50    7.94
  -9  -6  -2    6.76    3.75
  -9   6  -2   -2.64    2.75
  -9  -6  -3   72.48    7.82
  -9   6  -3   58.79    5.49
  -9   6  -4  263.47   11.87
  -9  -6  -4  268.97   14.69
  -9  -6  -5   64.84    7.49
  -9   6  -5   67.39    5.97
  -9  -6  -6    6.26    3.81
  -9   6  -6    3.61    2.28
  -9  -6  -7  189.21   12.77
  -9  -6  -8   35.14    6.16
  -9   7  10    4.23    3.23
  -9  -7  10   -4.78    4.28
  -9   7   9  193.09   12.67
  -9  -7   9  176.91   12.33
  -9   7   8   12.66    4.27
  -9  -7   8   20.39    4.62
  -9   7   7  242.65   13.83
  -9  -7   7  258.01   14.64
  -9   7   6   18.07    4.41
  -9  -7   6   22.79    4.90
  -9   7   5   20.44    4.32
  -9  -7   5   28.65    5.32
  -9  -7   4   55.07    6.66
  -9   7   4   60.37    6.61
  -9  -7   3    2.10    3.12
  -9   7   3    1.18    2.71
  -9   7   2   34.97    4.81
  -9  -7   2   29.09    5.52
  -9   7   1  681.60   21.61
  -9  -7   1  676.79   24.14
  -9   7   0    1.79    2.66
  -9  -7   0    1.34    3.18
  -9   7  -1  468.69   16.73
  -9  -7  -1  480.15   19.91
  -9  -7  -2    9.59    4.10
  -9   7  -2    2.46    2.23
  -9   7  -3   71.66    6.01
  -9  -7  -3   72.59    8.04
  -9   7  -4   11.91    2.79
  -9  -7  -4    2.55    3.51
  -9   7  -5    1.17    2.31
  -9  -7  -5    4.22    3.10
  -9  -7  -6    8.12    3.17
  -9  -7  -7  123.21   10.48
  -9   8  10   11.79    4.33
  -9   8   9  227.66   13.97
  -9  -8   9  239.78   14.35
  -9   8   8    0.79    3.02
  -9  -8   8   -3.65    3.39
  -9   8   7  145.59   10.71
  -9  -8   7  143.97   10.98
  -9  -8   6   34.89    5.89
  -9   8   6   49.81    6.52
  -9  -8   5  159.74   11.31
  -9   8   5  146.67   10.08
  -9  -8   4   34.84    6.07
  -9   8   4   30.17    4.82
  -9  -8   3  214.92   13.01
  -9   8   3  201.65   11.21
  -9   8   2    5.29    2.60
  -9  -8   2   10.06    3.97
  -9  -8   1   60.11    7.15
  -9   8   1   62.94    6.04
  -9   8   0  102.71    7.46
  -9  -8   0  117.90    9.78
  -9   8  -1   -1.00    2.21
  -9  -8  -1   -2.41    3.99
  -9  -8  -2    0.76    3.13
  -9   8  -2    0.77    2.15
  -9   8  -3    3.57    1.97
  -9  -8  -3    4.43    3.28
  -9   8  -4   47.97    4.90
  -9  -8  -4   45.61    6.56
  -9  -8  -5   41.12    6.16
  -9  -8  -6   45.70    6.64
  -9   9  10   77.53    8.53
  -9   9   9  220.58   13.76
  -9  -9   8  191.05   12.56
  -9   9   8  162.52   11.64
  -9   9   7   30.52    5.58
  -9  -9   7   39.09    6.10
  -9   9   6   13.74    4.04
  -9  -9   6    6.90    3.27
  -9  -9   5   -3.20    3.53
  -9   9   5   -3.29    2.86
  -9   9   4    9.23    3.62
  -9  -9   4    1.89    3.44
  -9   9   3   90.03    7.45
  -9  -9   3   90.88    8.64
  -9   9   2   37.99    4.98
  -9  -9   2   29.88    5.60
  -9  -9   1   73.10    8.01
  -9   9   1   65.13    6.11
  -9  -9   0   63.44    7.62
  -9   9   0   62.53    6.02
  -9   9  -1  639.64   19.55
  -9  -9  -1  615.21   23.76
  -9  -9  -2   97.96    9.33
  -9   9  -2  106.49    7.04
  -9  -9  -3   88.66    8.80
  -9  -9  -4   68.07    8.01
  -9  -9  -5   61.84    7.79
  -9  10   9    3.52    3.23
  -9  10   8  164.44   11.64
  -9  10   7    7.81    3.63
  -9 -10   7   10.06    3.93
  -9  10   6   30.30    4.99
  -9 -10   6   40.43    6.31
  -9  10   5    1.74    2.97
  -9 -10   5   -3.91    3.63
  -9  10   4  181.01   10.84
  -9 -10   4  167.45   11.82
  -9 -10   3   49.04    6.86
  -9  10   3   27.04    4.62
  -9  10   2    8.59    2.83
  -9 -10   2    7.86    3.57
  -9  10   1   97.12    7.25
  -9 -10   1  107.56    9.50
  -9  10   0   11.86    2.79
  -9 -10   0   10.12    4.19
  -9 -10  -1    0.55    3.21
  -9 -10  -2  167.31   11.83
  -9 -10  -3   25.48    5.52
  -9 -10  -4   69.12    8.23
  -9  11   9   -0.18    3.00
  -9  11   8  125.48    9.99
  -9  11   7   17.54    4.34
  -9  11   6   92.76    8.26
  -9 -11   6   74.64    8.29
  -9  11   5   -0.51    2.94
  -9 -11   5    2.79    3.55
  -9  11   4   31.59    4.98
  -9 -11   4   21.05    4.61
  -9 -11   3    2.26    3.09
  -9  11   3    1.75    2.39
  -9  11   2    7.37    2.78
  -9 -11   2    7.45    3.48
  -9 -11   1   34.66    6.10
  -9  11   1   25.93    3.92
  -9 -11   0  250.53   14.81
  -9 -11  -1    0.42    3.33
  -9 -11  -2   55.02    7.31
  -9  12   9   87.51    9.02
  -9  12   8   39.73    6.25
  -9  12   7   12.66    4.35
  -9  12   6  192.66   12.01
  -9  12   5   81.35    7.64
  -9  12   4  139.41    9.46
  -9 -12   4  158.65   11.72
  -9 -12   3   47.55    6.94
  -9  12   3   56.59    5.93
  -9 -12   2  131.33   10.65
  -9 -12   1   36.71    6.49
  -9  13   8  142.28   10.91
  -9  13   7   22.98    4.77
  -9  13   6    1.40    3.38
 -10   0   8  847.80   29.15
 -10   0   7    5.71    3.31
 -10   0   6  221.45   13.37
 -10   0   5   -1.79    3.24
 -10   0   4  854.43   27.89
 -10   0   3   -2.54    3.01
 -10   0   2   33.75    5.71
 -10   0   1   -1.00    3.05
 -10   0   0   70.46    7.34
 -10   0  -1   -0.30    3.35
 -10   0  -2  248.52   13.71
 -10   0  -3    1.67    3.24
 -10   0  -4   81.82    8.04
 -10   0  -5    3.01    3.64
 -10   0  -6  601.30   22.76
 -10   0  -7    4.48    3.32
 -10   0  -8   26.02    5.06
 -10   0  -9   -3.89    3.76
 -10   0 -10  154.17   11.45
 -10  -1   8   18.30    4.59
 -10   1   8   21.40    5.07
 -10  -1   7   -4.24    3.95
 -10   1   7    6.15    3.51
 -10  -1   6   -6.29    3.74
 -10   1   6   -5.16    3.38
 -10   1   5   11.87    4.11
 -10  -1   5   11.68    4.39
 -10  -1   4   62.63    7.15
 -10   1   4   80.63    8.13
 -10  -1   3   96.90    8.70
 -10   1   3  103.78    8.85
 -10  -1   2  244.77   13.65
 -10   1   2  207.54   12.37
 -10  -1   1   60.87    6.95
 -10   1   1   64.65    7.05
 -10   1   0   46.62    6.09
 -10  -1   0   50.93    6.53
 -10  -1  -1  196.80   12.12
 -10   1  -1  167.93   10.92
 -10   1  -2  140.62    9.98
 -10  -1  -2  140.86   10.41
 -10  -1  -3   42.06    6.05
 -10   1  -3   41.05    5.85
 -10  -1  -4  163.81   11.29
 -10   1  -4  137.03   10.04
 -10  -1  -5   90.35    8.51
 -10   1  -5   96.07    8.55
 -10  -1  -6   24.13    5.32
 -10   1  -6   28.19    5.37
 -10  -1  -7   56.28    7.05
 -10   1  -7   45.29    6.37
 -10   1  -8    9.82    4.35
 -10  -1  -8    3.46    3.46
 -10   1  -9   45.21    6.29
 -10  -1  -9   70.37    7.77
 -10   1 -10   39.43    6.39
 -10  -1 -10   37.13    5.96
 -10   2   8   38.69    6.28
 -10  -2   8   41.53    6.68
 -10  -2   7   98.21    9.29
 -10   2   7  104.17    9.38
 -10   2   6  101.57    9.11
 -10  -2   6   88.49    8.67
 -10   2   5  270.06   14.60
 -10  -2   5  257.96   14.54
 -10  -2   4   28.48    5.17
 -10   2   4   27.28    5.50
 -10  -2   3   74.42    7.58
 -10   2   3   57.12    6.83
 -10  -2   2   62.54    7.05
 -10   2   2   59.65    6.67
 -10  -2   1   12.91    4.15
 -10   2   1   16.12    4.30
 -10   2   0   95.72    8.43
 -10  -2   0  102.55    8.88
 -10  -2  -1   -0.78    3.23
 -10   2  -1   -3.59    3.53
 -10  -2  -2   46.75    6.45
 -10   2  -2   36.32    5.39
 -10  -2  -3   79.16    7.84
 -10   2  -3   82.93    7.77
 -10  -2  -4  351.12   16.82
 -10   2  -4  338.47   15.69
 -10  -2  -5  283.45   15.14
 -10   2  -5  275.69   14.01
 -10  -2  -6  103.65    9.26
 -10   2  -6  113.62    9.18
 -10  -2  -7  272.71   15.22
 -10   2  -7  297.00   14.79
 -10   2  -8  154.85   10.71
 -10  -2  -8  161.33   11.81
 -10   2  -9   21.83    4.93
 -10  -2  -9   26.83    5.75
 -10  -3   8   55.18    7.29
 -10   3   8   69.27    7.86
 -10   3   7   18.40    4.46
 -10  -3   7   29.45    5.60
 -10   3   6    9.32    3.90
 -10  -3   6    5.12    3.16
 -10   3   5   88.63    8.54
 -10  -3   5   90.50    8.76
 -10   3   4    6.95    3.25
 -10  -3   4    3.90    3.24
 -10  -3   3   26.97    4.93
 -10   3   3   25.63    4.80
 -10  -3   2    7.50    3.80
 -10   3   2    7.36    3.30
 -10  -3   1  483.69   20.21
 -10   3   1  501.21   19.45
 -10   3   0   90.98    7.95
 -10  -3   0   83.98    8.25
 -10  -3  -1    9.47    4.54
 -10   3  -1    0.87    2.89
 -10  -3  -2   36.09    5.73
 -10   3  -2   31.78    5.08
 -10   3  -3  153.34   10.30
 -10  -3  -3  164.72   11.51
 -10   3  -4   61.73    6.67
 -10  -3  -4   80.45    8.24
 -10  -3  -5  114.64    9.78
 -10   3  -5  119.38    9.04
 -10   3  -6   40.87    5.81
 -10  -3  -6   34.54    6.03
 -10  -3  -7   -7.74    4.57
 -10   3  -7   -6.00    3.81
 -10  -3  -8   11.30    4.43
 -10   3  -8   11.58    3.80
 -10   4   8   21.32    4.77
 -10  -4   7  748.02   26.94
 -10   4   7  705.69   25.84
 -10  -4   6   98.56    9.25
 -10   4   6   96.43    8.88
 -10   4   5  265.52   14.54
 -10  -4   5  251.45   14.42
 -10   4   4    7.39    4.02
 -10  -4   4   15.91    4.89
 -10   4   3  154.27   10.80
 -10  -4   3  163.74   11.47
 -10  -4   2   -0.58    2.87
 -10   4   2    3.74    2.95
 -10  -4   1  217.21   13.12
 -10   4   1  196.79   11.69
 -10   4   0   -1.29    3.32
 -10  -4   0    2.90    3.22
 -10  -4  -1    8.03    3.58
 -10   4  -1    9.94    3.79
 -10  -4  -2   10.63    3.85
 -10   4  -2    5.23    3.39
 -10   4  -3  134.29    9.39
 -10  -4  -3  133.35   10.56
 -10   4  -4    4.65    3.22
 -10  -4  -4    8.55    3.08
 -10   4  -5   44.49    5.75
 -10  -4  -5   50.56    6.65
 -10   4  -6   29.87    5.11
 -10  -4  -6   24.37    5.04
 -10  -4  -7  212.76   13.84
 -10   4  -7  195.15   11.41
 -10   5   8   57.22    7.22
 -10   5   7   30.87    5.71
 -10  -5   7   32.49    5.97
 -10   5   6   43.97    6.49
 -10  -5   6   63.91    7.60
 -10  -5   5   77.40    8.35
 -10   5   5   94.24    8.52
 -10   5   4   12.82    3.95
 -10  -5   4    9.70    3.61
 -10  -5   3   73.49    7.94
 -10   5   3   72.08    7.56
 -10  -5   2  101.92    9.29
 -10   5   2   90.96    8.19
 -10   5   1   85.60    7.62
 -10  -5   1   94.86    8.91
 -10   5   0  106.20    8.42
 -10  -5   0  117.80    9.75
 -10  -5  -1   51.76    6.71
 -10   5  -1   49.59    6.06
 -10  -5  -2   23.69    5.38
 -10   5  -2   24.15    4.54
 -10  -5  -3   39.51    6.29
 -10   5  -3   33.88    5.00
 -10   5  -4    6.71    3.38
 -10  -5  -4   -0.43    3.40
 -10  -5  -5  153.22   11.52
 -10   5  -5  140.17    9.38
 -10  -5  -6   37.96    6.33
 -10   5  -6   34.03    4.76
 -10   6   8   54.04    6.84
 -10   6   7   46.47    6.62
 -10   6   6   30.31    5.54
 -10  -6   6   26.71    4.99
 -10   6   5  188.89   12.14
 -10  -6   5  194.03   12.77
 -10   6   4  175.74   11.38
 -10  -6   4  176.28   12.24
 -10  -6   3   12.61    4.25
 -10   6   3   10.83    4.04
 -10   6   2   74.08    7.32
 -10  -6   2   71.65    7.86
 -10   6   1   20.74    4.42
 -10  -6   1   22.74    5.22
 -10   6   0   30.92    4.80
 -10  -6   0   22.46    4.78
 -10  -6  -1   16.49    4.27
 -10   6  -1   15.45    3.70
 -10  -6  -2   61.05    7.28
 -10   6  -2   64.42    6.43
 -10   6  -3    0.55    2.68
 -10  -6  -3   -2.03    3.14
 -10   6  -4   -0.10    2.90
 -10  -6  -4    8.88    4.11
 -10   7   8   14.78    4.40
 -10   7   7    1.45    3.16
 -10   7   6    4.66    2.93
 -10  -7   5   -4.87    3.61
 -10   7   5    2.57    2.91
 -10  -7   4   92.45    9.00
 -10   7   4   79.17    7.86
 -10   7   3    6.32    3.47
 -10  -7   3    7.77    4.09
 -10   7   2  114.75    8.74
 -10  -7   2  112.16    9.75
 -10   7   1  113.11    8.57
 -10  -7   1  111.65    9.75
 -10   7   0  157.01    9.93
 -10  -7   0  155.73   11.42
 -10  -7  -1   74.04    7.99
 -10   7  -1   66.49    6.53
 -10  -7  -2  227.58   14.06
 -10   7  -2  221.72   11.60
 -10   7  -3   -1.22    2.47
 -10  -7  -3    7.89    3.74
 -10   8   8   45.55    6.82
 -10   8   7   12.26    3.47
 -10   8   6  234.43   13.69
 -10   8   5   47.56    6.60
 -10   8   4   99.19    8.78
 -10   8   3   -1.55    3.02
 -10  -8   3   -2.16    3.27
 -10  -8   2   38.29    6.26
 -10   8   2   54.07    6.39
 -10   8   1   61.49    6.53
 -10  -8   1   59.19    7.49
 -10   8   0   14.20    4.10
 -10  -8   0   19.54    5.01
 -10   8  -1    1.38    2.48
 -10   9   7   30.54    5.55
 -10   9   6   64.34    7.37
 -10   9   5    8.56    4.02
 -10   9   4    6.79    3.90
 -10   9   3   50.76    6.12
 -10   9   2  126.16    9.22
 -10   9   1   23.89    4.35
 -10   9   0   99.76    7.83
 -10  10   7  202.70   12.96
 -10  10   6   51.08    6.60
 -10  10   5   86.67    8.17
 -10  10   4    9.85    3.86
 -10  10   3    9.48    3.05
 -10  10   2   42.64    5.67
 -10  11   7   14.79    4.53
 -10  11   6    9.11    3.98
 -10  11   5    0.29    3.23
 -10  11   4   28.63    5.26
 -11   0   4   -4.28    4.36
 -11   0   3   91.95    8.94
 -11   0   2   -1.06    3.04
 -11   0   1   27.80    5.32
 -11   0   0   -4.45    3.62
 -11   0  -1   62.21    7.37
 -11   0  -2   -1.55    3.07
 -11   0  -3  115.22    9.80
 -11   0  -4   -6.16    3.46
 -11   0  -5  361.82   17.67
 -11   0  -6   -0.98    3.81
 -11   1   4   -6.15    3.78
 -11  -1   3  163.74   11.78
 -11   1   3  165.73   11.72
 -11  -1   2   79.33    8.33
 -11   1   2   91.94    8.83
 -11   1   1   76.95    8.17
 -11  -1   1   70.40    8.01
 -11  -1   0   30.44    5.57
 -11   1   0   28.36    5.34
 -11  -1  -1  100.61    9.12
 -11   1  -1   82.71    8.20
 -11  -1  -2    4.82    3.34
 -11   1  -2    5.38    3.51
 -11  -1  -3   45.50    6.39
 -11   1  -3   35.58    5.80
 -11   1  -4   12.03    4.22
 -11  -1  -4   19.93    4.66
 -11   1  -5    4.80    3.12
 -11  -1  -5    1.40    3.13
 -11   1  -6   -8.42    3.35
 -11   1  -7   50.90    6.85
 -11   2   5  179.56   12.65
 -11   2   4    1.69    2.93
 -11  -2   3    5.85    4.02
 -11   2   3    4.06    3.19
 -11  -2   2    0.71    3.19
 -11   2   2   -7.60    3.96
 -11   2   1   85.96    8.40
 -11  -2   1   73.17    8.10
 -11  -2   0   87.87    8.71
 -11   2   0   66.46    7.40
 -11  -2  -1   29.79    5.61
 -11   2  -1   20.54    4.92
 -11  -2  -2   66.19    7.69
 -11   2  -2   58.64    7.08
 -11  -2  -3   91.50    8.92
 -11   2  -3   89.29    8.50
 -11  -2  -4  124.79   10.50
 -11   2  -4  143.48   10.61
 -11   2  -5   57.48    7.22
 -11   2  -6   -4.26    4.05
 -11   2  -7   29.20    5.85
 -11   3   5   19.10    5.04
 -11   3   4  239.20   14.30
 -11   3   3    9.14    3.96
 -11   3   2  171.01   11.79
 -11   3   1   -5.31    3.75
 -11  -3   1    1.00    3.59
 -11   3   0  104.74    9.08
 -11  -3   0  114.71   10.07
 -11  -3  -1   82.72    8.53
 -11   3  -1   69.95    7.63
 -11   3  -2    9.20    3.55
 -11   3  -3   16.14    4.59
 -11   3  -4    1.87    3.06
 -11   3  -5   -6.16    3.75
 -11   3  -6   32.47    5.72
 -11   4   5   14.64    4.18
 -11   4   4  206.09   13.08
 -11   4   3   12.17    3.84
 -11   4   2    0.78    2.97
 -11   4   1    3.39    3.15
 -11   4   0    3.82    3.00
 -11   4  -1   22.50    5.12
 -11   4  -2   39.25    5.62
 -11   4  -3    2.40    3.08
 -11   4  -4   74.79    7.81
 -11   4  -5    5.02    3.29
 -11   5   5   -4.97    3.33
 -11   5   4  135.43   10.52
 -11   5   3   74.86    7.89
 -11   5   2  140.62   10.38
 -11   5   1   41.87    6.14
 -11   5   0  151.59   10.75
 -11   5  -1  148.22   10.47
 -11   5  -2   14.69    3.87
 -11   5  -3   18.06    4.47
 -11   5  -4    7.80    3.72
 -11   6   5   78.94    8.33
 -11   6   4    1.84    3.30
 -11   6   3   16.62    4.42
 -11   6   2   74.79    7.74
 -11   6   1   17.21    4.58
 -11   6   0   23.05    4.98
 -11   6  -1   16.16    4.07
 -11   6  -2    5.88    3.37
 -11   7   5  160.97   11.73
 -11   7   4   -1.49    3.59
 -11   7   3    7.52    3.77
 -11   7   2   27.41    5.28
 -11   7   1  358.43   16.47
 -11   7   0    1.03    3.10
 -11   7  -1   69.10    7.09
 -11   8   5   84.97    8.50
 -11   8   4    5.49    2.93
 -11   8   3  186.35   12.01
 -11   8   2   23.35    4.80
 -11   8   1    8.61    3.79
 -11   9   5   17.89    4.97
 -11   9   4   91.30    8.77
 -11   9   3  181.09   11.90
   0   0   0    0.00    0.00


TITL pvl-un1_auto in P2(1)/n
REM P2(1)/n (#14 in standard setting)
CELL 0.71073   8.959403  16.747512  15.072203  90.0000  94.0273  90.0000
ZERR   26.00   0.000319   0.000599   0.000552   0.0000   0.0034   0.0000
LATT  1
SYMM -x+1/2, y+1/2,-z+1/2
SFAC C H N O S Cd
UNIT 26.00 26.00 26.00 26.00 26.00 26.00
REM  CrysAlisPro recorded range (K): Min=130.0; max=130.0; aver:130.0
TEMP -143
TREF
HKLF 4
END
_computing_structure_solution     'SHELXT 2018/2 (Sheldrick, 2018)'
;
_shelx_hkl_checksum   16029

