 
data_pvl485
 
_audit_creation_method            'SHELXL-2019/3'
_shelx_SHELXL_version_number      '2019/3'
_chemical_name_systematic         ?
_chemical_name_common             ?
_chemical_melting_point           ?
_chemical_formula_moiety          ?
_chemical_formula_sum
 'C20 H12 Co N6 O4 S' 
_chemical_formula_weight          491.35

loop_
 _atom_type_symbol
 _atom_type_description
 _atom_type_scat_dispersion_real
 _atom_type_scat_dispersion_imag
 _atom_type_scat_source
 'C'  'C'   0.0033   0.0016
 'International Tables Vol C Tables 4.2.6.8 and 6.1.1.4'
 'H'  'H'   0.0000   0.0000
 'International Tables Vol C Tables 4.2.6.8 and 6.1.1.4'
 'N'  'N'   0.0061   0.0033
 'International Tables Vol C Tables 4.2.6.8 and 6.1.1.4'
 'O'  'O'   0.0106   0.0060
 'International Tables Vol C Tables 4.2.6.8 and 6.1.1.4'
 'S'  'S'   0.1246   0.1234
 'International Tables Vol C Tables 4.2.6.8 and 6.1.1.4'
 'Co'  'Co'   0.3494   0.9721
 'International Tables Vol C Tables 4.2.6.8 and 6.1.1.4'
 
_space_group_crystal_system       monoclinic
_space_group_IT_number            15
_space_group_name_H-M_alt         'C 2/c'
_space_group_name_Hall            '-C 2yc'
 
_shelx_space_group_comment
;
The symmetry employed for this shelxl refinement is uniquely defined
by the following loop, which should always be used as a source of
symmetry information in preference to the above space-group names.
They are only intended as comments.
;
 
loop_
 _space_group_symop_operation_xyz
 'x, y, z'
 '-x, y, -z+1/2'
 'x+1/2, y+1/2, z'
 '-x+1/2, y+1/2, -z+1/2'
 '-x, -y, -z'
 'x, -y, z-1/2'
 '-x+1/2, -y+1/2, -z'
 'x+1/2, -y+1/2, z-1/2'
 
_cell_length_a                    14.114(2)
_cell_length_b                    19.263(2)
_cell_length_c                    7.2922(10)
_cell_angle_alpha                 90
_cell_angle_beta                  113.005(7)
_cell_angle_gamma                 90
_cell_volume                      1824.9(5)
_cell_formula_units_Z             4
_cell_measurement_temperature     150(2)
_cell_measurement_reflns_used     ?
_cell_measurement_theta_min       ?
_cell_measurement_theta_max       ?
 
_exptl_crystal_description        ?
_exptl_crystal_colour             ?
_exptl_crystal_density_meas       ?
_exptl_crystal_density_method     ?
_exptl_crystal_density_diffrn     1.788          
_exptl_crystal_F_000              996
_exptl_transmission_factor_min    ?
_exptl_transmission_factor_max    ?
_exptl_crystal_size_max           ?
_exptl_crystal_size_mid           ?
_exptl_crystal_size_min           ?
_exptl_absorpt_coefficient_mu     1.102
_shelx_estimated_absorpt_T_min    ?
_shelx_estimated_absorpt_T_max    ?
_exptl_absorpt_correction_type    ?
_exptl_absorpt_correction_T_min   ?
_exptl_absorpt_correction_T_max   ?
_exptl_absorpt_process_details    ?
_exptl_absorpt_special_details    ?
_diffrn_ambient_temperature       150(2)
_diffrn_radiation_wavelength      0.71073
_diffrn_radiation_type            MoK\a
_diffrn_source                    ?
_diffrn_measurement_device_type   ?
_diffrn_measurement_method        ?
_diffrn_detector_area_resol_mean  ?
_diffrn_reflns_number             7275
_diffrn_reflns_av_unetI/netI      0.0485
_diffrn_reflns_av_R_equivalents   0.0513
_diffrn_reflns_limit_h_min        -16
_diffrn_reflns_limit_h_max        17
_diffrn_reflns_limit_k_min        -23
_diffrn_reflns_limit_k_max        23
_diffrn_reflns_limit_l_min        -8
_diffrn_reflns_limit_l_max        8
_diffrn_reflns_theta_min          1.891
_diffrn_reflns_theta_max          25.730
_diffrn_reflns_theta_full         25.242
_diffrn_measured_fraction_theta_max   0.997
_diffrn_measured_fraction_theta_full  0.999
_diffrn_reflns_Laue_measured_fraction_max    0.997
_diffrn_reflns_Laue_measured_fraction_full   0.999
_diffrn_reflns_point_group_measured_fraction_max   0.997
_diffrn_reflns_point_group_measured_fraction_full  0.999
_reflns_number_total              1752
_reflns_number_gt                 1515
_reflns_threshold_expression      'I > 2\s(I)'
_reflns_Friedel_coverage          0.000
_reflns_Friedel_fraction_max      .
_reflns_Friedel_fraction_full     .
 
_reflns_special_details
;
 Reflections were merged by SHELXL according to the crystal
 class for the calculation of statistics and refinement.
 
 _reflns_Friedel_fraction is defined as the number of unique
 Friedel pairs measured divided by the number that would be
 possible theoretically, ignoring centric projections and
 systematic absences.
;
 
_computing_data_collection        ?
_computing_cell_refinement        ?
_computing_data_reduction         ?
_computing_structure_solution     'SHELXT 2018/2 (Sheldrick, 2018)'
_computing_structure_refinement 'SHELXL-2019/2 (Sheldrick, 2019)'
_computing_molecular_graphics     ?
_computing_publication_material   ?
_refine_special_details           ?
_refine_ls_structure_factor_coef  Fsqd
_refine_ls_matrix_type            full
_refine_ls_weighting_scheme       calc
_refine_ls_weighting_details
'w=1/[\s^2^(Fo^2^)+24.8033P] where P=(Fo^2^+2Fc^2^)/3'
_atom_sites_solution_primary      ?
_atom_sites_solution_secondary    ?
_atom_sites_solution_hydrogens    geom
_refine_ls_hydrogen_treatment     constr
_refine_ls_extinction_method      none
_refine_ls_extinction_coef        .
_refine_ls_number_reflns          1752
_refine_ls_number_parameters      159
_refine_ls_number_restraints      30
_refine_ls_R_factor_all           0.0826
_refine_ls_R_factor_gt            0.0734
_refine_ls_wR_factor_ref          0.1555
_refine_ls_wR_factor_gt           0.1522
_refine_ls_goodness_of_fit_ref    1.179
_refine_ls_restrained_S_all       1.187
_refine_ls_shift/su_max           0.000
_refine_ls_shift/su_mean          0.000
 
loop_
 _atom_site_label
 _atom_site_type_symbol
 _atom_site_fract_x
 _atom_site_fract_y
 _atom_site_fract_z
 _atom_site_U_iso_or_equiv
 _atom_site_adp_type
 _atom_site_occupancy
 _atom_site_site_symmetry_order  
 _atom_site_calc_flag
 _atom_site_refinement_flags_posn
 _atom_site_refinement_flags_adp
 _atom_site_refinement_flags_occupancy
 _atom_site_disorder_assembly
 _atom_site_disorder_group
C1 C 0.1619(4) 0.2806(3) -0.1376(9) 0.0329(14) Uani 1 1 d . . . . .
H1 H 0.101628 0.301621 -0.231895 0.039 Uiso 1 1 calc R U . . .
C2 C 0.2703(4) 0.2528(3) 0.2021(10) 0.0354(15) Uani 1 1 d . . . . .
H2 H 0.284126 0.254856 0.340405 0.042 Uiso 1 1 calc R U . . .
C3 C 0.1105(4) 0.3217(3) 0.1374(9) 0.0310(14) Uani 1 1 d . . . . .
C4 C 0.1390(4) 0.5342(3) 0.3453(9) 0.0333(14) Uani 1 1 d . . . . .
H4 H 0.085199 0.564863 0.269805 0.040 Uiso 1 1 calc R U . . .
C5 C 0.2346(4) 0.5543(3) 0.4350(9) 0.0278(13) Uani 1 1 d . . . . .
H5 H 0.262534 0.599358 0.437955 0.033 Uiso 1 1 calc R U . . .
C6 C 0.2168(4) 0.4437(3) 0.4820(9) 0.0331(14) Uani 1 1 d . . . . .
H6 H 0.233272 0.397296 0.527386 0.040 Uiso 1 1 calc R U . . .
C7 C 0.3925(4) 0.4960(3) 0.6373(8) 0.0243(11) Uani 1 1 d . U . . .
C9 C 0.4463(4) 0.5562(3) 0.6932(9) 0.0297(12) Uani 1 1 d . U . . .
H9 H 0.411025 0.599172 0.655243 0.036 Uiso 1 1 calc R U . . .
C10 C 0.1808(4) 0.2838(3) 0.0635(9) 0.0311(14) Uani 1 1 d . . . . .
N1 N 0.2840(3) 0.4957(2) 0.5226(6) 0.0213(10) Uani 1 1 d . . . . .
N4 N 0.1232(3) 0.4664(2) 0.3685(7) 0.0260(11) Uani 1 1 d . . . . .
O1 O 0.1219(3) 0.3165(2) 0.3157(6) 0.0330(10) Uani 1 1 d . . . . .
O3 O 0.0388(3) 0.3605(2) 0.0183(6) 0.0322(10) Uani 1 1 d . . . . .
Co1 Co 0.000000 0.39605(6) 0.250000 0.0274(3) Uani 1 2 d S T P . .
C8 C 0.4456(4) 0.4323(3) 0.6934(9) 0.0318(13) Uani 1 1 d . U . . .
S1 S 0.5032(6) 0.31573(15) 0.7013(7) 0.054(2) Uani 0.5 1 d . U P A -1
N2 N 0.4089(18) 0.3690(11) 0.624(3) 0.044(3) Uani 0.5 1 d . U P A -1
N3 N 0.5980(18) 0.3679(11) 0.820(3) 0.052(4) Uani 0.5 1 d . U P A -1
 
loop_
 _atom_site_aniso_label
 _atom_site_aniso_U_11
 _atom_site_aniso_U_22
 _atom_site_aniso_U_33
 _atom_site_aniso_U_23
 _atom_site_aniso_U_13
 _atom_site_aniso_U_12
C1 0.019(3) 0.033(3) 0.037(3) -0.003(3) 0.001(2) 0.003(2)
C2 0.026(3) 0.031(3) 0.039(3) -0.007(3) 0.002(3) 0.006(2)
C3 0.020(3) 0.023(3) 0.040(4) -0.004(3) 0.001(3) -0.001(2)
C4 0.020(3) 0.030(3) 0.044(4) 0.006(3) 0.006(3) 0.008(2)
C5 0.011(2) 0.015(2) 0.052(4) 0.013(2) 0.006(2) -0.0010(19)
C6 0.018(3) 0.027(3) 0.040(3) 0.000(3) -0.004(2) 0.000(2)
C7 0.015(2) 0.026(2) 0.029(2) -0.0002(19) 0.0050(19) 0.0014(17)
C9 0.019(2) 0.025(3) 0.039(3) 0.002(2) 0.005(2) 0.003(2)
C10 0.020(3) 0.029(3) 0.038(3) -0.004(3) 0.004(2) 0.000(2)
N1 0.011(2) 0.029(2) 0.020(2) -0.0010(18) 0.0031(18) 0.0001(17)
N4 0.018(2) 0.026(2) 0.026(2) -0.003(2) 0.0000(19) -0.0014(18)
O1 0.022(2) 0.028(2) 0.040(3) 0.0014(18) 0.0020(18) 0.0003(16)
O3 0.0198(19) 0.032(2) 0.035(2) -0.0039(18) 0.0005(17) 0.0028(16)
Co1 0.0142(5) 0.0265(6) 0.0306(6) 0.000 -0.0031(4) 0.000
C8 0.018(2) 0.025(2) 0.042(3) -0.001(2) 0.001(2) 0.0019(19)
S1 0.0222(15) 0.0248(12) 0.085(5) -0.0129(17) -0.013(4) 0.0027(17)
N2 0.019(3) 0.025(3) 0.066(5) -0.006(4) -0.007(4) 0.002(3)
N3 0.021(5) 0.027(5) 0.080(8) -0.010(6) -0.011(7) 0.003(4)
 
_geom_special_details
;
 All esds (except the esd in the dihedral angle between two l.s. planes)
 are estimated using the full covariance matrix.  The cell esds are taken
 into account individually in the estimation of esds in distances, angles
 and torsion angles; correlations between esds in cell parameters are only
 used when they are defined by crystal symmetry.  An approximate (isotropic)
 treatment of cell esds is used for estimating esds involving l.s. planes.
;
 
loop_
 _geom_bond_atom_site_label_1
 _geom_bond_atom_site_label_2
 _geom_bond_distance
 _geom_bond_site_symmetry_2
 _geom_bond_publ_flag
C1 C2 1.380(8) 7 ?
C1 C10 1.385(9) . ?
C2 C10 1.406(8) . ?
C3 O1 1.250(7) . ?
C3 O3 1.284(6) . ?
C3 C10 1.493(8) . ?
C3 Co1 2.481(6) . ?
C4 C5 1.307(7) . ?
C4 N4 1.347(7) . ?
C5 N1 1.349(6) . ?
C6 N4 1.329(6) . ?
C6 N1 1.331(7) . ?
C7 C9 1.357(7) . ?
C7 C8 1.413(7) . ?
C7 N1 1.430(6) . ?
C9 C9 1.416(10) 2_656 ?
N4 Co1 2.105(4) . ?
O1 Co1 2.213(4) . ?
O3 Co1 2.085(4) . ?
C8 N2 1.34(2) . ?
C8 C8 1.432(10) 2_656 ?
S1 N2 1.60(2) . ?
S1 N3 1.63(2) . ?
 
loop_
 _geom_angle_atom_site_label_1
 _geom_angle_atom_site_label_2
 _geom_angle_atom_site_label_3
 _geom_angle
 _geom_angle_site_symmetry_1
 _geom_angle_site_symmetry_3
 _geom_angle_publ_flag
C2 C1 C10 120.6(5) 7 . ?
C1 C2 C10 120.1(6) 7 . ?
O1 C3 O3 119.9(6) . . ?
O1 C3 C10 120.2(5) . . ?
O3 C3 C10 119.9(6) . . ?
O1 C3 Co1 62.9(3) . . ?
O3 C3 Co1 57.2(3) . . ?
C10 C3 Co1 174.1(4) . . ?
C5 C4 N4 114.5(5) . . ?
C4 C5 N1 103.3(5) . . ?
N4 C6 N1 109.8(5) . . ?
C9 C7 C8 119.0(5) . . ?
C9 C7 N1 121.6(5) . . ?
C8 C7 N1 119.4(5) . . ?
C7 C9 C9 121.4(3) . 2_656 ?
C1 C10 C2 119.3(6) . . ?
C1 C10 C3 121.6(5) . . ?
C2 C10 C3 119.0(6) . . ?
C6 N1 C5 109.5(4) . . ?
C6 N1 C7 129.8(4) . . ?
C5 N1 C7 120.7(4) . . ?
C6 N4 C4 102.9(4) . . ?
C6 N4 Co1 120.3(4) . . ?
C4 N4 Co1 136.4(4) . . ?
C3 O1 Co1 86.9(3) . . ?
C3 O3 Co1 91.7(4) . . ?
O3 Co1 O3 141.7(2) 2 . ?
O3 Co1 N4 108.37(17) 2 . ?
O3 Co1 N4 96.16(17) . . ?
O3 Co1 N4 96.16(17) 2 2 ?
O3 Co1 N4 108.37(17) . 2 ?
N4 Co1 N4 99.9(2) . 2 ?
O3 Co1 O1 61.28(16) 2 2 ?
O3 Co1 O1 91.47(16) . 2 ?
N4 Co1 O1 169.25(17) . 2 ?
N4 Co1 O1 84.80(15) 2 2 ?
O3 Co1 O1 91.47(16) 2 . ?
O3 Co1 O1 61.28(16) . . ?
N4 Co1 O1 84.81(15) . . ?
N4 Co1 O1 169.25(17) 2 . ?
O1 Co1 O1 92.3(2) 2 . ?
O3 Co1 C3 31.16(17) 2 2 ?
O3 Co1 C3 118.49(19) . 2 ?
N4 Co1 C3 139.53(19) . 2 ?
N4 Co1 C3 88.97(17) 2 2 ?
O1 Co1 C3 30.19(17) 2 2 ?
O1 Co1 C3 93.71(16) . 2 ?
O3 Co1 C3 118.49(19) 2 . ?
O3 Co1 C3 31.16(17) . . ?
N4 Co1 C3 88.97(17) . . ?
N4 Co1 C3 139.53(19) 2 . ?
O1 Co1 C3 93.71(16) 2 . ?
O1 Co1 C3 30.19(17) . . ?
C3 Co1 C3 109.5(3) 2 . ?
N2 C8 C7 126.7(10) . . ?
N2 C8 C8 112.7(10) . 2_656 ?
C7 C8 C8 119.6(3) . 2_656 ?
N2 S1 N3 100.9(4) . . ?
C8 N2 S1 107.7(14) . . ?
 
_refine_diff_density_max    0.702
_refine_diff_density_min   -0.725
_refine_diff_density_rms    0.108

_shelx_res_file
;
TITL pvl540_2_a.res in C2/c
    pvl485.res
    created by SHELXL-2019/3 at 14:37:02 on 25-Mar-2024
REM Old TITL pvl540_2 in C2/c
REM SHELXT solution in C2/c: R1 0.218, Rweak 0.031, Alpha 0.066
REM <I/s>   2.398 for   54 systematic absences,  Orientation as input
REM Formula found by SHELXT:  C22 N4 O5 Co
CELL  0.71073  14.1143  19.2625   7.2922   90.000  113.005   90.000
ZERR   4   0.0023   0.0023   0.0010    0.000    0.007    0.000
LATT  7
SYMM -X, Y, 1/2-Z
SFAC C H N O S CO
UNIT 80 48 24 16 4 4
ACTA
LIST 4
SIMU 0.005 0.007 2 C9 C7 C8 N2 S1 N3
TEMP -123
L.S. 10
BOND
REM LIST 4
FMAP 2
PLAN 20
WGHT    0.000000   24.803299
FVAR       0.25177
C1    1    0.161857    0.280610   -0.137577    11.00000    0.01883    0.03283 =
         0.03737   -0.00286    0.00059    0.00336
AFIX  43
H1    2    0.101628    0.301621   -0.231895    11.00000   -1.20000
AFIX   0
C2    1    0.270313    0.252796    0.202142    11.00000    0.02553    0.03132 =
         0.03922   -0.00667    0.00166    0.00569
AFIX  43
H2    2    0.284126    0.254856    0.340405    11.00000   -1.20000
AFIX   0
C3    1    0.110485    0.321728    0.137441    11.00000    0.01963    0.02299 =
         0.04040   -0.00440    0.00094   -0.00066
C4    1    0.139043    0.534192    0.345260    11.00000    0.02011    0.03033 =
         0.04357    0.00615    0.00592    0.00759
AFIX  43
H4    2    0.085199    0.564863    0.269805    11.00000   -1.20000
AFIX   0
C5    1    0.234582    0.554311    0.435049    11.00000    0.01082    0.01463 =
         0.05205    0.01316    0.00591   -0.00099
AFIX  43
H5    2    0.262534    0.599358    0.437955    11.00000   -1.20000
AFIX   0
C6    1    0.216779    0.443701    0.482007    11.00000    0.01829    0.02671 =
         0.03983    0.00027   -0.00426   -0.00018
AFIX  43
H6    2    0.233272    0.397296    0.527386    11.00000   -1.20000
AFIX   0
C7    1    0.392537    0.496047    0.637319    11.00000    0.01483    0.02566 =
         0.02908   -0.00016    0.00500    0.00145
C9    1    0.446253    0.556166    0.693170    11.00000    0.01924    0.02501 =
         0.03902    0.00151    0.00503    0.00313
AFIX  43
H9    2    0.411025    0.599172    0.655243    11.00000   -1.20000
AFIX   0
C10   1    0.180786    0.283779    0.063471    11.00000    0.02004    0.02856 =
         0.03780   -0.00423    0.00375    0.00012

N1    3    0.283962    0.495735    0.522605    11.00000    0.01141    0.02946 =
         0.02013   -0.00102    0.00312    0.00012
N4    3    0.123167    0.466376    0.368482    11.00000    0.01798    0.02579 =
         0.02628   -0.00250   -0.00003   -0.00139
O1    4    0.121893    0.316465    0.315651    11.00000    0.02221    0.02790 =
         0.03954    0.00143    0.00198    0.00030
O3    4    0.038844    0.360519    0.018253    11.00000    0.01984    0.03208 =
         0.03521   -0.00393    0.00047    0.00279
CO1   6    0.000000    0.396051    0.250000    10.50000    0.01417    0.02653 =
         0.03061    0.00000   -0.00314    0.00000
C8    1    0.445561    0.432292    0.693371    11.00000    0.01798    0.02473 =
         0.04246   -0.00120    0.00056    0.00185
PART 0
PART -1 10.5
S1    5    0.503201    0.315733    0.701316    10.50000    0.02218    0.02482 =
         0.08494   -0.01286   -0.01265    0.00274
N2    3    0.408893    0.369001    0.623842    10.50000    0.01881    0.02520 =
         0.06553   -0.00629   -0.00651    0.00213
N3    3    0.597996    0.367917    0.819980    10.50000    0.02112    0.02701 =
         0.08048   -0.00974   -0.01073    0.00333

PART 0
HKLF 4




REM  pvl540_2_a.res in C2/c
REM wR2 = 0.1555, GooF = S = 1.179, Restrained GooF = 1.187 for all data
REM R1 = 0.0734 for 1515 Fo > 4sig(Fo) and 0.0826 for all 1752 data
REM 159 parameters refined using 30 restraints

END

WGHT      0.0000     24.8033

REM Highest difference peak  0.702,  deepest hole -0.725,  1-sigma level  0.108
Q1    1   0.0000  0.4425  0.2500  10.50000  0.05    0.70
Q2    1   0.0000  0.3492  0.2500  10.50000  0.05    0.65
Q3    1   0.2224  0.5548  0.5030  11.00000  0.05    0.57
Q4    1   0.2242  0.5315  0.3842  11.00000  0.05    0.52
Q5    1   0.0378  0.4005  0.1746  11.00000  0.05    0.42
Q6    1   0.5133  0.3304  0.5681  11.00000  0.05    0.40
Q7    1   0.5000  0.4660  0.7500  10.50000  0.05    0.40
Q8    1   0.0447  0.3472  0.1543  11.00000  0.05    0.38
Q9    1   0.0848  0.3645  0.2404  11.00000  0.05    0.37
Q10   1   0.1843  0.2876  0.4118  11.00000  0.05    0.31
Q11   1   0.2385  0.2473  0.3429  11.00000  0.05    0.30
Q12   1   0.1210  0.2040 -0.1674  11.00000  0.05    0.30
Q13   1   0.2568  0.4869  0.5916  11.00000  0.05    0.30
Q14   1   0.5053  0.6657  0.6313  11.00000  0.05    0.30
Q15   1   0.1043  0.3423 -0.2768  11.00000  0.05    0.30
Q16   1   0.2568  0.2896  0.0915  11.00000  0.05    0.30
Q17   1  -0.0024  0.3878 -0.0798  11.00000  0.05    0.29
Q18   1   0.0071  0.3008  0.1004  11.00000  0.05    0.29
Q19   1   0.3973  0.4606  0.6426  11.00000  0.05    0.29
Q20   1   0.3366  0.6483  0.6385  11.00000  0.05    0.28
;
_shelx_res_checksum   37837

_shelx_hkl_file
;
   0   0  -1    4.10    1.10
   0   0  -1    6.50    1.20
   0   0   1    3.70    1.10
   0   0   1    6.40    1.30
   0   0  -2  825.32   39.90
   0   0  -2  809.62   39.60
   0   0   2  791.32   39.60
   0   0   2  783.92   39.60
   0   0  -3   -0.70    1.70
   0   0  -3    0.30    1.60
   0   0   3    0.80    2.00
   0   0   3    0.50    1.60
   0   0  -4  102.89    6.80
   0   0  -4   99.99    6.50
   0   0   4  101.89    6.70
   0   0   4   96.79    6.70
   0   0  -5    2.70    2.50
   0   0  -5   -6.00    2.60
   0   0   5    1.50    2.60
   0   0   6   31.30    5.20
   0   0  -7    1.00    3.30
   0   0  -7    3.40    4.40
   0   0  -8   33.90    6.80
   0   0  -8   45.20    7.50
   1  -1  -8   53.39    7.40
   1  -1  -7    9.90    4.50
  -1   1   6   12.80    3.80
   1  -1  -6   24.10    5.20
   1  -1  -6   17.60    3.80
  -1   1   5  100.99    7.30
   1  -1  -5  126.09    7.70
   1  -1  -5  108.09    7.50
   1  -1  -5   96.79    7.00
  -1   1   4  109.89    7.00
   1  -1  -4  110.29    6.90
   1  -1  -4  106.39    6.90
  -1   1   3   62.89    4.60
   1  -1  -3   64.99    4.50
   1  -1  -3   72.49    4.70
  -1   1   2   46.30    3.10
   1  -1  -2   30.10    2.80
   1  -1  -2   34.50    3.40
   1  -1  -2   38.70    3.20
  -1   1   1  714.13   34.20
  -1   1   1  684.43   34.10
   1  -1  -1  695.23   34.20
   1  -1  -1  697.23   34.10
  -1   1   0  267.67   13.20
  -1   1  -1 3577.34  172.78
   1  -1   1 3520.65  172.78
  -1   1  -2   48.70    4.00
  -1   1  -2   58.39    4.10
   1  -1   2   53.09    4.20
   1  -1   2   53.29    4.20
  -1   1  -3  114.79    7.10
  -1   1  -3  117.09    7.20
   1  -1   3  116.99    7.20
   1  -1   3  114.49    7.10
  -1   1  -4  127.39   10.60
  -1   1  -4  114.49    7.60
   1  -1   4  129.59    7.90
   1  -1   4  126.09    8.00
  -1   1  -5   17.60    3.40
   1  -1   5   26.80    4.10
  -1   1  -6   58.69    6.20
   1  -1   6   66.89    6.60
  -1   1  -7    4.80    3.70
   1  -1   7   15.30    4.90
   2  -2  -8    6.40    4.30
   2  -2  -8   20.40    5.90
  -2   2   7   54.49    6.60
   2  -2  -7   59.49    6.70
  -2   2   6   -1.50    2.90
   2  -2  -6    2.80    3.20
   2  -2  -6    3.80    3.00
  -2   2   5  222.98   12.50
   2  -2  -5  219.08   12.40
   2  -2  -5  222.78   12.40
   2  -2  -5  216.48   12.50
  -2   2   4   98.09    6.70
   2  -2  -4  117.69    6.90
  -2   2   3   70.49    4.60
   2  -2  -3   65.29    4.50
   2  -2  -3   72.99    4.90
   2  -2  -3   75.19    4.90
  -2   2   2 3136.29  164.68
  -2   2   2 3621.44  164.88
   2  -2  -2 3283.67  164.68
   2  -2  -2 3500.35  164.88
  -2   2   1    4.10    1.50
  -2   2   1    2.50    0.80
   2  -2  -1    2.20    1.30
  -2   2   0    7.80    1.30
  -2   2   0    4.40    1.40
   2  -2   0    5.00    1.40
  -2   2  -1  925.11   45.20
  -2   2  -1  921.41   45.30
   2  -2   1  900.41   45.20
  -2   2  -2   28.00    3.20
  -2   2  -2   30.80    3.30
   2  -2   2   23.90    3.20
  -2   2  -3   81.69    5.70
  -2   2  -3   86.39    5.80
   2  -2   3   79.79    5.80
  -2   2  -4    5.20    2.50
  -2   2  -4    4.10    2.50
   2  -2   4    7.30    2.90
  -2   2  -5   93.59    7.20
  -2   2  -5   90.39    7.70
   2  -2   5   89.19    7.20
  -2   2  -6   39.40    5.60
   2  -2   6   45.60    6.20
  -2   2  -7   16.00    5.20
   2  -2   7   22.40    5.40
   3  -3  -8   29.40    6.20
  -3   3   7   13.40    4.30
   3  -3  -7   15.40    4.60
  -3   3   6   12.00    3.30
   3  -3  -6   21.60    4.20
   3  -3  -6   14.00    3.50
   3  -3  -6   17.90    4.30
  -3   3   5   51.69    4.80
   3  -3  -5   50.99    4.80
   3  -3  -5   57.99    5.20
   3  -3  -5   50.99    4.60
  -3   3   4  140.79    8.20
   3  -3  -4  142.89    8.50
   3  -3  -4  146.99    8.40
   3  -3  -4  146.19    8.10
  -3   3   3  329.77   17.00
  -3   3   3  334.87   16.70
   3  -3  -3  323.87   16.90
  -3   3   2   28.20    2.20
   3  -3  -2   19.90    2.00
   3  -3  -2   24.10    3.00
  -3   3   1  186.98    9.40
  -3   3   1  185.18    9.80
   3  -3  -1  184.58    9.40
   3  -3  -1  181.28    9.80
  -3   3   0   28.30    3.00
  -3   3   0   30.70    3.00
   3  -3   0   30.20    2.90
   3  -3   0   29.30    3.10
  -3   3  -1  217.68   11.90
  -3   3  -1  225.08   12.00
  -3   3  -1  226.68   11.90
   3  -3   1  223.48   12.00
  -3   3  -2   11.50    2.50
  -3   3  -2   14.20    2.40
  -3   3  -2   14.70    2.70
   3  -3   2   12.30    2.50
  -3   3  -3   55.19    7.20
  -3   3  -3   56.49    4.70
  -3   3  -3   42.30    4.40
   3  -3   3   51.69    4.60
  -3   3  -4    3.00    2.40
  -3   3  -4    5.70    2.70
   3  -3   4    3.40    2.70
  -3   3  -5  367.66   20.30
   3  -3   5  361.46   20.10
  -3   3  -6   15.90    4.10
   3  -3   6   18.20    4.40
  -3   3  -7   23.80    5.30
   3  -3   7   26.20    5.50
   4  -4  -8   40.50    6.60
  -4   4   7    2.30    3.50
   4  -4  -7    3.00    4.00
  -4   4   6   29.90    4.30
   4  -4  -6   35.40    4.90
   4  -4  -6   26.50    4.90
   4  -4  -6   22.30    4.30
  -4   4   5    3.60    2.30
   4  -4  -5    5.70    2.50
   4  -4  -5    4.70    2.70
   4  -4  -5    3.30    2.20
  -4   4   4   53.39    4.10
   4  -4  -4   67.19    4.80
   4  -4  -4   49.70    3.80
  -4   4   3  433.66   22.60
  -4   4   3  462.75   23.10
   4  -4  -3  456.55   23.00
   4  -4  -3  463.65   22.60
  -4   4   2  312.77   16.20
   4  -4  -2  314.77   16.20
  -4   4   1  648.44   31.30
  -4   4   1  622.24   31.70
   4  -4  -1  644.14   31.30
   4  -4  -1  620.44   31.70
  -4   4   0  490.45   24.90
  -4   4   0  489.45   25.10
   4  -4   0  515.75   25.00
   4  -4   0  490.05   25.10
  -4   4  -1  829.02   41.50
  -4   4  -1  843.72   41.50
  -4   4  -1  824.32   41.60
   4  -4   1  834.02   41.70
  -4   4  -2   66.59    5.30
  -4   4  -2   62.99    5.10
  -4   4  -2   74.29    5.30
   4  -4   2   68.59    5.30
  -4   4  -3  232.18   13.30
  -4   4  -3  232.38   13.30
   4  -4   3  238.68   13.40
  -4   4  -4    8.60    2.80
   4  -4   4    6.50    2.90
  -4   4  -5    5.10    3.20
   4  -4   5    8.00    3.40
  -4   4  -6   18.60    4.60
   4  -4   6   21.80    4.90
  -4   4  -7    2.40    4.00
   4  -4   7   -3.90    5.10
  -5   5   8    4.60    4.50
   5  -5  -8    2.40    4.80
  -5   5   7   25.90    4.50
   5  -5  -7   13.10    4.30
   5  -5  -7   29.30    5.10
  -5   5   6    3.80    2.90
   5  -5  -6    1.60    2.60
   5  -5  -6    4.60    3.70
   5  -5  -6    3.70    3.30
  -5   5   5   13.80    2.70
   5  -5  -5   12.60    2.40
   5  -5  -5   23.60    3.80
  -5   5   4  403.96   21.00
  -5   5   4  394.46   20.40
   5  -5  -4  422.06   20.90
   5  -5  -4  391.16   20.30
  -5   5   3   85.79    5.80
   5  -5  -3   82.79    5.70
  -5   5   2  794.72   39.70
  -5   5   2  805.02   39.10
   5  -5  -2  793.22   39.10
   5  -5  -2  787.12   39.70
  -5   5   1   31.50    3.50
  -5   5   1   28.50    2.70
   5  -5  -1   21.50    3.00
   5  -5  -1   23.10    2.80
  -5   5   0 2128.89  104.99
  -5   5   0 2136.59  104.69
   5  -5   0 2126.49  104.99
   5  -5   0 2159.18  104.79
  -5   5  -1   86.89    6.00
  -5   5  -1   84.29    5.80
  -5   5  -1   86.19    5.80
   5  -5   1   77.99    6.00
  -5   5  -2  289.87   16.30
  -5   5  -2  311.27   16.50
  -5   5  -2  306.07   16.40
   5  -5   2  300.67   16.50
  -5   5  -3    4.00    2.60
   5  -5   3    4.60    2.60
  -5   5  -4  211.48   12.70
   5  -5   4  198.48   12.50
  -5   5  -5   23.30    4.80
   5  -5   5   23.50    4.70
  -5   5  -6   16.90    4.60
   5  -5   6   15.50    4.80
  -6   6   8   22.40    5.30
   6  -6  -8   36.00    6.50
  -6   6   7   22.20    4.20
   6  -6  -7   13.40    3.90
   6  -6  -7   31.20    5.40
   6  -6  -6   35.50    4.30
   6  -6  -6   39.70    5.00
  -6   6   5   46.50    6.00
   6  -6  -5   76.59    5.90
  -6   6   4  166.88   10.30
   6  -6  -4  178.48   10.10
  -6   6   3  446.66   22.50
   6  -6  -3  441.36   22.40
   6  -6  -3  412.46   21.90
  -6   6   2  290.67   15.00
  -6   6   2  292.57   15.70
   6  -6  -2  296.27   15.10
   6  -6  -2  293.77   15.70
  -6   6   1  472.15   23.60
  -6   6   1  471.65   24.10
   6  -6  -1  462.75   23.70
   6  -6  -1  461.25   24.10
  -6   6   0   26.10    3.30
  -6   6   0   27.80    3.80
   6  -6   0   30.90    4.00
   6  -6   0   24.60    3.00
  -6   6  -1  582.94   30.10
  -6   6  -1  589.44   30.40
  -6   6  -1  584.34   30.00
   6  -6   1  600.34   30.40
  -6   6  -2   37.40    4.50
  -6   6  -2   41.80    6.00
  -6   6  -2   45.10    5.00
   6  -6   2   38.70    4.80
  -6   6  -3   45.40    5.40
   6  -6   3   39.20    5.10
  -6   6  -4   45.70    6.00
   6  -6   4   48.70    6.30
  -6   6  -5   21.90    4.90
   6  -6   5   24.50    5.10
  -6   6  -6    4.00    4.30
   6  -6   6   10.70    5.10
  -7   7   8    2.10    4.30
   7  -7  -8    7.00    5.60
  -7   7   7   15.70    3.90
   7  -7  -7    1.20    6.00
   7  -7  -7   30.60    5.50
  -7   7   6    8.00    4.60
   7  -7  -6   21.90    4.50
  -7   7   5  163.68   11.30
   7  -7  -5  206.28   11.40
   7  -7  -4   69.49    5.90
  -7   7   3  337.57   18.50
   7  -7  -3  350.06   18.40
  -7   7   2   38.60    3.40
   7  -7  -2   35.00    3.40
   7  -7  -2   38.10    4.30
  -7   7   1    9.80    3.20
  -7   7   1   11.20    2.20
   7  -7  -1   13.00    3.10
   7  -7  -1   11.50    2.40
  -7   7   0   18.10    3.60
  -7   7   0   30.70    3.50
   7  -7   0   19.50    3.70
  -7   7  -1   34.00    4.20
  -7   7  -1   32.70    4.20
   7  -7   1   41.10    5.10
  -7   7  -2  349.87   19.10
   7  -7   2  351.66   19.50
  -7   7  -3   36.90    5.20
   7  -7   3   40.20    5.80
  -7   7  -4    6.70    3.70
   7  -7   4    7.60    3.80
  -7   7  -5   33.10    5.80
   7  -7   5   26.60    6.40
   8  -8  -8   12.30    5.70
   8  -8  -7   14.90    5.30
   8  -8  -6    8.00    4.50
  -8   8   5   53.19    7.00
  -8   8   4    7.20    3.70
  -8   8   3   80.79    6.60
   8  -8  -3   64.89    6.70
  -8   8   2    4.40    2.00
  -8   8   2    4.00    2.90
   8  -8  -2    1.90    1.90
  -8   8   1  121.29    7.10
   8  -8  -1  101.89    7.10
   8  -8  -1  110.59    8.00
  -8   8   0    3.60    2.40
  -8   8   0    8.80    2.70
   8  -8   0    9.10    3.20
  -8   8  -1  168.68   10.50
   8  -8   1  174.58   11.20
  -8   8  -2  166.58   10.70
   8  -8   2  163.88   11.10
  -8   8  -3  254.87   15.20
   8  -8   3  248.48   15.50
   8  -8   4   60.19    7.80
  -8   8  -5    8.40    4.60
   8  -8   5   14.20    5.00
   9  -9  -8    6.20    6.40
   9  -9  -7   14.00    5.60
   9  -9  -6  128.19    9.90
   9  -9  -5   87.69    7.90
   9  -9  -4   73.79    7.10
  -9   9   3   91.19    6.00
   9  -9  -3   79.59    6.00
   9  -9  -3   99.39    7.50
  -9   9   2  173.58    9.40
   9  -9  -2  175.98   10.60
   9  -9  -2  139.19    9.40
  -9   9   1  305.47   16.40
   9  -9  -1  301.47   17.30
  -9   9   0  172.68   10.60
   9  -9   0  174.78   11.40
  -9   9  -1   22.40    4.20
   9  -9   1   24.80    5.00
  -9   9  -2  152.18   10.60
   9  -9   2  166.28   11.30
  -9   9  -3   46.40    6.40
   9  -9   3   53.79    7.50
  -9   9  -4  113.39    9.70
   9  -9   4  111.59   10.00
  10 -10  -7    8.00    5.90
  10 -10  -6   23.70    5.90
  10 -10  -5   36.00    6.30
  10 -10  -4   71.59    7.40
 -10  10   3   19.90    3.40
  10 -10  -3   13.90    2.90
  10 -10  -3   19.90    4.50
 -10  10   2   97.09    6.80
  10 -10  -2   99.99    8.30
 -10  10   1   13.80    3.40
 -10  10   1   23.40    4.60
  10 -10  -1   24.70    5.00
 -10  10   0  550.74   28.50
  10 -10   0  535.65   29.30
 -10  10  -1    5.10    3.30
  10 -10   1    6.70    3.90
 -10  10  -2  131.49   10.10
  10 -10   2  140.09   10.70
 -10  10  -3    4.60    4.20
  10 -10   3    5.50    4.30
  11 -11  -7    4.30    6.40
  11 -11  -6   14.00    6.20
  11 -11  -5   11.80    5.00
  11 -11  -4   58.19    7.50
 -11  11   3   69.19    5.80
  11 -11  -3   50.09    5.50
  11 -11  -3   86.79    7.80
 -11  11   2   21.00    4.50
  11 -11  -2   24.80    5.40
 -11  11   1   70.19    6.50
  11 -11  -1   75.99    7.80
 -11  11   0   53.89    6.20
  11 -11   0   58.29    7.50
 -11  11  -1   25.60    4.90
  11 -11   2   11.40    4.90
  12 -12  -6   10.70    6.20
  12 -12  -5   98.09    9.70
  12 -12  -4   17.10    5.30
 -12  12   3    7.70    3.60
  12 -12  -3    8.00    5.00
 -12  12   2   12.40    3.60
  12 -12  -2   14.50    5.20
 -12  12   1   19.90    4.20
  12 -12  -1   17.20    5.20
 -12  12   0    7.90    3.90
  12 -12   0   -0.10    4.30
 -12  12  -1    2.30    4.10
  12 -12   1    3.50    4.40
  13 -13  -5  105.49   16.00
 -13  13   3   -1.60    3.60
  13 -13  -3    2.40    5.90
 -13  13   2   13.70    4.00
  13 -13  -2   16.20    5.30
 -13  13   1   33.50    5.20
  13 -13  -1   28.30    6.00
 -13  13   0    3.70    4.20
  13 -13   0    2.00    4.80
  13 -15  -2   -0.30    5.10
 -13  15   2    7.10    4.10
  13 -15  -3   -0.30    5.30
 -13  15   3    0.10    4.10
  12 -14   0   47.70    7.40
 -12  14   0   47.30    6.30
  12 -14  -1   35.40    6.60
 -12  14   1   29.60    5.10
 -12  14   2   -2.00    3.30
  12 -14  -3    2.00    5.20
 -12  14   3    4.50    3.70
  12 -14  -4   71.29    8.90
 -12  14   4   54.59    9.40
  12 -14  -5   24.10    7.20
  11 -13   2   10.70    4.90
 -11  13  -2   20.40    5.30
  11 -13   1   83.29    8.80
 -11  13  -1   76.89    7.80
  11 -13   0   31.00    8.10
 -11  13   0   40.90    5.50
  11 -13  -1   21.50    5.60
 -11  13   1   32.00    4.70
  11 -13  -2   38.20    6.40
 -11  13   2   26.60    4.30
  11 -13  -3   83.99    8.90
 -11  13   3   96.29    8.50
  11 -13  -4   11.20    3.80
  11 -13  -4   26.40    6.20
 -11  13   4   13.60    4.10
  11 -13  -5   25.90    6.20
  11 -13  -6    5.30    5.90
  10 -12   3   16.90    5.30
 -10  12  -3   25.10    5.80
  10 -12   2    1.70    3.90
 -10  12  -2   -0.10    3.50
  10 -12   1   37.70    6.40
 -10  12  -1   25.60    4.70
  10 -12   0   46.10    6.70
 -10  12   0   48.40    5.90
  10 -12  -1   44.80    6.60
 -10  12   1   40.50    5.00
  10 -12  -2    6.00    3.10
  10 -12  -2   12.10    4.30
 -10  12   2   13.80    3.70
  10 -12  -3   65.79    7.30
  10 -12  -3   48.70    5.70
 -10  12   3   61.29    5.60
  10 -12  -4   17.50    4.80
  10 -12  -4    5.10    3.10
 -10  12   4   11.70    3.20
  10 -12  -5   21.60    5.80
  10 -12  -6    4.60    5.50
  10 -12  -7   13.40    6.40
   9 -11   4   -0.90    3.90
  -9  11  -4    3.40    4.70
   9 -11   3   75.29    8.10
   9 -11   2   76.29    7.90
  -9  11  -2   74.49    7.20
   9 -11   1  126.49    9.80
  -9  11  -1  125.89    9.00
   9 -11   0    5.90    3.80
  -9  11   0    4.20    2.90
   9 -11  -1  268.27   16.40
   9 -11  -1  318.57   17.30
  -9  11   1  300.57   17.00
   9 -11  -2   13.90    4.20
   9 -11  -2   12.20    3.30
  -9  11   2   14.90    3.10
   9 -11  -3   17.70    3.30
   9 -11  -3   29.70    4.90
  -9  11   3   19.80    3.60
   9 -11  -4   13.80    4.50
   9 -11  -4    7.20    2.80
  -9  11   4    9.10    3.00
   9 -11  -5   17.30    4.90
   9 -11  -6   49.90    6.80
   9 -11  -7   15.80    5.90
   8 -10   4   96.69    9.00
  -8  10  -4   98.29    8.90
   8 -10   3   30.50    5.80
  -8  10  -3   27.40    5.00
   8 -10   2  250.27   15.10
  -8  10  -2  238.38   14.60
   8 -10   1   28.00    5.00
  -8  10  -1   30.40    4.30
   8 -10   0  251.87   14.20
   8 -10   0  199.48   13.90
  -8  10   0  251.07   13.50
   8 -10  -1   11.40    3.20
   8 -10  -1   13.90    3.90
  -8  10   1   12.60    2.90
   8 -10  -2  332.17   17.10
   8 -10  -2  280.67   16.20
  -8  10   2  299.27   16.10
   8 -10  -3    1.50    2.20
   8 -10  -3    2.70    3.20
  -8  10   3    2.50    2.30
  -8  10   3    2.80    3.60
   8 -10  -4   55.39    6.40
   8 -10  -4   44.10    4.50
  -8  10   4   42.70    6.00
  -8  10   4   53.59    4.60
   8 -10  -5    7.40    2.70
   8 -10  -5   16.30    4.20
  -8  10   5    5.80    2.80
   8 -10  -6   20.60    5.30
   8 -10  -7   24.10    5.90
   8 -10  -7    5.80    3.60
  -8  10   7   12.90    4.40
   7  -9   5   14.50    5.20
  -7   9  -5   16.10    4.90
   7  -9   4   52.09    7.10
  -7   9  -4   49.70    6.60
   7  -9   3   46.40    6.10
  -7   9  -3   46.00    5.70
   7  -9   2   43.20    6.00
  -7   9  -2   39.70    5.10
   7  -9   1   20.20    4.20
  -7   9  -1   23.20    3.90
   7  -9   0  436.36   23.80
   7  -9   0  445.16   23.50
  -7   9   0  457.45   23.30
   7  -9  -1  383.76   20.40
   7  -9  -1  391.96   21.00
  -7   9   1  374.66   20.90
  -7   9   1  407.86   20.30
   7  -9  -2  131.49    8.00
   7  -9  -2  130.99    8.60
  -7   9   2  125.89    8.70
  -7   9   2  143.79    8.00
   7  -9  -3    9.90    2.30
   7  -9  -3   15.00    3.40
  -7   9   3   14.40    2.50
  -7   9   3   19.20    4.60
   7  -9  -4  385.66   18.90
   7  -9  -4  310.37   17.90
  -7   9   4  361.36   18.10
  -7   9   4  333.17   19.50
   7  -9  -5    2.40    2.30
   7  -9  -5   10.20    3.80
  -7   9   5    6.90    2.80
  -7   9   5    2.40    3.60
   7  -9  -6    8.10    3.00
  -7   9   6   13.40    3.50
  -7   9   6   10.30    4.40
   7  -9  -7    7.70    3.80
   7  -9  -7    7.40    4.70
  -7   9   7   15.60    6.00
   7  -9  -8   20.80    6.10
  -7   9   8   10.10    5.00
   6  -8   5   70.79    8.00
  -6   8  -5   80.09    8.80
   6  -8   4   16.90    4.40
  -6   8  -4   20.10    4.60
   6  -8   3  182.18   11.40
  -6   8  -3  162.48   11.00
   6  -8   2   36.10    5.00
  -6   8  -2   33.50    4.50
  -6   8  -1  101.49    6.80
  -6   8  -1   94.09    7.10
   6  -8   0    1.70    2.00
   6  -8   0   -0.70    2.20
  -6   8   0    1.20    1.90
  -6   8   0    1.60    2.50
   6  -8  -1  315.67   17.70
   6  -8  -1  335.97   17.40
  -6   8   1  329.67   17.80
  -6   8   1  345.97   17.30
   6  -8  -2   69.49    5.50
   6  -8  -2   64.19    4.70
  -6   8   2   68.19    5.50
  -6   8   2   71.99    4.70
   6  -8  -3  104.99    7.00
  -6   8   3   97.59    6.90
   6  -8  -4   39.80    3.80
   6  -8  -4   51.09    4.90
  -6   8   4   45.40    4.10
  -6   8   4   51.59    5.00
   6  -8  -5   62.09    5.10
  -6   8   5   73.29    5.40
  -6   8   5   65.09    6.00
   6  -8  -6   32.00    5.00
   6  -8  -6   26.50    4.90
  -6   8   6   39.10    4.80
   6  -8  -7    2.00    6.90
   6  -8  -7   13.90    4.70
   6  -8  -7    1.60    4.60
  -6   8   7   11.30    4.20
   6  -8  -8   -0.60    5.10
  -6   8   8   -0.70    4.70
  -5   7  -6    1.90    4.10
   5  -7   5   37.40    6.00
  -5   7  -5   41.10    6.00
   5  -7   4  271.87   16.00
  -5   7  -4  268.87   15.80
   5  -7   3   11.90    3.40
  -5   7  -3   10.10    3.10
  -5   7  -2   61.79    5.50
  -5   7  -2   70.49    5.80
  -5   7  -2   69.89    7.00
   5  -7   1  132.39    8.10
   5  -7   1  134.19    8.40
  -5   7  -1  129.79    8.00
   5  -7   0   22.60    3.50
   5  -7   0   22.30    3.00
  -5   7   0   23.80    2.90
  -5   7   0   17.10    3.10
   5  -7  -1  398.96   19.80
   5  -7  -1  368.96   20.10
  -5   7   1  383.96   20.20
  -5   7   1  397.66   19.80
   5  -7  -2  255.27   14.10
  -5   7   2  266.77   14.20
  -5   7   2  269.17   13.70
   5  -7  -3   98.09    6.30
   5  -7  -3   84.89    5.60
  -5   7   3   98.69    6.40
  -5   7   3   97.89    5.80
   5  -7  -4   48.90    4.00
  -5   7   4   51.79    4.20
  -5   7   4   59.59    4.80
   5  -7  -5    1.40    2.60
   5  -7  -5    2.90    2.20
  -5   7   5    2.10    2.40
  -5   7   5    2.30    3.10
   5  -7  -6   13.00    4.20
   5  -7  -6   28.40    4.40
   5  -7  -6   14.20    3.50
  -5   7   6   19.20    3.80
   5  -7  -7   27.90    4.70
   5  -7  -8    5.30    5.20
  -5   7   8    2.20    4.60
   4  -6   6    0.10    4.10
   4  -6   5   51.09    6.60
  -4   6  -5   50.29    6.20
   4  -6   4    0.70    2.90
  -4   6  -4    3.90    2.70
   4  -6   3   82.19    7.20
  -4   6  -3   90.99    6.80
  -4   6  -3   90.19    6.70
   4  -6   2  247.58   13.70
  -4   6  -2  242.38   13.50
   4  -6   1 2001.80   99.59
   4  -6   1 2103.79   99.59
  -4   6  -1 1993.30   99.59
  -4   6  -1 1995.80   99.29
   4  -6   0 1164.58   55.69
   4  -6   0 1096.79   55.89
  -4   6   0 1172.98   55.69
  -4   6   0 1076.69   55.79
   4  -6  -1  104.29    6.70
   4  -6  -1  113.59    6.30
  -4   6   1  113.89    6.30
  -4   6   1  106.89    6.80
   4  -6  -2  746.73   37.00
   4  -6  -2  735.63   37.30
  -4   6   2  786.72   37.10
  -4   6   2  729.33   37.30
  -4   6   3   34.50    3.60
   4  -6  -4    1.30    1.60
   4  -6  -4    2.40    2.20
  -4   6   4    2.90    1.90
  -4   6   4    4.00    2.20
   4  -6  -5   44.00    4.30
   4  -6  -5   53.99    4.80
   4  -6  -5   48.50    4.60
  -4   6   5   50.89    4.60
   4  -6  -6   34.70    4.60
   4  -6  -6   41.90    5.40
   4  -6  -6   32.60    4.50
  -4   6   6   44.00    5.10
   4  -6  -7    9.20    3.70
   4  -6  -7    5.60    7.00
  -4   6   7    7.40    4.20
   4  -6  -8    2.10    5.10
  -4   6   8    1.20    4.50
   3  -5   7    1.20    4.80
  -3   5  -7    2.80    4.10
   3  -5   6  194.78   13.10
  -3   5  -6  212.18   13.30
   3  -5   5   17.00    4.20
  -3   5  -5   24.30    4.20
   3  -5   4   86.59    7.00
  -3   5  -4   85.79    6.80
   3  -5   3    3.70    2.40
  -3   5  -3    7.70    2.90
  -3   5  -3    9.80    2.70
  -3   5  -3    8.50    2.50
   3  -5   2 1310.77   66.09
  -3   5  -2 1330.27   65.89
  -3   5  -2 1315.57   65.89
  -3   5  -2 1369.86   66.09
   3  -5   1   35.90    3.80
   3  -5   1   42.70    3.90
  -3   5  -1   45.90    4.00
  -3   5  -1   41.40    3.80
   3  -5   0 2517.35  121.39
   3  -5   0 2404.56  121.49
  -3   5   0 2579.44  121.39
  -3   5   0 2439.06  121.49
   3  -5  -1  179.08    9.20
   3  -5  -1  165.78    9.40
  -3   5   1  167.98    9.40
  -3   5   1  180.38    9.20
   3  -5  -2  293.87   16.00
   3  -5  -2  347.47   16.80
  -3   5   2  305.37   15.90
   3  -5  -3    1.00    1.80
   3  -5  -3    0.50    1.40
  -3   5   3    1.30    1.60
  -3   5   3    4.10    1.90
   3  -5  -4   23.50    2.90
   3  -5  -4   18.90    2.90
  -3   5   4   19.40    2.70
   3  -5  -5   95.39    6.70
   3  -5  -5  106.39    6.90
   3  -5  -5   94.69    6.70
  -3   5   5  108.99    7.00
   3  -5  -6    0.60    2.80
   3  -5  -6    1.20    3.10
   3  -5  -6    1.80    3.30
   3  -5  -7    1.30    3.30
   3  -5  -7    2.10    7.30
  -3   5   7   -3.30    3.70
   3  -5  -8   21.60    5.70
  -3   5   8   13.90    5.20
   2  -4   7   27.60    5.50
   2  -4   6   -1.70    3.70
  -2   4  -6    0.60    3.40
   2  -4   5  179.48   11.30
  -2   4  -5  177.28   11.20
   2  -4   4  369.16   19.90
  -2   4  -4  348.87   19.80
  -2   4  -4  388.66   19.90
  -2   4  -4  367.26   19.90
   2  -4   3  138.79    8.60
  -2   4  -3  145.09    8.70
  -2   4  -3  136.19    8.50
  -2   4  -3  138.19    8.60
   2  -4   2  383.16   19.70
  -2   4  -2  377.36   19.50
  -2   4  -2  363.76   19.50
  -2   4  -2  386.86   19.70
   2  -4   1  132.59    7.80
   2  -4   1  140.29    7.80
  -2   4  -1  139.79    7.90
  -2   4  -1  132.39    7.70
   2  -4   0 4341.97  209.38
  -2   4   0 4131.49  209.38
  -2   4   0 4431.36  209.38
   2  -4  -1 1604.14   79.79
  -2   4   1 1590.64   79.79
  -2   4   1 1708.63   79.79
   2  -4  -2  151.58    8.10
   2  -4  -2  164.18    8.40
  -2   4   2  148.69    8.10
  -2   4   2  145.99    8.10
   2  -4  -3   10.90    2.00
   2  -4  -3   12.40    2.10
  -2   4   3   11.70    1.90
   2  -4  -4  313.37   16.10
   2  -4  -4  314.87   16.20
   2  -4  -4  303.47   16.10
  -2   4   4  303.07   16.20
   2  -4  -5   16.00    3.00
   2  -4  -5    9.80    2.60
  -2   4   5    8.00    2.70
   2  -4  -6   50.29    5.30
   2  -4  -6   40.60    4.90
  -2   4   6   46.50    5.50
   2  -4  -7   -3.60    4.60
   2  -4  -7    2.20    3.40
  -2   4   7    2.60    3.80
   2  -4  -8   55.19    7.20
  -2   4   8   37.70    6.10
   1  -3   7   41.50    6.40
  -1   3  -7   38.80    5.90
   1  -3   6   11.10    4.30
  -1   3  -6   10.30    3.70
   1  -3   5   45.30    5.50
  -1   3  -5   41.20    4.90
  -1   3  -5   47.30    6.80
   1  -3   4   42.30    4.70
  -1   3  -4   43.70    4.90
  -1   3  -4   38.80    4.50
  -1   3  -4   44.50    4.60
   1  -3   3   71.29    5.40
  -1   3  -3   70.69    5.20
  -1   3  -3   72.99    5.20
  -1   3  -3   68.49    5.40
   1  -3   2   24.40    3.20
  -1   3  -2   23.40    3.10
  -1   3  -2   21.60    2.80
  -1   3  -2   23.30    2.90
   1  -3   1   70.19    4.50
   1  -3   1   63.69    4.40
  -1   3  -1   67.99    4.70
  -1   3  -1   66.19    4.30
   1  -3   0  786.82   37.40
   1  -3   0  731.83   37.40
  -1   3   0  796.02   37.40
  -1   3   0  730.43   37.40
   1  -3  -1 1419.66   69.69
   1  -3  -1 1425.36   69.79
  -1   3   1 1409.16   69.69
  -1   3   1 1471.75   69.89
   1  -3  -2  125.79    7.50
   1  -3  -2  128.69    7.10
  -1   3   2  143.09    7.40
   1  -3  -3  267.57   14.60
   1  -3  -3  277.07   14.80
   1  -3  -3  321.07   15.00
  -1   3   3  271.87   14.80
   1  -3  -4  176.98   10.60
   1  -3  -4  201.38   10.50
   1  -3  -4  190.08   10.50
  -1   3   4  192.58   10.80
   1  -3  -5  131.09    7.80
   1  -3  -5  118.79    8.10
   1  -3  -5  117.89    7.80
  -1   3   5  126.89    8.10
   1  -3  -6   14.70    3.60
  -1   3   6   10.60    3.60
   1  -3  -7   30.80    5.40
  -1   3   7   25.80    5.00
   1  -3  -8    8.90    5.40
   0   2  -8   32.90    6.10
   0   2  -8   27.70    7.40
   0  -2   7   20.70    5.10
   0   2  -7   14.60    4.50
   0  -2   6    8.20    3.80
   0   2  -6    1.90    3.10
   0  -2   5  141.49    9.00
   0   2  -5  127.99    9.00
   0   2  -5  141.89    9.00
   0   2  -5  132.39    8.80
   0  -2   4   22.00    3.40
   0   2  -4   10.10    2.20
   0   2  -4   13.60    2.70
   0   2  -4   17.90    3.10
   0  -2   3  155.08    9.10
   0   2  -3  144.89    8.80
   0   2  -3  160.38    9.00
   0   2  -3  163.78    9.00
   0  -2   2  246.28   13.20
   0   2  -2  261.27   13.10
   0   2  -2  247.48   13.20
   0   2  -2  249.18   13.10
   0  -2   1  279.27   14.50
   0   2  -1  280.47   14.50
   0   2  -1  301.77   14.60
   0  -2   0  711.43   30.90
   0   2   0  607.74   30.70
   0   2   0  567.14   30.70
   0  -2  -1  254.77   12.90
   0   2   1  259.27   12.90
   0  -2  -2  240.88   12.00
   0  -2  -2  219.08   12.30
   0   2   2  242.68   12.00
   0   2   2  239.08   12.30
   0  -2  -3  154.18    8.90
   0  -2  -3  176.58    8.90
   0   2   3  146.49    8.50
   0   2   3  149.99    8.80
   0  -2  -4   19.50    3.10
   0  -2  -4   18.50    2.70
   0   2   4   22.70    3.00
   0   2   4   17.60    3.20
   0  -2  -5  126.69    7.80
   0  -2  -5  126.29    8.50
   0   2   5  119.59    9.60
   0  -2  -6    6.60    3.70
   0  -2  -6    2.70    2.80
   0   2   6    3.70    3.20
   0  -2  -7   22.60    5.20
   0   2   7   15.30    4.30
   0  -2  -8   13.30    5.40
   0  -2  -8   31.50    6.00
   1   1  -8   26.10    5.60
   1   1  -8   47.90    7.50
   1   1  -7   -0.10    3.40
   1   1  -7   -3.10    4.20
   1   1  -6   45.30    5.20
  -1  -1   5  121.09    8.10
   1   1  -5  110.59    7.90
  -1  -1   4  109.89    7.20
   1   1  -4  111.09    7.00
   1   1  -4  107.69    7.10
  -1  -1   3   70.79    5.20
   1   1  -3   70.89    4.80
   1   1  -3   74.49    5.10
  -1  -1   2   31.60    3.40
   1   1  -2   33.80    2.90
  -1  -1   1  811.92   39.80
   1   1  -1  786.52   39.70
   1   1  -1  844.12   40.00
  -1  -1  -1 3481.55  169.98
   1   1   1 3558.34  169.78
   1   1   1 3435.36  169.98
  -1  -1  -2   54.09    3.70
  -1  -1  -2   58.49    4.00
   1   1   2   50.29    4.10
   1   1   2   56.19    3.90
  -1  -1  -3  113.89    6.80
  -1  -1  -3  107.39    6.50
   1   1   3  108.89    6.90
   1   1   3  106.69    6.60
  -1  -1  -4  129.49    7.70
   1   1   4  121.99    8.10
   1   1   4  129.79    7.80
  -1  -1  -5   23.60    3.50
  -1  -1  -6   49.90    5.40
   1   1   6   62.59    6.40
   1   1   6   93.29   10.40
   2   0  -8   10.00    5.20
   2   0  -8    0.30    3.90
   2   0  -7   -3.00    3.10
   2   0  -7   11.30    4.30
   2   0  -6   26.50    4.80
   2   0  -6   16.80    3.80
   2   0  -6   16.60    4.60
  -2   0   5    1.50    2.50
   2   0  -5    7.80    2.90
   2   0  -5    9.30    3.00
   2   0  -5   -2.70    2.40
  -2   0   4 1389.16   67.39
   2   0  -4 1372.16   67.69
   2   0  -4 1390.26   67.39
   2   0  -4 1315.27   67.59
  -2   0   3    8.30    1.80
   2   0  -3   17.50    2.70
   2   0  -3    8.60    1.70
   2   0  -3   14.70    2.60
  -2   0   2 9713.13  478.75
   2   0  -2 9999.00  478.75
  -2   0   1    3.30    1.40
   2   0  -1    3.60    1.40
  -2   0   0  471.65   23.50
  -2   0   0  492.65   23.40
   2   0   0  464.55   23.50
   2   0   0  476.55   23.40
  -2   0  -1    1.00    1.60
  -2   0  -1    1.90    1.40
   2   0   1    0.10    1.50
   2   0   1    2.30    1.60
  -2   0  -2   28.50    3.00
  -2   0  -2   25.10    2.90
   2   0   2   23.30    2.90
   2   0   2   20.20    2.70
  -2   0  -3    1.20    1.70
  -2   0  -3    0.10    1.80
   2   0   3    1.00    1.80
   2   0   3    1.50    1.90
  -2   0  -4   30.40    4.20
  -2   0  -4   29.20    3.70
   2   0   4   30.00    3.90
   2   0   4   35.10    4.20
  -2   0  -5   -1.80    2.20
   2   0   5   -5.00    2.70
   2   0   5    1.20    2.80
   2   0   6   66.29    6.50
  -2   0  -7    0.60    3.50
   2   0   7    0.60    4.00
   3  -1  -8    9.30    4.40
   3  -1  -8   27.70    6.00
   3  -1  -7   67.39    6.20
   3  -1  -6   30.90    4.50
   3  -1  -6   23.20    4.20
  -3   1   5   72.79    5.70
   3  -1  -5   76.59    5.90
   3  -1  -5   72.59    5.50
   3  -1  -5   79.79    5.90
  -3   1   4  298.57   17.00
   3  -1  -4  338.27   17.50
   3  -1  -4  342.97   17.50
   3  -1  -4  345.87   17.10
  -3   1   3  978.00   45.00
  -3   1   3  847.42   44.30
   3  -1  -3  860.11   44.30
   3  -1  -3  926.31   44.80
  -3   1   2  364.96   18.30
   3  -1  -2  341.87   18.00
  -3   1   1  428.96   21.30
   3  -1  -1  421.26   21.30
  -3   1   0   99.59    5.80
  -3   1   0   98.99    5.50
   3  -1   0   99.19    5.70
  -3   1  -1  447.46   23.10
  -3   1  -1  469.15   23.10
   3  -1   1  469.65   23.10
   3  -1   1  448.06   23.10
  -3   1  -2  186.58   10.30
  -3   1  -2  189.28   10.40
   3  -1   2  188.38   10.40
   3  -1   2  185.48   10.30
  -3   1  -3   16.40    3.00
  -3   1  -3   22.40    3.10
   3  -1   3   19.30    3.10
   3  -1   3   26.20    3.30
  -3   1  -4  289.27   17.10
   3  -1   4  318.47   17.10
   3  -1   4  321.67   16.90
  -3   1  -5   22.10    4.10
   3  -1   5   21.40    4.10
  -3   1  -6   70.29    7.20
   3  -1   6   75.49    6.90
  -3   1  -7   -0.60    3.60
   3  -1   7   -2.10    4.00
   4  -2  -8    3.10    5.00
   4  -2  -8   -1.30    3.70
   4  -2  -7   69.49    7.00
  -4   2   6    5.80    3.10
   4  -2  -6    9.10    3.30
   4  -2  -6   13.50    4.20
   4  -2  -6    2.80    2.90
  -4   2   5   63.49    4.80
   4  -2  -5   61.69    4.60
   4  -2  -5   53.29    5.30
   4  -2  -5   65.19    5.40
  -4   2   4  872.51   43.10
  -4   2   3  470.05   23.60
   4  -2  -3  455.65   23.50
  -4   2   2   72.59    4.80
   4  -2  -2   64.49    4.80
  -4   2   1   32.40    3.50
   4  -2  -1   34.70    3.40
  -4   2   0   30.10    2.90
  -4   2   0   28.80    3.20
  -4   2   0   25.50    2.80
   4  -2   0   29.30    3.20
  -4   2  -1  271.07   14.50
  -4   2  -1  281.87   14.50
   4  -2   1  273.67   14.50
  -4   2  -2  262.57   14.10
  -4   2  -2  267.27   14.20
   4  -2   2  255.87   14.10
   4  -2   2  263.47   14.20
  -4   2  -3   76.89    5.90
  -4   2  -3   87.99    6.20
   4  -2   3   85.09    6.10
   4  -2   3   84.19    6.20
  -4   2  -4    9.80    2.90
   4  -2   4    8.80    3.20
  -4   2  -5  231.68   14.10
   4  -2   5  220.98   13.40
  -4   2  -6   14.80    4.40
   4  -2   6   26.20    5.10
  -4   2  -7   10.50    4.60
   4  -2   7    9.20    4.70
   5  -3  -8   -0.90    3.70
   5  -3  -8    7.70    5.20
   5  -3  -7   34.50    5.20
   5  -3  -7   16.50    4.00
  -5   3   6    6.60    2.90
   5  -3  -6    8.70    3.40
   5  -3  -6    5.00    2.60
   5  -3  -6    8.90    4.30
  -5   3   5  203.48   10.70
   5  -3  -5  201.78   11.40
   5  -3  -5  185.48   11.20
   5  -3  -5  189.28   10.50
  -5   3   4  147.39    9.00
   5  -3  -4  144.99    8.90
  -5   3   3  664.83   33.90
   5  -3  -3  684.63   33.90
  -5   3   2  117.79    7.10
   5  -3  -2  116.39    7.00
  -5   3   1   35.70    3.70
  -5   3   1   38.80    2.80
   5  -3  -1   38.70    3.80
  -5   3   0    2.10    1.50
  -5   3   0    4.10    1.60
  -5   3   0    3.10    2.00
   5  -3   0    2.10    1.80
  -5   3  -1  626.04   31.20
  -5   3  -1  621.24   31.30
  -5   3  -1  609.54   31.30
   5  -3   1  617.64   31.40
  -5   3  -2  122.49    7.90
  -5   3  -2  122.99    7.50
  -5   3  -2  110.69    7.40
   5  -3   2  112.99    7.40
  -5   3  -3  168.78   10.40
  -5   3  -3  180.38   10.70
   5  -3   3  175.28   10.50
  -5   3  -4   40.60    5.20
   5  -3   4   39.60    5.00
  -5   3  -5   12.30    4.10
   5  -3   5   23.60    4.50
  -5   3  -6   20.80    4.70
   5  -3   6   19.00    4.90
   6  -4  -8   13.70    5.60
  -6   4   7   10.20    3.80
   6  -4  -7   28.10    5.10
   6  -4  -7   12.20    3.90
  -6   4   6   22.70    3.40
   6  -4  -6   18.10    3.90
   6  -4  -6   18.90    3.00
   6  -4  -6   40.90    7.90
   6  -4  -5  161.68   10.00
  -6   4   4  377.36   20.50
   6  -4  -4  406.36   20.60
  -6   4   3   32.90    4.00
   6  -4  -3   42.10    4.30
  -6   4   2  413.66   20.90
   6  -4  -2  391.36   20.80
  -6   4   1  694.93   35.40
  -6   4   1  713.53   34.90
   6  -4  -1  700.63   35.40
  -6   4   0  130.19    7.60
  -6   4   0  131.79    8.00
  -6   4   0  130.29    7.60
   6  -4   0  125.99    8.00
  -6   4  -1  269.77   14.60
  -6   4  -1  264.27   14.50
  -6   4  -1  267.57   14.40
   6  -4   1  269.17   14.70
  -6   4  -2   75.79    5.80
  -6   4  -2   76.49    5.90
  -6   4  -2   71.39    5.80
   6  -4   2   81.39    6.00
  -6   4  -3  148.49    9.60
   6  -4   3  141.29    9.40
  -6   4  -4  112.99    8.50
   6  -4   4  104.89    8.20
  -6   4  -5   11.70    4.10
   6  -4   5   14.20    4.10
  -6   4  -6  166.18   12.20
   6  -4   6  157.68   11.60
   7  -5  -8    3.70    4.10
   7  -5  -8   16.50    5.80
   7  -5  -7   31.20    5.60
   7  -5  -6  272.87   15.70
  -7   5   5   53.99    5.80
   7  -5  -4  117.99    7.90
  -7   5   3   60.59    5.50
   7  -5  -3   70.69    5.60
  -7   5   2  516.65   26.30
   7  -5  -2  503.05   26.20
  -7   5   1   19.70    2.50
  -7   5   1   23.90    3.60
   7  -5  -1   24.60    3.50
  -7   5   0   77.69    5.30
  -7   5   0   72.29    5.20
   7  -5   0   72.19    5.80
  -7   5  -1   69.79    5.90
  -7   5  -1   68.09    5.60
  -7   5  -1   70.89    5.50
   7  -5   1   71.79    6.00
  -7   5  -2  585.94   30.20
   7  -5   2  574.14   30.30
  -7   5  -3    1.20    2.70
   7  -5   3   -0.20    2.60
  -7   5  -4  145.59   10.40
   7  -5   4  138.09   10.00
  -7   5  -5   48.50    6.70
   7  -5   5   38.10    6.10
   8  -6  -8   12.50    5.80
   8  -6  -7   16.10    5.20
   8  -6  -6  113.39    8.80
  -8   6   5   67.99    7.30
   8  -6  -5   84.69    6.90
  -8   6   4  148.29    9.90
   8  -6  -4  163.18   10.10
  -8   6   3  243.38   14.40
   8  -6  -3  266.47   14.40
  -8   6   2    0.60    1.60
  -8   6   2    2.40    2.60
   8  -6  -2    2.00    1.40
   8  -6  -2    2.50    2.70
  -8   6   1  141.29    8.20
  -8   6   1  148.29    8.20
  -8   6   1  135.89    9.00
   8  -6  -1  135.69    9.00
  -8   6   0   66.39    5.10
  -8   6   0   60.69    6.10
  -8   6   0   65.39    5.10
   8  -6   0   67.19    6.00
  -8   6  -1   76.99    8.90
  -8   6  -1   97.49    6.80
   8  -6   1   99.69    7.40
  -8   6  -2   24.00    4.20
   8  -6   2   26.30    4.70
  -8   6  -3    7.80    3.20
   8  -6   3    6.10    3.30
  -8   6  -4  113.39    9.30
   8  -6   4  109.99    9.10
  -8   6  -5   95.89    8.90
   8  -6   5   73.59    9.60
   9  -7  -8   26.40    6.70
   9  -7  -7   63.39    8.00
   9  -7  -6   22.00    5.00
   9  -7  -5  128.39    9.40
   9  -7  -4   25.90    4.20
   9  -7  -3   27.20    4.60
  -9   7   2   27.50    3.40
   9  -7  -2   18.60    3.70
  -9   7   1   11.10    2.50
  -9   7   1    9.80    2.40
   9  -7  -1   18.20    3.90
  -9   7   0  312.47   16.60
  -9   7   0  287.07   16.40
   9  -7   0  312.67   17.30
  -9   7  -1   11.60    3.20
   9  -7   1   12.30    3.90
  -9   7  -2    6.20    3.30
   9  -7   2    7.20    3.60
  -9   7  -3   81.49    7.70
   9  -7   3   81.39    7.80
  -9   7  -4   65.49    7.70
  10  -8  -8    6.50    6.60
  10  -8  -7   43.90    7.20
  10  -8  -6   10.80    5.00
  10  -8  -5   68.79    7.40
  10  -8  -4   10.30    4.20
  10  -8  -3   77.29    7.00
 -10   8   2   17.10    3.00
 -10   8   2   16.40    2.90
  10  -8  -2   20.00    4.40
 -10   8   1  231.18   15.00
 -10   8   1  310.87   15.30
  10  -8  -1  290.07   16.20
 -10   8   0   38.70    4.70
  10  -8   0   42.10    5.70
 -10   8  -1   49.30    5.80
  10  -8   1   54.29    6.90
 -10   8  -2   20.80    4.50
  10  -8   2   23.30    5.50
 -10   8  -3   67.79    9.10
 -10   8  -4    7.80    4.70
  10  -8   4    8.20    4.60
  11  -9  -7   20.20    6.50
  11  -9  -6   17.70    5.80
  11  -9  -5   83.69    8.40
  11  -9  -4   29.40    5.50
  11  -9  -3    9.60    4.10
 -11   9   2   11.10    3.10
 -11   9   2   17.00    3.20
  11  -9  -2   17.10    4.60
 -11   9   1    0.10    2.90
 -11   9   1    3.80    2.90
  11  -9  -1    6.20    3.90
 -11   9   0  264.17   14.90
  11  -9   0  251.57   15.80
 -11   9  -1   13.40    4.20
  11  -9   1   11.30    4.50
 -11   9  -2   50.69    6.50
 -11   9  -3   25.50    5.70
  11  -9   3   27.30    6.10
  12 -10  -7   20.70    7.20
  12 -10  -6   19.50    6.30
  12 -10  -5   13.00    5.40
  12 -10  -4  115.09    9.80
  12 -10  -3   22.00    5.20
 -12  10   2  157.78   10.20
 -12  10   2  147.99   10.10
  12 -10  -2  203.88   12.20
 -12  10   1   13.30    3.60
  12 -10  -1   17.30    4.90
 -12  10   0  162.28   10.70
  12 -10   0  151.78   11.60
 -12  10  -1   22.00    4.90
  12 -10   1   29.20    6.00
 -12  10  -2   20.10    5.30
  12 -10   2    6.80    4.70
  13 -11  -5   48.60    8.00
  13 -11  -4    1.80    5.10
 -13  11   3   44.00    5.30
  13 -11  -3   45.40    6.90
 -13  11   2    0.20    3.10
  13 -11  -2    2.20    5.40
 -13  11   1   35.90    5.00
  13 -11  -1   37.10    6.70
 -13  11   0    0.20    3.70
  13 -11   0   -0.40    4.20
  13 -11   1   12.90    5.00
  14 -12  -5   18.80    6.90
  14 -12  -4   49.50    7.90
 -14  12   3   10.00    4.00
  14 -12  -3   14.10    5.90
 -14  12   2   10.50    3.90
  14 -12  -2   14.40    5.40
 -14  12   1   -1.10    3.70
  14 -12  -1    3.50    4.90
  12 -16  -1    6.10    5.30
 -12  16   1    4.50    4.10
  12 -16  -2   -0.30    5.20
 -12  16   2    1.60    4.00
  12 -16  -3    6.40    6.10
 -12  16   3    9.50    4.60
 -12  16   4   19.80    5.20
  11 -15   1   59.69    8.30
 -11  15  -1   45.20    6.60
  11 -15   0   26.30    6.10
 -11  15   0   24.80    5.00
 -11  15   1   62.89    6.80
  11 -15  -2   25.30    6.30
 -11  15   2   22.30    4.70
  11 -15  -3    3.50    4.60
 -11  15   3    0.30    4.00
  11 -15  -4   23.10    6.60
 -11  15   4   12.80    4.50
  11 -15  -5   17.70    6.30
 -11  15   5   11.80    4.50
  10 -14   2   52.29    7.90
 -10  14  -2   57.19    7.30
  10 -14   1   53.89    7.90
 -10  14  -1   52.79    6.60
  10 -14   0  139.79   11.00
 -10  14   0  140.29    9.90
  10 -14  -1   40.70    6.60
 -10  14   1   33.80    4.70
  10 -14  -2  205.68   13.30
 -10  14   2  183.18   11.80
  10 -14  -3   24.90    5.90
 -10  14   3   16.30    4.30
  10 -14  -4   78.09    8.10
 -10  14   4  123.79    9.00
  10 -14  -5    3.50    3.80
  10 -14  -5    1.80    5.20
  10 -14  -6    6.00    6.10
 -10  14   6    0.70    6.90
   9 -13   3   12.20    5.20
  -9  13  -3    9.80    4.60
  -9  13  -2   18.90    4.70
   9 -13   1   41.50    6.60
  -9  13  -1   37.40    5.50
   9 -13   0  151.18   11.10
  -9  13   0  153.98   10.20
   9 -13  -1  247.28   15.10
  -9  13   1  241.08   14.10
   9 -13  -2   20.70    5.10
  -9  13   2   16.80    3.80
   9 -13  -3    2.80    3.10
   9 -13  -3    5.90    4.30
  -9  13   3    4.90    3.30
   9 -13  -4   10.10    4.90
   9 -13  -4    1.10    3.20
  -9  13   4    1.10    3.20
   9 -13  -5   35.10    6.00
  -9  13   5   25.00    4.40
   9 -13  -6    0.00    3.50
   9 -13  -6    7.20    5.40
  -9  13   6    2.10    6.20
   9 -13  -7    4.10    5.80
  -9  13   7    0.30    4.60
   8 -12   4    9.80    4.60
  -8  12  -4   11.00    4.70
  -8  12  -3   31.90    5.60
   8 -12   2    3.40    3.60
  -8  12  -2    5.20    3.40
   8 -12   1   27.50    5.50
  -8  12  -1   17.90    4.20
   8 -12   0   42.30    5.90
  -8  12   0   41.10    5.10
   8 -12  -1  296.27   16.90
  -8  12   1  290.17   16.10
   8 -12  -2    5.30    2.90
   8 -12  -2   11.60    3.80
  -8  12   2    9.60    3.00
   8 -12  -3    1.20    3.60
   8 -12  -3    1.50    4.40
  -8  12   3    3.50    2.80
   8 -12  -4    5.90    4.00
   8 -12  -4    1.20    5.80
  -8  12   4    2.40    2.80
   8 -12  -5   70.59    7.10
  -8  12   5   58.69    6.00
   8 -12  -6    2.20    4.80
   8 -12  -6   -0.40    3.40
  -8  12   6    0.60    4.20
   8 -12  -7    5.50    5.40
  -8  12   7    2.30    4.40
   7 -11   5   14.60    5.30
  -7  11  -5   25.60    5.90
  -7  11  -4  199.38   14.20
   7 -11   3  141.09   10.50
  -7  11  -3  136.39   10.10
   7 -11   2  110.69    8.60
  -7  11  -2   96.09    7.80
   7 -11   1  185.18   11.90
  -7  11  -1  181.38   11.30
   7 -11   0   10.20    3.80
   7 -11   0   16.90    4.20
  -7  11   0   17.90    3.50
   7 -11  -1   13.30    3.40
   7 -11  -1    9.20    2.70
  -7  11   1    9.80    2.60
   7 -11  -2    3.80    2.40
   7 -11  -2   -0.60    5.80
  -7  11   2    5.20    3.60
  -7  11   2   10.20    2.60
   7 -11  -3   12.10    2.70
   7 -11  -3   15.80    3.70
  -7  11   3   11.40    4.00
  -7  11   3   10.10    2.60
   7 -11  -4   52.59    5.80
   7 -11  -4   42.70    4.70
  -7  11   4   51.49    6.10
  -7  11   4   62.09    5.20
   7 -11  -5   26.70    6.00
  -7  11   5   26.40    5.10
  -7  11   5   26.90    4.00
   7 -11  -6    2.20    3.40
  -7  11   6    2.60    4.10
  -7  11   6    3.50    4.40
   7 -11  -7   23.80    5.60
  -7  11   7   16.10    4.90
   6 -10   5    3.60    4.00
  -6  10  -5    4.60    3.80
   6 -10   4  218.98   14.00
  -6  10  -4  210.98   13.60
   6 -10   3   24.40    5.00
  -6  10  -3   26.90    4.70
   6 -10   2  368.36   20.30
  -6  10  -2  356.76   19.80
   6 -10   1  202.88   12.20
  -6  10  -1  195.28   11.60
   6 -10   0  567.84   29.60
  -6  10   0  579.24   29.50
  -6  10   0  582.14   30.00
   6 -10  -1    5.90    2.50
   6 -10  -1    9.70    2.90
  -6  10   1    6.00    3.00
  -6  10   1    7.40    2.40
   6 -10  -2  105.29    7.30
   6 -10  -2  129.39    8.00
  -6  10   2  127.89    7.50
  -6  10   2  121.59    8.10
   6 -10  -3  106.39    6.90
   6 -10  -3  123.69    7.70
  -6  10   3  114.69    7.70
  -6  10   3  107.19    7.10
   6 -10  -4   20.00    3.10
   6 -10  -4   25.00    4.00
  -6  10   4   22.90    4.10
  -6  10   4   25.20    3.50
   6 -10  -5   39.30    5.00
   6 -10  -5   16.30    3.50
  -6  10   5   25.30    4.60
  -6  10   5   22.60    3.80
   6 -10  -6   35.00    4.90
   6 -10  -6   15.50    4.00
  -6  10   6   20.20    4.90
   6 -10  -7    4.30    4.00
   6 -10  -7    8.90    7.10
  -6  10   7    6.60    4.30
   6 -10  -8    0.50    5.50
  -6  10   8   -4.60    4.90
   5  -9   6   17.40    5.60
  -5   9  -6   18.40    5.20
   5  -9   5    1.40    3.70
  -5   9  -5    2.30    3.80
   5  -9   4   50.39    6.40
  -5   9  -4   54.99    6.40
   5  -9   3   77.69    7.10
  -5   9  -3   75.89    6.50
   5  -9   2  508.55   25.80
  -5   9  -2  457.95   25.30
   5  -9   1   60.99    5.40
   5  -9   1   65.09    5.70
  -5   9  -1   61.59    5.20
  -5   9  -1   67.19    5.70
   5  -9   0  646.74   32.80
   5  -9   0  641.34   33.10
  -5   9   0  671.23   32.80
  -5   9   0  628.14   33.50
   5  -9  -1  551.34   28.20
   5  -9  -1  558.94   28.50
  -5   9   1  555.24   28.40
  -5   9   1  555.14   28.10
   5  -9  -2  768.62   38.80
   5  -9  -2  762.62   39.10
  -5   9   2  777.52   39.10
  -5   9   2  804.22   38.90
   5  -9  -3    4.20    2.20
   5  -9  -3    0.90    1.80
  -5   9   3    3.00    2.00
  -5   9   3    5.40    2.50
   5  -9  -4   40.20    4.20
   5  -9  -4   21.70    3.10
  -5   9   4   32.70    4.10
  -5   9   4   35.50    4.00
   5  -9  -5    9.20    2.90
  -5   9   5   10.00    3.40
  -5   9   5   16.90    3.30
   5  -9  -6   69.19    5.90
   5  -9  -6   46.90    5.70
  -5   9   6   76.19    9.20
   5  -9  -7    1.80    3.90
   5  -9  -7   32.80    4.90
  -5   9   7   16.50    4.80
   5  -9  -8   11.40    6.60
  -5   9   8   18.10    5.40
  -4   8  -6   31.40    5.50
   4  -8   5   40.40    6.30
  -4   8  -5   42.60    5.80
   4  -8   4   85.39    7.60
  -4   8  -4   87.79    7.30
   4  -8   3  128.39    8.70
  -4   8  -3  121.39    8.30
   4  -8   2   41.70    4.60
   4  -8   2   42.70    4.30
  -4   8  -2   39.20    4.60
  -4   8  -2   45.60    4.50
   4  -8   1  114.39    7.50
   4  -8   1  107.99    7.30
  -4   8  -1  118.49    7.50
  -4   8  -1  111.19    7.10
   4  -8   0   43.00    4.20
   4  -8   0   39.10    3.90
  -4   8   0   38.60    3.80
  -4   8   0   39.10    4.00
   4  -8  -1  953.80   47.70
   4  -8  -1  920.51   47.40
  -4   8   1  983.40   47.50
  -4   8   1  975.30   47.70
   4  -8  -2   59.49    6.00
   4  -8  -2   58.59    4.20
  -4   8   2   54.39    4.20
  -4   8   2   55.69    4.50
   4  -8  -3   26.60    3.10
   4  -8  -3   30.30    3.40
  -4   8   3   27.80    3.40
  -4   8   3   28.20    3.50
   4  -8  -4   14.80    2.60
   4  -8  -4   21.30    2.90
  -4   8   4   17.90    3.00
  -4   8   4   15.40    3.00
   4  -8  -5   18.10    3.10
   4  -8  -5    5.60    3.10
  -4   8   5   14.20    2.90
   4  -8  -6   26.80    3.80
   4  -8  -6   23.70    5.10
   4  -8  -7   26.80    5.10
  -4   8   7   21.90    4.90
   4  -8  -8    0.20    4.90
   4  -8  -8   -2.50    6.20
  -4   8   8    8.20    5.10
   3  -7   7   13.00    5.60
  -3   7  -7   16.40    5.20
   3  -7   6   84.49    8.50
  -3   7  -6   88.99    8.20
   3  -7   5   11.80    4.30
  -3   7  -5   12.10    3.90
   3  -7   4   18.50    3.80
  -3   7  -4   20.80    3.50
  -3   7  -3   73.39    6.20
  -3   7  -3   77.19    6.00
  -3   7  -3   82.29    6.50
   3  -7   2   67.19    5.50
   3  -7   2   67.19    5.20
  -3   7  -2   69.59    5.30
  -3   7  -2   74.59    5.60
   3  -7   1  419.46   22.50
   3  -7   1  440.36   22.50
  -3   7  -1  440.96   22.40
  -3   7  -1  443.36   22.70
   3  -7   0 1505.85   74.89
   3  -7   0 1545.15   74.79
  -3   7   0 1491.35   74.89
  -3   7   0 1543.35   74.79
   3  -7  -1  439.56   22.50
   3  -7  -1  429.56   22.40
  -3   7   1  448.96   22.50
  -3   7   1  458.55   22.40
   3  -7  -2  246.38   13.60
   3  -7  -2  272.77   13.70
  -3   7   2  250.57   13.60
  -3   7   2  282.07   13.70
   3  -7  -3  129.19    7.60
   3  -7  -3  134.09    7.40
  -3   7   3  138.89    7.70
  -3   7   3  127.69    7.40
   3  -7  -4    0.00    1.80
   3  -7  -4   -0.50    1.80
  -3   7   4   -1.70    2.00
  -3   7   4   -0.30    2.10
   3  -7  -5   94.19    6.50
   3  -7  -5   95.99    7.30
   3  -7  -5  106.19    6.70
  -3   7   5  110.29    7.20
   3  -7  -6    2.90    2.80
   3  -7  -6    5.20    3.30
  -3   7   6    7.60    3.50
   3  -7  -7   37.00    5.60
  -3   7   7   24.80    5.20
   3  -7  -8    2.80    5.00
   3  -7  -8    7.00    6.20
  -3   7   8   -0.30    4.90
   2  -6   7   10.90    5.40
  -2   6  -7    5.90    4.40
   2  -6   6   13.50    5.00
  -2   6  -6   10.50    4.00
   2  -6   5  247.18   14.60
  -2   6  -5  234.78   14.30
   2  -6   4   98.89    7.50
  -2   6  -4   92.49    7.00
   2  -6   3  205.68   11.80
  -2   6  -3  201.58   11.60
  -2   6  -3  202.28   11.50
  -2   6  -3  192.88   12.40
   2  -6   2  255.27   14.20
   2  -6   2  270.67   14.10
  -2   6  -2  247.48   13.90
  -2   6  -2  263.07   14.20
   2  -6   1  288.07   15.60
   2  -6   1  302.97   15.50
  -2   6  -1  299.77   15.50
  -2   6  -1  296.97   15.70
   2  -6   0   29.70    3.20
   2  -6   0   27.40    2.90
  -2   6   0   28.20    3.10
  -2   6   0   30.00    3.10
   2  -6  -1  113.09    6.90
   2  -6  -1  123.19    6.90
  -2   6   1  120.59    6.90
  -2   6   1  139.49    7.00
   2  -6  -2   38.10    3.00
   2  -6  -2   41.10    3.30
  -2   6   2   40.70    3.30
  -2   6   2   38.30    3.10
   2  -6  -3  161.38    9.00
   2  -6  -3  175.58    9.40
  -2   6   3  175.58    9.10
  -2   6   3  168.58    9.40
   2  -6  -4   72.09    4.90
   2  -6  -4   70.99    4.90
   2  -6  -4   71.69    5.20
  -2   6   4   75.89    5.30
   2  -6  -5   47.60    5.20
   2  -6  -5   59.49    4.70
   2  -6  -5   59.89    4.80
  -2   6   5   60.09    5.30
   2  -6  -6   30.10    4.10
   2  -6  -6   42.00    4.90
  -2   6   6   31.00    4.80
   2  -6  -7    8.20    5.90
   2  -6  -7    9.90    4.40
  -2   6   7    8.70    4.20
   2  -6  -8   27.70    5.60
  -2   6   8   16.50    5.50
   1  -5   7   42.40    6.60
  -1   5  -7   40.20    6.00
   1  -5   6   56.09    7.00
  -1   5  -6   53.59    6.30
   1  -5   5   -0.20    3.30
  -1   5  -5    1.90    2.80
   1  -5   4  961.50   48.30
  -1   5  -4  966.30   48.10
  -1   5  -4  945.51   48.20
  -1   5  -4  949.11   48.10
   1  -5   3   79.19    6.00
  -1   5  -3   77.29    5.60
  -1   5  -3   79.09    5.70
  -1   5  -3   74.09    5.80
   1  -5   2  231.88   12.70
   1  -5   2  233.98   12.60
  -1   5  -2  233.98   12.70
  -1   5  -2  229.38   12.50
   1  -5   1  333.97   17.00
   1  -5   1  328.17   17.10
  -1   5  -1  317.57   17.10
  -1   5  -1  344.37   17.00
   1  -5   0   54.19    5.90
   1  -5   0   56.29    4.00
  -1   5   0   59.79    3.90
  -1   5   0   55.19    3.90
   1  -5  -1  911.71   45.30
  -1   5   1  964.00   45.60
  -1   5   1  903.31   45.30
   1  -5  -2   67.39    4.40
  -1   5   2   70.69    4.60
   1  -5  -3  240.48   12.90
  -1   5   3  244.18   12.90
   1  -5  -4  111.99    6.80
   1  -5  -4  122.39    6.80
   1  -5  -4  114.49    7.30
  -1   5   4  120.29    7.50
   1  -5  -5    1.50    2.50
   1  -5  -5    2.00    2.60
   1  -5  -5    3.70    2.20
  -1   5   5    1.80    2.90
   1  -5  -6  120.39    8.30
   1  -5  -6  140.29    8.60
  -1   5   6  130.89    9.20
   1  -5  -7    4.10    3.30
   1  -5  -7    2.30    4.20
  -1   5   7    5.20    4.10
   1  -5  -8   29.20    5.80
  -1   5   8   16.40    5.50
   0   4  -8    6.70    4.60
   0  -4   7   28.10    5.80
   0   4  -7   35.60    5.20
   0  -4   6   78.99    7.70
   0   4  -6   78.79    6.90
   0  -4   5   24.50    4.30
   0   4  -5   22.80    3.50
   0  -4   4  402.56   20.70
   0   4  -4  389.66   20.30
   0   4  -4  361.96   20.80
   0  -4   3  330.57   17.50
   0   4  -3  326.07   17.20
   0   4  -3  312.77   17.40
   0   4  -3  345.07   17.30
   0  -4   2  214.98   11.10
   0  -4   2  211.28   11.30
   0   4  -2  195.38   11.00
   0   4  -2  202.98   11.30
   0  -4   1   20.00    2.70
   0  -4   1   25.80    2.80
   0   4  -1   22.30    2.40
   0   4  -1   18.70    2.70
   0  -4   0  151.98    7.70
   0  -4   0  134.29    7.60
   0   4   0  144.79    7.60
   0   4   0  150.08    7.70
   0  -4  -1   17.00    2.00
   0   4   1   17.00    2.10
   0  -4  -2  198.48   10.70
   0   4   2  202.98   10.70
   0  -4  -3  307.67   15.80
   0  -4  -3  313.57   16.30
   0   4   3  314.37   16.40
   0  -4  -4  430.06   21.20
   0  -4  -4  391.76   20.40
   0  -4  -4  394.26   20.60
   0   4   4  396.96   21.00
   0  -4  -5   33.60    4.00
   0  -4  -5   33.30    3.80
   0   4   5   24.30    3.90
   0  -4  -6   64.79    5.80
   0  -4  -6   76.29    6.30
   0   4   6   77.79    6.90
   0  -4  -7   16.80    3.70
   0   4   7   25.90    4.60
   0  -4  -8   10.90    5.60
   0   4   8    1.70    4.40
   1   3  -8    6.40    4.40
   1   3  -8    4.60    5.90
   1   3  -7   24.50    4.60
  -1  -3   6   18.10    4.60
   1   3  -6   17.80    3.90
  -1  -3   5  102.09    8.70
   1   3  -5  107.69    7.90
   1   3  -5  125.49    7.70
   1   3  -5  107.99    7.70
  -1  -3   4  201.28   11.70
   1   3  -4  211.68   11.50
   1   3  -4  201.68   11.40
   1   3  -4  198.38   11.70
  -1  -3   3  255.67   13.60
   1   3  -3  253.77   13.20
   1   3  -3  244.58   13.50
   1   3  -3  239.58   13.10
  -1  -3   2  141.19    8.30
  -1  -3   2  141.59    8.10
   1   3  -2  138.79    7.80
   1   3  -2  149.19    8.30
  -1  -3   1 1512.25   72.99
  -1  -3   1 1495.75   72.79
   1   3  -1 1464.45   72.89
  -1  -3   0  795.12   39.00
   1   3   0  812.72   39.10
   1   3   0  781.22   38.90
  -1  -3  -1   64.89    4.20
   1   3   1   68.09    4.40
  -1  -3  -2   23.40    2.80
   1   3   2   16.80    2.30
  -1  -3  -3   75.39    5.20
   1   3   3   70.09    5.10
   1   3   3   70.09    4.60
  -1  -3  -4   42.80    4.60
  -1  -3  -4   43.90    3.60
   1   3   4   38.70    3.70
   1   3   4   38.80    4.60
  -1  -3  -5   49.40    4.50
   1   3   5   50.79    5.40
   1   3   5   47.40    4.70
  -1  -3  -6    7.80    3.30
   1   3   6   12.10    3.80
  -1  -3  -7   42.70    6.10
   1   3   7   33.90    5.50
   2   2  -8   17.90    6.00
   2   2  -8   21.20    5.10
   2   2  -7   67.99    7.70
   2   2  -7   62.19    6.60
   2   2  -6    2.10    3.70
   2   2  -6    0.70    2.60
   2   2  -5  255.27   13.00
   2   2  -5  219.08   12.90
   2   2  -5  216.58   13.20
  -2  -2   4  114.29   33.30
   2   2  -4   68.89   27.10
  -2  -2   3   82.49    5.80
   2   2  -3   78.49    5.80
   2   2  -3   78.99    4.90
   2   2  -3   77.99    4.90
  -2  -2   2 3404.36  176.18
   2   2  -2 3783.82  176.58
   2   2  -2 3548.15  176.58
   2   2  -2 3743.13  176.28
  -2  -2   1    4.10    1.10
  -2  -2   1    2.30    1.60
   2   2  -1    3.50    1.00
   2   2  -1    1.50    1.70
  -2  -2   0    6.90    1.50
  -2  -2   0    9.30    1.50
   2   2   0    7.40    1.40
   2   2   0    7.80    1.40
  -2  -2  -1  891.51   43.60
  -2  -2  -1  909.51   43.90
   2   2   1  884.91   43.60
   2   2   1  872.91   43.80
  -2  -2  -2   23.20    2.40
  -2  -2  -2   25.40    3.00
   2   2   2   22.50    2.50
   2   2   2   28.90    3.00
  -2  -2  -3   67.79    4.50
  -2  -2  -3   71.19    5.30
   2   2   3   69.69    4.70
   2   2   3   65.29    5.20
  -2  -2  -4    2.50    1.80
  -2  -2  -4    1.10    2.40
   2   2   4    3.40    2.50
   2   2   4    6.50    2.30
  -2  -2  -5   82.69    6.20
   2   2   5   97.69    7.50
   2   2   5   92.89    6.60
  -2  -2  -6   34.20    4.60
   2   2   6   52.89    8.30
   2   2   6   39.80    5.30
   2   2   7   19.10    4.70
   3   1  -8   11.10    4.40
   3   1  -8   28.20    6.20
   3   1  -7  100.49    7.80
   3   1  -6   42.10    5.40
   3   1  -6   32.50    4.20
   3   1  -6   27.50    4.30
   3   1  -5   71.99    5.60
   3   1  -5   88.49    5.70
   3   1  -5   57.49    6.50
   3   1  -5   81.99    6.20
   3   1  -4  343.17   18.20
   3   1  -4  343.87   17.60
   3   1  -4  342.27   17.60
   3   1  -4  335.17   18.20
   3   1  -3 1066.09   52.79
   3   1  -3 1048.80   52.29
   3   1  -3 1080.69   52.29
  -3  -1   2  327.47   16.60
   3   1  -2  312.77   16.50
  -3  -1   1  440.66   22.50
   3   1  -1  459.65   22.50
  -3  -1   0  101.79    5.70
  -3  -1   0   98.29    5.60
   3   1   0  103.39    5.90
  -3  -1  -1  463.35   23.10
  -3  -1  -1  455.55   22.80
   3   1   1  452.95   23.00
   3   1   1  457.35   22.90
  -3  -1  -2  196.28   10.40
  -3  -1  -2  180.08    9.90
   3   1   2  186.48   10.10
   3   1   2  182.98   10.40
  -3  -1  -3   18.00    3.10
  -3  -1  -3   18.50    2.70
   3   1   3   23.60    3.10
   3   1   3   20.70    3.10
  -3  -1  -4  316.07   16.80
   3   1   4  315.37   17.30
   3   1   4  313.87   16.80
  -3  -1  -5   13.90    3.00
   3   1   5   17.10    4.00
   3   1   5   23.60    3.80
   3   1   6   82.09    7.40
   3   1   6   69.39    6.60
   3   1   7    1.00    3.70
   4   0  -8   32.60    6.20
   4   0  -8   19.40    4.60
   4   0  -7    0.90    3.10
   4   0  -7   10.10    4.50
   4   0  -6  133.69    9.30
   4   0  -6  146.89    9.30
   4   0  -6  172.28   10.00
   4   0  -5   -0.40    1.80
   4   0  -5    1.40    2.80
   4   0  -5    2.20    1.60
   4   0  -4 3104.99  145.29
   4   0  -4 3015.80  144.69
   4   0  -4 2918.21  145.19
   4   0  -4 2822.02  144.69
  -4   0   3    2.40    2.20
   4   0  -3    2.20    2.20
  -4   0   2    3.70    2.30
   4   0  -2    1.90    2.20
  -4   0   1    6.30    2.00
   4   0  -1   10.00    2.20
  -4   0   0  182.78    9.60
  -4   0   0  185.98    9.90
   4   0   0  178.78    9.90
   4   0   0  184.28    9.70
  -4   0  -1    4.00    1.80
  -4   0  -1    5.10    1.80
   4   0   1    3.90    1.80
   4   0   1    3.30    1.80
  -4   0  -2   23.70    3.00
  -4   0  -2   17.00    2.90
   4   0   2   21.20    3.20
   4   0   2   20.20    2.90
  -4   0  -3    0.80    1.70
  -4   0  -3    0.80    2.00
   4   0   3    2.00    1.90
   4   0   3    0.30    1.90
   4   0   4  849.22   43.40
   4   0   4  872.71   43.80
  -4   0  -5    0.80    2.60
   4   0   5    0.20    2.80
   4   0   5   -1.10    3.20
   4   0   6  105.59    8.10
  -4   0  -7    2.40    4.20
   4   0   7   -1.60    3.60
   5  -1  -8   38.80    6.40
   5  -1  -8   17.50    4.80
   5  -1  -7    1.60    3.10
   5  -1  -7    4.20    4.10
   5  -1  -7    2.70    3.20
   5  -1  -6   13.40    6.70
   5  -1  -6   23.30    3.60
   5  -1  -6   36.90    5.10
   5  -1  -6   25.80    3.70
   5  -1  -5   69.09    4.90
  -5   1   4   10.40    3.30
   5  -1  -4   14.20    3.50
  -5   1   3  198.88   11.20
   5  -1  -3  204.98   11.30
  -5   1   2   85.99    5.80
   5  -1  -2   93.29    6.00
  -5   1   1   12.80    2.70
   5  -1  -1   11.70    2.50
  -5   1   0  297.97   15.30
  -5   1   0  296.57   15.60
   5  -1   0  305.07   15.30
   5  -1   0  289.67   15.50
  -5   1  -1   42.50    3.60
  -5   1  -1   38.90    3.90
   5  -1   1   41.40    3.90
   5  -1   1   40.10    3.70
  -5   1  -2  431.16   22.40
  -5   1  -2  430.06   22.60
   5  -1   2  441.06   22.60
   5  -1   2  433.26   22.50
  -5   1  -3   80.89    6.60
  -5   1  -3   75.89    5.70
   5  -1   3   81.59    5.90
   5  -1   3   74.19    6.10
  -5   1  -4  291.07   16.60
   5  -1   4  316.07   17.10
   5  -1   5  328.67   18.30
  -5   1  -6   64.49    9.20
   5  -1   6   59.59    6.60
   6  -2  -8   22.40    5.50
   6  -2  -8  -12.80    4.20
   6  -2  -7   29.10    5.50
   6  -2  -7   15.60    6.60
   6  -2  -7   18.70    3.90
   6  -2  -6  236.08   13.90
  -6   2   5  108.59    8.10
   6  -2  -5  117.59    7.90
  -6   2   4   22.90    3.70
   6  -2  -4   23.20    3.60
  -6   2   3  183.48   10.60
   6  -2  -3  186.58   10.60
  -6   2   2   96.19    6.50
   6  -2  -2  102.59    6.50
  -6   2   1   47.00    4.10
  -6   2   1   38.70    3.10
  -6   2   1   38.80    3.10
   6  -2  -1   48.10    4.10
  -6   2   0  318.87   17.50
  -6   2   0  350.06   17.50
  -6   2   0  348.57   17.90
   6  -2   0  344.37   17.90
  -6   2  -1  428.16   22.40
  -6   2  -1  439.06   22.20
   6  -2   1  423.86   22.40
  -6   2  -2   85.59    6.10
  -6   2  -2   81.39    6.20
   6  -2   2   83.19    6.10
   6  -2   2   77.39    6.00
  -6   2  -3   31.80    4.20
   6  -2   3   37.00    5.00
  -6   2  -4   46.10    5.70
   6  -2   4   52.19    5.40
  -6   2  -5  182.18   12.00
   6  -2   5  161.58   11.10
  -6   2  -6   49.90    6.90
   6  -2   6   42.80    6.10
   7  -3  -8    7.00    5.10
   7  -3  -8    3.90    3.80
   7  -3  -7  130.19    9.80
   7  -3  -6   19.70    4.80
  -7   3   5   27.30    4.90
   7  -3  -5   39.60    5.10
   7  -3  -4   25.70    4.20
  -7   3   3   67.99    5.50
   7  -3  -3   70.89    5.60
  -7   3   2  134.79    8.00
   7  -3  -2  122.09    8.00
  -7   3   1  109.19    6.20
  -7   3   1  107.69    6.20
  -7   3   1  106.79    7.00
   7  -3  -1  100.19    7.00
  -7   3   0   32.00    4.00
  -7   3   0   34.00    3.40
  -7   3   0   38.70    3.60
   7  -3   0   42.90    4.20
  -7   3  -1   64.69    5.00
  -7   3  -1   58.49    4.80
  -7   3  -1   60.19    5.50
   7  -3   1   59.39    5.20
  -7   3  -2    4.20    2.50
  -7   3  -2    1.60    2.30
  -7   3  -2    3.40    2.30
  -7   3  -3   55.99    5.80
   7  -3   3   55.49    5.70
  -7   3  -4    1.10    2.90
   7  -3   4   -0.60    2.90
   7  -3   5   73.49    7.10
  -7   3  -6   49.10    7.20
   8  -4  -8   28.60    6.20
   8  -4  -7   73.19    8.00
   8  -4  -6  119.09    9.20
  -8   4   5   54.79    8.30
   8  -4  -5   78.09    6.90
  -8   4   4  124.79    8.50
   8  -4  -4  123.09    8.40
  -8   4   3   78.29    6.30
   8  -4  -3   80.29    6.30
  -8   4   2   92.79    7.10
   8  -4  -2   82.59    6.40
  -8   4   1   51.39    3.90
  -8   4   1   44.40    3.80
  -8   4   1   47.40    4.70
   8  -4  -1   53.59    4.90
  -8   4   0   41.40    4.80
  -8   4   0   33.10    3.60
  -8   4   0   35.10    3.80
   8  -4   0   36.60    4.50
  -8   4  -1   45.00    4.50
  -8   4  -1   38.30    4.20
  -8   4  -1   41.20    5.30
   8  -4   1   47.10    5.00
  -8   4  -2  121.59    8.50
   8  -4   2  119.79    8.60
  -8   4  -3   85.29    7.50
   8  -4   3   89.19    7.40
  -8   4  -4  144.79   10.40
   8  -4   4  132.99   10.00
  -8   4  -5   79.39    8.10
   8  -4   5   58.39    7.10
   9  -5  -8   53.69    7.70
   9  -5  -7   10.10    5.30
   9  -5  -6   38.00    5.60
   9  -5  -5   10.10    4.20
   9  -5  -4  147.09    9.80
  -9   5   3   55.09    5.90
   9  -5  -3   62.29    6.10
  -9   5   2    7.80    3.20
   9  -5  -2    8.50    3.40
  -9   5   1   59.19    4.60
   9  -5  -1   59.89    5.70
  -9   5   0  583.84   30.20
   9  -5   0  597.04   30.80
  -9   5  -1  103.09    7.60
   9  -5   1  111.19    8.10
  -9   5  -2  264.97   15.40
   9  -5   2  258.47   15.50
  -9   5  -3    7.00    3.30
   9  -5   3    5.40    3.60
  -9   5  -4  154.98   15.70
   9  -5   4  147.39   10.90
  10  -6  -8   29.20    7.20
  10  -6  -7   32.40    6.50
  10  -6  -6   94.39    8.70
  10  -6  -5   32.10    5.30
  10  -6  -4   40.80    5.50
  10  -6  -3  234.68   13.90
 -10   6   2   -0.60    1.80
 -10   6   2    1.20    1.70
  10  -6  -2    0.40    2.90
 -10   6   1   51.39    4.50
 -10   6   1   43.90    4.40
  10  -6  -1   45.30    5.70
 -10   6   0   53.39    7.90
 -10   6   0   46.90    4.80
  10  -6   0   60.39    6.30
 -10   6  -1   95.29    7.40
  10  -6   1   99.59    8.10
 -10   6  -2    6.90    3.50
  10  -6   2    3.40    3.50
 -10   6  -3  146.99   10.80
  10  -6   3  144.29   11.00
 -10   6  -4  105.49    9.30
  10  -6   4   87.59    8.80
  11  -7  -8   13.10    6.90
  11  -7  -7   23.00    6.60
  11  -7  -6   14.10    5.30
  11  -7  -5   37.50    6.10
  11  -7  -4   11.30    4.10
  11  -7  -3   79.69    7.50
 -11   7   2   67.69    5.40
 -11   7   2   82.09    5.50
  11  -7  -2   72.99    7.20
 -11   7   1   17.20    3.10
 -11   7   1   25.20    3.60
  11  -7  -1   34.60    5.50
 -11   7   0   76.29    6.60
  11  -7   0   81.49    7.80
 -11   7  -1  103.19    8.10
  11  -7   1  105.19    8.90
 -11   7  -2   -2.00    3.20
  11  -7   2    2.70    3.60
 -11   7  -3   56.19    7.50
  11  -7   3   50.89    7.40
  12  -8  -7    8.40    6.30
  12  -8  -6    6.80    5.50
  12  -8  -5   69.59    8.20
  12  -8  -4    7.00    4.80
  12  -8  -3   25.80    5.10
 -12   8   2  273.37   15.00
  12  -8  -2  277.67   16.50
 -12   8   1   81.09    6.60
  12  -8  -1   79.59    8.00
 -12   8   0    6.10    3.40
  12  -8   0   11.90    4.40
 -12   8  -1  118.39    9.20
  12  -8   1  123.09   10.20
 -12   8  -2    1.20    4.10
  12  -8   2    0.90    4.20
  13  -9  -6   -3.50    5.80
  13  -9  -5   11.50    5.50
  13  -9  -4   13.60    5.50
  13  -9  -3    5.60    4.70
 -13   9   2   65.19    6.10
 -13   9   2   83.49    6.80
  13  -9  -2  104.59    8.80
 -13   9   1   19.30    4.30
  13  -9  -1   23.90    5.70
 -13   9   0   75.79    7.20
  13  -9   0   74.59    8.40
 -13   9  -1  105.49    9.10
  13  -9   1  100.99    9.70
  14 -10  -6    8.30    6.80
  14 -10  -5   -3.80    5.50
  14 -10  -4  136.39   13.10
  14 -10  -3   -1.90    4.80
 -14  10   2   18.40    4.00
  14 -10  -2   16.50    5.50
 -14  10   1    3.90    3.60
  14 -10  -1    7.30    4.50
 -14  10   0   34.70    5.50
  14 -10   0   33.30    6.70
  15 -11  -4   21.00    6.60
  15 -11  -3   11.80    5.80
 -15  11   2   -0.10    3.60
  15 -11  -2    3.40    5.00
  11 -17  -1   33.80    6.80
 -11  17   1   33.00    5.70
  11 -17  -2    3.50    5.90
 -11  17   2    7.20    4.30
  11 -17  -3    9.10    6.60
 -11  17   3    5.40    4.50
  11 -17  -4    7.20    6.30
 -11  17   4    2.10    4.60
  10 -16   1   21.40    5.90
 -10  16  -1   17.90    5.00
  10 -16   0    8.70    5.00
 -10  16   0    5.80    4.00
  10 -16  -1   75.39    8.50
 -10  16   1   63.89    7.10
  10 -16  -2   10.50    5.40
 -10  16   2   10.30    4.10
  10 -16  -3   -1.10    4.70
 -10  16   3   -1.70    3.80
  10 -16  -4   30.30    7.00
 -10  16   4   32.70    5.40
  10 -16  -5   34.00    7.00
 -10  16   5   19.60    5.20
   9 -15   2    8.20    4.90
  -9  15  -2    3.50    4.20
  -9  15  -1   85.19    7.90
   9 -15   0  140.19   10.60
  -9  15   0  121.59    9.30
   9 -15  -1   61.29    7.90
  -9  15   1   59.19    6.40
   9 -15  -2   33.90    6.10
  -9  15   2   21.50    4.50
   9 -15  -3   18.60    5.30
  -9  15   3   18.20    4.30
   9 -15  -4   24.60    6.10
  -9  15   4   20.90    4.80
   9 -15  -5   10.50    5.30
  -9  15   5    4.30    4.20
   9 -15  -6    0.00    5.60
  -9  15   6    3.40    4.60
   8 -14   3   60.59    8.40
  -8  14  -3   60.59    7.40
   8 -14   2  115.59    9.60
  -8  14  -2  105.09    8.80
   8 -14   1   31.20    6.00
  -8  14  -1   32.10    5.10
   8 -14   0  819.22   41.20
  -8  14   0  753.82   40.30
   8 -14  -1   38.80    6.00
  -8  14   1   32.20    4.70
   8 -14  -2  312.37   17.00
  -8  14   2  264.57   16.00
   8 -14  -3   10.10    4.40
  -8  14   3    6.40    3.60
   8 -14  -4   -1.60    4.10
  -8  14   4    4.20    3.50
   8 -14  -5   30.20    5.70
  -8  14   5   17.80    4.50
   8 -14  -6    0.70    5.20
  -8  14   6   -0.40    4.30
   7 -13   4    2.50    4.20
  -7  13  -4   -0.40    3.80
   7 -13   3   53.09    7.50
  -7  13  -3   50.89    6.40
   7 -13   2   93.99    8.20
  -7  13  -2   76.29    7.50
   7 -13   1  114.29    8.80
  -7  13  -1   99.69    8.00
   7 -13   0    3.60    3.40
  -7  13   0    5.70    3.00
   7 -13  -1  497.35   26.50
  -7  13   1  492.75   25.90
   7 -13  -2    1.60    2.80
   7 -13  -2    9.40    3.80
   7 -13  -3   59.99    5.70
  -7  13   3   64.69    6.90
  -7  13   3   63.79    5.70
   7 -13  -4   12.20    4.60
   7 -13  -4    5.50    3.10
  -7  13   4   11.10    4.20
  -7  13   4    9.40    4.50
   7 -13  -5   30.30    5.40
   7 -13  -5    9.50    4.70
  -7  13   5   13.60    4.90
  -7  13   5   21.20    4.60
   7 -13  -6   58.29   10.20
  -7  13   6   19.80    5.30
  -7  13   6   26.10    5.10
   7 -13  -7    2.70    4.30
  -7  13   7    3.30    4.80
   6 -12   5   37.30    6.90
  -6  12  -5   41.60    6.50
   6 -12   3  118.19    9.30
  -6  12  -3  107.29    8.60
   6 -12   2   29.00    5.10
  -6  12  -2   25.30    4.50
   6 -12   1    5.60    3.40
  -6  12  -1    6.30    3.00
   6 -12   0   22.50    4.20
  -6  12   0   30.40    4.00
   6 -12  -1   18.50    3.40
  -6  12   1   22.10    4.20
  -6  12   1   20.10    3.30
   6 -12  -2   34.30    4.40
   6 -12  -2   40.60    5.20
  -6  12   2   37.90    5.00
  -6  12   2   43.90    4.50
   6 -12  -3   37.20    4.90
   6 -12  -3   50.79    5.30
  -6  12   3   41.60    4.60
  -6  12   3   48.20    6.30
   6 -12  -4    6.40    3.10
   6 -12  -4    2.70    2.60
  -6  12   4    3.20    3.50
  -6  12   4    3.90    3.00
   6 -12  -5   14.60    4.00
   6 -12  -5    8.30    3.50
  -6  12   5    5.50    3.90
  -6  12   5   22.80    6.60
   6 -12  -6   13.50    4.40
  -6  12   6    6.60    4.00
   6 -12  -7   26.20    5.30
  -6  12   7   11.90    5.10
   5 -11   5   54.29    7.70
  -5  11  -5   51.69    6.90
   5 -11   4   12.90    4.60
  -5  11  -4   12.30    4.10
   5 -11   3   98.39    8.00
  -5  11  -3   89.49    7.50
   5 -11   2    3.90    3.00
  -5  11  -2    8.80    3.00
   5 -11   1   43.00    5.30
  -5  11  -1   43.60    4.70
   5 -11   0  241.58   14.00
   5 -11   0  254.07   14.30
  -5  11   0  260.57   14.00
  -5  11   0  251.07   14.30
   5 -11  -1  263.77   15.00
   5 -11  -1  274.87   15.20
  -5  11   1  288.07   15.40
  -5  11   1  276.07   14.90
   5 -11  -2  227.48   13.10
   5 -11  -2  246.68   13.40
  -5  11   2  252.17   13.20
  -5  11   2  234.88   13.40
   5 -11  -3   86.49    6.20
   5 -11  -3   96.59    6.50
  -5  11   3   87.99    6.30
  -5  11   3   91.79    6.60
   5 -11  -4   26.80    5.30
   5 -11  -4   32.70    4.20
  -5  11   4   24.30    3.90
  -5  11   4   22.70    3.60
   5 -11  -5   68.99    6.20
  -5  11   5   75.89    6.20
  -5  11   5   98.59    7.80
   5 -11  -6   21.30    4.00
   5 -11  -6    3.70    3.10
  -5  11   6   12.50    4.00
  -5  11   7    8.80    4.70
   4 -10   6   45.30    7.40
  -4  10  -6   41.70    6.40
   4 -10   5    5.50    4.10
  -4  10  -5    5.70    3.80
   4 -10   4  191.18   12.40
  -4  10  -4  181.08   11.90
   4 -10   3    3.40    3.10
  -4  10  -3    3.80    2.80
   4 -10   2  197.18   12.10
  -4  10  -2  202.48   11.70
   4 -10   1  331.67   18.40
   4 -10   1  351.06   18.70
  -4  10  -1  345.27   18.70
  -4  10  -1  348.37   18.30
   4 -10   0   14.50    2.90
   4 -10   0   12.50    3.00
  -4  10   0   12.90    3.00
  -4  10   0   17.00    2.90
   4 -10  -1  696.33   35.80
   4 -10  -1  703.53   35.60
  -4  10   1  730.73   35.80
  -4  10   1  706.03   35.70
   4 -10  -2  231.28   13.30
   4 -10  -2  249.38   13.40
  -4  10   2  261.37   13.50
  -4  10   2  248.88   13.40
   4 -10  -3   56.49    4.50
   4 -10  -3   52.79    4.50
  -4  10   3   53.59    4.60
  -4  10   3   54.79    4.60
   4 -10  -4   13.30    3.60
   4 -10  -4   21.20    3.20
  -4  10   4   18.50    3.10
  -4  10   4   16.40    3.20
   4 -10  -5   15.10    3.40
  -4  10   5   14.70    3.80
  -4  10   6   56.79    6.50
  -4  10   7    1.30    4.40
   3  -9   6   15.40    6.20
  -3   9  -6   10.50    5.40
   3  -9   5    1.50    4.00
  -3   9  -5    4.80    3.50
   3  -9   4  245.88   14.80
  -3   9  -4  243.98   14.30
   3  -9   3  258.17   14.70
  -3   9  -3  246.58   14.30
   3  -9   2  208.58   11.90
   3  -9   2  196.38   11.60
  -3   9  -2  193.38   11.40
  -3   9  -2  196.58   11.70
   3  -9   1   65.49    5.20
   3  -9   1   63.49    5.40
  -3   9  -1   69.39    5.50
  -3   9  -1   72.59    5.20
   3  -9   0 1257.67   63.69
   3  -9   0 1257.87   63.59
  -3   9   0 1298.87   63.69
  -3   9   0 1332.77   63.59
   3  -9  -1   77.09    5.20
   3  -9  -1   72.69    5.30
  -3   9   1   80.39    5.30
  -3   9   1   77.19    5.30
   3  -9  -2  522.65   26.50
   3  -9  -2  518.85   26.40
  -3   9   2  532.65   26.40
  -3   9   2  524.75   26.60
   3  -9  -3    4.20    2.00
   3  -9  -3    6.50    1.80
  -3   9   3    3.80    2.20
  -3   9   3    5.00    2.00
   3  -9  -4   45.00    4.70
  -3   9   4   63.89    5.10
   3  -9  -5   54.89    5.30
  -3   9   6   57.59    6.30
  -3   9   7   22.10    5.20
  -3   9   8   -0.80    5.00
   2  -8   7   34.50    7.10
  -2   8  -7   34.00    5.90
   2  -8   6  123.19   10.00
  -2   8  -6  115.49    9.30
   2  -8   5    6.50    4.00
  -2   8  -5   15.00    3.80
   2  -8   4   93.59    7.60
  -2   8  -4   93.79    7.10
   2  -8   3  328.47   17.80
  -2   8  -3  323.67   17.90
   2  -8   2  284.37   15.90
   2  -8   2  292.17   16.00
  -2   8  -2  302.17   16.10
  -2   8  -2  297.97   15.80
   2  -8   1  246.58   13.10
   2  -8   1  228.48   12.90
  -2   8  -1  242.58   13.20
  -2   8  -1  238.38   12.90
   2  -8   0    5.40    2.30
   2  -8   0    6.20    2.10
  -2   8   0    7.90    2.20
  -2   8   0    8.60    2.20
   2  -8  -1   66.19    4.60
   2  -8  -1   67.19    4.60
  -2   8   1   69.29    4.70
  -2   8   1   65.79    4.40
   2  -8  -2  159.98    8.90
   2  -8  -2  171.88    9.30
  -2   8   2  172.68    8.90
  -2   8   2  166.28    9.30
   2  -8  -3  191.18   10.60
  -2   8   3  193.68   10.70
   2  -8  -4    0.00    2.00
  -2   8   4    3.60    2.50
   2  -8  -5   38.30    4.80
  -2   8   5   60.09    6.10
  -2   8   6    5.80    3.40
  -2   8   7   33.20    5.70
  -2   8   8    6.10    5.40
   1  -7   7   31.00    7.00
   1  -7   6   14.80    5.00
  -1   7  -6   14.40    4.00
   1  -7   5  320.57   18.40
  -1   7  -5  317.87   17.80
   1  -7   4   51.59    5.70
  -1   7  -4   50.29    5.10
   1  -7   3  254.57   13.80
  -1   7  -3  242.68   13.30
  -1   7  -3  222.08   14.00
   1  -7   2  133.19    8.70
   1  -7   2  151.48    8.60
  -1   7  -2  147.09    8.50
  -1   7  -2  143.79    8.70
   1  -7   1   27.50    3.50
   1  -7   1   28.10    3.30
  -1   7  -1   28.90    3.40
  -1   7  -1   30.90    3.30
   1  -7   0    5.30    1.90
   1  -7   0    6.70    1.90
  -1   7   0    6.10    1.90
  -1   7   0    8.10    2.00
   1  -7  -1    4.40    1.80
   1  -7  -1    4.10    1.40
  -1   7   1    3.30    1.70
  -1   7   1    3.80    1.40
   1  -7  -2  203.48   10.90
  -1   7   2  200.08   10.90
   1  -7  -3  156.98    8.90
  -1   7   3  154.08    9.00
  -1   7   4  139.09    8.60
  -1   7   5   66.89    6.00
  -1   7   6    9.60    4.10
  -1   7   7   25.70    5.20
   0  -6   7   14.60    5.30
   0   6  -7   19.10    4.60
   0  -6   6  104.89    9.20
   0   6  -6  116.59    8.50
   0  -6   5  115.69    8.80
   0   6  -5  109.69    7.90
   0  -6   4  153.78   10.30
   0   6  -4  170.78    9.80
   0   6  -4  156.08    9.70
   0   6  -4  160.78   10.10
   0  -6   3  172.78   10.70
   0  -6   3  192.28   11.20
   0   6  -3  203.88   11.20
   0   6  -3  199.18   10.80
   0  -6   2  281.27   14.70
   0  -6   2  273.17   14.90
   0   6  -2  280.97   14.60
   0   6  -2  279.17   14.90
   0  -6   1   98.89    6.20
   0  -6   1   97.69    5.90
   0   6  -1   99.19    6.00
   0   6  -1   99.09    6.10
   0  -6   0   43.30    3.30
   0  -6   0   41.30    3.40
   0   6   0   40.90    3.40
   0   6   0   39.60    3.30
   0  -6  -1  105.59    6.20
   0   6   1  107.29    6.20
   0  -6  -2  279.77   14.50
   0   6   2  275.97   14.50
   0  -6  -3  178.28   10.20
   0   6   3  187.58   10.40
   0  -6  -4  170.48   10.10
   0   6   4  167.48   10.10
   0   6   5  102.09    7.40
   0  -6  -6  109.89    7.20
   0  -6  -6   87.89    6.50
   0   6   6  117.79    8.40
   0  -6  -7   12.90    4.40
   0  -6  -7    6.40    3.30
   0   6   7    6.00    4.20
   1   5  -8   13.70    9.00
  -1  -5   7    2.00    4.80
   1   5  -7    5.50    4.00
  -1  -5   6  139.89   10.30
   1   5  -6  142.69    9.60
  -1  -5   5    0.50    3.20
   1   5  -5    5.00    2.90
   1   5  -5   -1.00    2.60
  -1  -5   4  109.29    7.70
   1   5  -4  107.89    7.00
   1   5  -4  101.19    7.10
   1   5  -4  114.39    8.20
  -1  -5   3  260.67   13.80
  -1  -5   3  215.38   13.20
   1   5  -3  254.87   13.30
   1   5  -3  264.67   13.80
  -1  -5   2   77.09    5.00
  -1  -5   2   70.49    5.40
   1   5  -2   77.19    5.40
   1   5  -2   73.39    4.80
  -1  -5   1  982.10   47.20
  -1  -5   1  919.41   47.30
   1   5  -1  973.10   47.20
  -1  -5   0   57.69    4.00
  -1  -5   0   71.19    4.40
   1   5   0   53.89    3.80
   1   5   0   63.19    4.00
  -1  -5  -1  337.67   17.10
   1   5   1  335.67   17.20
  -1  -5  -2  233.98   12.40
   1   5   2  230.78   12.40
  -1  -5  -3   72.39    5.30
   1   5   3   72.59    5.20
  -1  -5  -4  983.60   49.40
   1   5   4  984.00   49.40
  -1  -5  -5   -1.10    2.40
  -1  -5  -5    2.70    1.90
   1   5   5    2.70    3.10
  -1  -5  -6   48.50    5.20
  -1  -5  -6   36.90    4.20
   1   5   6   49.60    6.20
  -1  -5  -7   21.50    3.80
   1   5   7   33.70    5.50
   2   4  -8   43.90    8.20
   2   4  -8   60.49    7.50
   2   4  -7    2.70    5.20
   2   4  -7    5.90    3.60
   2   4  -6   52.79    5.50
  -2  -4   5   14.20    4.10
   2   4  -5    4.40    2.50
   2   4  -5    7.80    3.20
   2   4  -5    9.90    2.70
  -2  -4   4  327.77   17.40
   2   4  -4  318.77   16.70
   2   4  -4  321.67   16.80
   2   4  -4  300.47   17.20
  -2  -4   3   14.00    3.00
   2   4  -3   14.40    3.10
   2   4  -3   13.20    2.20
  -2  -4   2  166.38    8.80
  -2  -4   2  148.19    9.00
   2   4  -2  151.58    8.30
   2   4  -2  154.08    9.00
  -2  -4   1 1612.74   78.39
   2   4  -1 1479.65   78.59
   2   4  -1 1716.53   78.69
   2   4  -1 1614.04   78.39
  -2  -4   0 4719.23  209.08
  -2  -4   0 4177.08  208.78
   2   4   0 3986.80  208.78
  -2  -4  -1  136.99    7.60
   2   4   1  134.49    7.70
  -2  -4  -2  376.36   19.40
   2   4   2  379.56   19.50
  -2  -4  -3  143.49    8.50
   2   4   3  142.39    8.50
   2   4   3  137.29    7.60
  -2  -4  -4  375.86   19.50
  -2  -4  -4  390.16   20.50
   2   4   4  394.46   20.90
   2   4   4  371.76   19.50
  -2  -4  -5  169.38   10.00
   2   4   5  195.68   11.40
   2   4   5  174.78   10.20
  -2  -4  -6   -1.20    2.50
   2   4   6    1.70    3.70
  -2  -4  -7   41.70    6.20
   3   3  -8   32.30    5.30
   3   3  -8   25.30    6.30
   3   3  -7   15.00    5.40
   3   3  -7   10.90    3.60
   3   3  -6   19.70    5.00
   3   3  -6   11.90    3.30
   3   3  -5   55.29    7.10
   3   3  -5   57.79    5.80
   3   3  -5   50.79    4.90
   3   3  -5   71.19    5.10
   3   3  -4  157.28   10.30
   3   3  -4  180.18    9.70
   3   3  -4  177.68    9.80
   3   3  -4  180.68   10.60
   3   3  -3  342.07   17.00
   3   3  -3  337.07   17.80
   3   3  -3  323.57   17.70
  -3  -3   2   23.40    2.50
   3   3  -2   29.20    2.50
   3   3  -2   28.50    3.60
   3   3  -2   29.90    3.80
  -3  -3   1  146.79    8.80
  -3  -3   1  181.48    8.30
   3   3  -1  163.08    8.70
   3   3  -1  139.99    8.30
  -3  -3   0   25.40   15.00
  -3  -3   0   29.10   12.00
   3   3   0   33.00   14.80
   3   3   0   26.90   11.70
  -3  -3  -1  218.98   11.70
  -3  -3  -1  220.88   11.30
   3   3   1  222.38   11.70
  -3  -3  -2   15.80    1.90
  -3  -3  -2   17.80    2.60
   3   3   2   13.70    2.50
   3   3   2   12.80    2.00
  -3  -3  -3   44.80    3.60
   3   3   3   54.29    4.60
   3   3   3   50.29    3.80
  -3  -3  -4    1.50    1.70
   3   3   4    3.40    2.00
   3   3   4    5.40    2.90
  -3  -3  -5  344.87   18.70
   3   3   5  339.57   18.70
   3   3   5  387.96   19.90
  -3  -3  -6    6.80    2.70
   3   3   6   15.40    4.00
   3   3   6   15.50    3.50
   3   3   7   15.50    4.50
   4   2  -8    1.50    5.30
   4   2  -8    3.50    4.00
   4   2  -7   79.59    7.80
   4   2  -7   70.29    6.60
   4   2  -6   15.00    3.20
   4   2  -6   17.70    4.30
   4   2  -5   67.19    6.20
   4   2  -5   56.99    5.90
   4   2  -5   71.39    5.10
   4   2  -5   77.09    5.20
   4   2  -4  839.62   41.80
   4   2  -4  802.42   41.00
   4   2  -4  858.81   41.10
   4   2  -4  815.22   41.80
   4   2  -3  483.65   25.40
   4   2  -3  511.95   25.50
  -4  -2   2   71.49    5.20
   4   2  -2   75.79    5.30
  -4  -2   1   31.20    2.30
  -4  -2   1   30.20    3.30
   4   2  -1   29.70    3.40
   4   2  -1   32.00    2.40
  -4  -2   0   22.80    3.80
   4   2   0   26.40    2.60
   4   2   0   28.20    2.90
  -4  -2  -1  293.37   14.80
  -4  -2  -1  285.67   14.80
   4   2   1  274.77   14.80
   4   2   1  274.97   14.50
  -4  -2  -2  279.87   14.40
  -4  -2  -2  261.97   13.80
   4   2   2  257.67   14.30
   4   2   2  263.27   13.90
  -4  -2  -3   86.29    6.20
  -4  -2  -3   81.99    5.40
   4   2   3   85.09    5.60
   4   2   3   77.99    6.10
  -4  -2  -4    3.60    1.90
   4   2   4    7.50    2.40
   4   2   4   10.60    3.30
  -4  -2  -5  195.18   11.90
   4   2   5  222.88   13.10
   4   2   5  212.08   12.10
   4   2   6   16.80    4.30
   4   2   6   22.00    4.10
   4   2   7   10.50    4.30
   4   2   7   12.40    4.20
   5   1  -8   40.20    6.50
   5   1  -8   24.70    5.00
   5   1  -7    9.60    4.60
   5   1  -7   -1.00    3.10
   5   1  -6   22.20    3.50
   5   1  -6   29.10    3.80
   5   1  -6   39.30    5.40
   5   1  -5  105.99    6.70
   5   1  -5  122.19    7.80
   5   1  -5   96.79    7.60
   5   1  -4   11.70    3.50
   5   1  -4   15.30    3.40
  -5  -1   3  227.98   12.80
   5   1  -3  232.68   12.80
  -5  -1   2   72.79    5.40
   5   1  -2   82.69    5.60
  -5  -1   1    9.00    1.40
  -5  -1   1    6.30    2.20
   5   1  -1    7.10    2.30
   5   1  -1    8.40    2.30
  -5  -1   0  287.57   14.80
  -5  -1   0  285.87   14.60
   5   1   0  279.57   14.80
   5   1   0  283.27   14.60
  -5  -1  -1   39.00    3.60
  -5  -1  -1   36.40    3.60
   5   1   1   37.20    3.40
   5   1   1   39.00    3.60
  -5  -1  -2  424.46   22.00
  -5  -1  -2  443.86   22.40
   5   1   2  414.36   22.30
   5   1   2  436.96   22.10
  -5  -1  -3   68.99    6.50
  -5  -1  -3   75.89    5.40
   5   1   3   69.59    6.10
   5   1   3   84.19    5.60
  -5  -1  -4  282.47   16.10
   5   1   4  287.67   16.00
   5   1   4  309.17   16.60
   5   1   5  362.46   19.90
   5   1   5  340.07   19.00
   5   1   6   63.09    6.30
   5   1   6   56.69    8.60
   6   0  -8    8.10    5.10
   6   0  -8   47.10    6.60
   6   0  -7   -2.30    3.80
   6   0  -7    8.40    4.50
   6   0  -7   -8.60    2.90
   6   0  -6  357.86   17.50
   6   0  -6  277.67   15.90
   6   0  -6  285.17   16.10
   6   0  -5   12.90    3.70
   6   0  -5    2.40    2.90
  -6   0   4   83.29    6.60
   6   0  -4   86.69    6.50
  -6   0   3    0.20    2.30
   6   0  -3   -0.60    2.30
  -6   0   2   15.30    2.80
   6   0  -2   19.30    3.30
  -6   0   1    2.90    2.00
  -6   0   1    1.90    1.20
   6   0  -1    1.90    1.30
   6   0  -1    3.20    2.20
  -6   0   0   14.60    2.10
  -6   0   0   18.30    2.80
   6   0   0   15.80    2.40
   6   0   0   16.70    2.90
  -6   0  -1   18.00    3.00
  -6   0  -1   18.40    2.80
   6   0   1   19.10    3.00
   6   0   1   19.60    3.10
  -6   0  -2  763.12   37.40
  -6   0  -2  726.63   37.10
   6   0   2  727.23   37.20
   6   0   2  723.73   37.10
   6   0   3   16.00    3.20
   6   0   3   22.40    3.90
  -6   0  -4  150.58   10.70
   6   0   4  176.78   10.50
   6   0   4  179.38   11.10
   6   0   5    3.90    2.90
   6   0   5   -3.00    2.70
  -6   0  -6    4.30    3.70
   6   0   6    9.30    3.60
   7  -1  -8   19.00    5.70
   7  -1  -8   -0.80    4.40
   7  -1  -8    0.10    3.90
   7  -1  -7   64.49    7.40
   7  -1  -6   37.20    5.60
  -7   1   5   18.50    4.10
  -7   1   4   28.20    5.70
   7  -1  -4   31.90    4.70
  -7   1   3  314.17   16.60
   7  -1  -3  301.17   16.60
  -7   1   2  231.68   12.80
   7  -1  -2  229.38   12.70
  -7   1   1   74.39    5.50
  -7   1   1   71.99    4.70
   7  -1  -1   80.69    5.60
  -7   1   0  818.62   41.90
  -7   1   0  842.12   41.60
   7  -1   0  850.51   41.60
   7  -1   0  826.62   41.90
  -7   1  -1 1025.30   52.89
  -7   1  -1 1084.19   52.99
   7  -1   1 1062.09   52.99
   7  -1   1 1071.19   52.89
  -7   1  -2  425.96   22.30
  -7   1  -2  415.76   22.10
   7  -1   2  421.26   22.20
   7  -1   2  412.56   22.30
  -7   1  -3  169.48   11.20
   7  -1   3  179.38   11.00
   7  -1   3  179.98   10.90
   7  -1   4   12.30    3.50
   7  -1   4   11.70    3.70
  -7   1  -5   95.59    9.60
   7  -1   5   79.49    7.20
  -7   1  -6   35.40    6.40
   7  -1   6   30.60    5.40
   8  -2  -8   98.19    9.20
   8  -2  -7   85.89    8.40
   8  -2  -6  117.49    9.20
   8  -2  -5    4.40    3.70
  -8   2   4   16.80    3.70
   8  -2  -4   18.00    3.80
  -8   2   3  503.95   26.40
   8  -2  -3  488.65   25.70
  -8   2   2  299.77   16.00
   8  -2  -2  264.17   15.30
  -8   2   1  110.79    6.90
  -8   2   1  147.39    8.60
  -8   2   1  106.59    6.80
   8  -2  -1  124.49    7.90
  -8   2   0   14.60    3.30
  -8   2   0   10.90    2.20
  -8   2   0    9.30    2.30
   8  -2   0   16.40    3.20
  -8   2  -1  323.47   18.30
  -8   2  -1  349.27   18.30
   8  -2   1  349.07   18.50
   8  -2   2   20.70    4.10
  -8   2  -3   24.80    4.50
   8  -2   3   28.10    4.80
  -8   2  -4  101.89    8.50
   8  -2   4   87.39    7.60
  -8   2  -5   40.20    6.40
   8  -2   5   42.80    6.10
   9  -3  -8   32.30    6.80
   9  -3  -7   38.50    6.70
   9  -3  -6    5.30    4.60
   9  -3  -5   73.79    7.20
   9  -3  -4   46.30    5.50
  -9   3   3  247.78   14.20
  -9   3   2   10.80    3.10
   9  -3  -2   16.80    3.80
  -9   3   1   22.50    2.90
  -9   3   1   30.10    4.20
  -9   3   1   27.70    3.00
  -9   3   0   10.90    3.60
  -9   3   0   12.10    2.70
  -9   3   0   11.00    2.40
   9  -3   0   12.10    3.40
  -9   3  -1  393.26   20.00
  -9   3  -1  347.17   19.40
   9  -3   1  345.17   19.70
  -9   3  -2   11.70    3.30
   9  -3   2    9.00    3.60
  -9   3  -3   57.29    6.50
   9  -3   3   54.19    6.30
  -9   3  -4    3.70    4.20
   9  -3   4    3.30    3.30
  -9   3  -5   84.39    8.70
   9  -3   5   56.99    7.20
  10  -4  -8   17.30    6.60
  10  -4  -7   28.50    6.40
  10  -4  -6   32.10    6.00
  10  -4  -5   63.49    6.90
  10  -4  -4   16.20    4.20
  10  -4  -3   12.80    3.50
  10  -4  -2   79.79    6.90
 -10   4   1   73.09    5.20
 -10   4   1   76.59    5.50
  10  -4  -1   76.79    6.60
 -10   4   0  104.79    6.90
 -10   4   0   86.49    6.60
  10  -4   0  101.89    7.70
 -10   4  -1  166.88   10.60
  10  -4   1  164.68   11.00
 -10   4  -2  619.54   32.50
  10  -4   2  608.54   32.60
 -10   4  -3  131.99    9.90
  10  -4   3  123.39    9.60
 -10   4  -4    7.50    4.50
  10  -4   4    3.50    3.60
  11  -5  -8   13.70    6.60
  11  -5  -7   42.90    7.20
  11  -5  -6    8.50    5.10
  11  -5  -5    4.30    4.20
  11  -5  -4   15.70    4.30
  11  -5  -3    3.90    3.60
  11  -5  -2  655.43   34.20
 -11   5   1   74.39    5.90
 -11   5   1   91.39    6.20
  11  -5  -1   87.29    7.40
 -11   5   0  162.68   10.20
  11  -5   0  167.58   11.20
 -11   5  -1   79.29    6.90
  11  -5   1   74.39    7.40
 -11   5  -2  289.87   16.90
  11  -5   2  274.87   17.00
  11  -5   3    7.70    4.10
  12  -6  -7   29.50    6.70
  12  -6  -6    9.80    5.70
  12  -6  -5    2.70    4.30
  12  -6  -4    1.20    4.00
  12  -6  -3   59.99    7.00
 -12   6   2    4.40    2.60
 -12   6   2    4.80    2.10
  12  -6  -2    7.30    4.10
 -12   6   1  140.79    8.90
  12  -6  -1  135.49   10.10
 -12   6   0  139.89    9.20
  12  -6   0  131.59   10.30
 -12   6  -1  204.28   12.60
  12  -6   1  187.78   13.10
 -12   6  -2   36.20    6.10
 -12   6  -3  104.49    9.50
  12  -6   3   87.99    9.10
  13  -7  -6   15.60    5.90
  13  -7  -5    6.90    5.20
  13  -7  -4  128.19   10.30
  13  -7  -3    8.70    4.40
 -13   7   2   20.50    3.30
  13  -7  -2   17.40    4.70
 -13   7   1  153.78    9.70
  13  -7  -1  142.89   11.10
 -13   7   0   54.69    6.10
  13  -7   0   45.40    6.60
 -13   7  -1   17.00    4.40
  13  -7   1   16.80    5.00
 -13   7  -2   66.19    7.80
  13  -7   2   65.79    8.20
  14  -8  -6   27.20    7.10
  14  -8  -4  116.89   11.00
  14  -8  -3   49.20    7.90
 -14   8   2   43.70    6.60
 -14   8   2   20.40    3.60
 -14   8   1  105.59    8.10
  14  -8  -1  103.79    9.80
 -14   8   0    2.00    3.90
  14  -8   0    2.80    4.40
 -14   8  -1   66.29    8.60
  14  -8   1   62.89    8.90
  15  -9  -5    2.10    5.40
  15  -9  -4    7.80    5.60
  15  -9  -3   20.00    5.80
 -15   9   2   27.00    4.40
  15  -9  -2   30.30    6.60
  15  -9  -1   39.60    6.90
  10 -18   0   13.10    5.90
 -10  18   0   12.20    4.70
  10 -18  -1   77.59    9.20
 -10  18   1   70.59    7.80
  10 -18  -2    4.40    5.60
 -10  18   2    4.40    4.50
  10 -18  -3   -2.70    5.20
 -10  18   3    0.60    4.30
  10 -18  -4    2.50    6.00
 -10  18   4   -2.10    4.50
   9 -17   1   11.50    5.20
  -9  17  -1    5.10    4.20
   9 -17   0   12.80    9.90
  -9  17   0    5.00    3.90
   9 -17  -1   59.19    7.90
  -9  17   1   53.69    6.50
   9 -17  -2    1.60    4.50
  -9  17   2    1.60    3.90
   9 -17  -3   32.90    6.80
  -9  17   3   26.80    5.20
   9 -17  -4    6.00    5.30
  -9  17   4    4.20    4.30
   9 -17  -5   11.40    6.00
  -9  17   5   12.70    5.20
   8 -16   3   26.00    6.30
  -8  16  -3   27.50    5.90
   8 -16   2   15.40    5.20
  -8  16  -2   14.20    4.60
   8 -16   1   21.60    5.70
  -8  16  -1   28.80    5.20
   8 -16   0    4.30    4.20
  -8  16   0    0.90    3.40
   8 -16  -1   41.80    6.60
  -8  16   1   36.70    5.30
   8 -16  -2   70.19    8.10
  -8  16   2   72.89    7.10
   8 -16  -3   15.10    5.40
  -8  16   3    9.10    4.10
   8 -16  -4   12.70    5.00
  -8  16   4   10.70    4.20
   8 -16  -5   12.60    5.40
  -8  16   5   11.00    4.70
   8 -16  -6    6.40    5.50
  -8  16   6   -4.40    4.50
   7 -15   3   46.80    7.40
  -7  15  -3   55.39    7.00
   7 -15   2   84.09    8.30
  -7  15  -2   69.99    7.30
   7 -15   1   65.59    7.60
  -7  15  -1   70.79    6.80
   7 -15   0  119.39    8.90
  -7  15   0   86.79    7.80
   7 -15  -1  447.36   23.30
  -7  15   1  389.66   22.50
   7 -15  -2   58.99    6.70
  -7  15   2   36.70    5.10
   7 -15  -3    8.00    4.30
  -7  15   3    6.30    3.60
   7 -15  -4    9.80    4.50
  -7  15   4    4.60    5.30
  -7  15   4    9.90    3.80
  -7  15   5   -0.70    4.70
  -7  15   5    2.10    4.10
   7 -15  -6   53.39    8.10
  -7  15   6   47.00    6.60
   6 -14   4  128.59   10.60
  -6  14  -4  114.99    9.80
   6 -14   3   23.30    5.40
  -6  14  -3   35.10    5.40
   6 -14   2  220.38   13.70
  -6  14  -2  198.58   13.00
   6 -14   1   16.20    4.30
  -6  14  -1   18.00    4.00
   6 -14   0  162.88   11.00
  -6  14   0  161.98   10.30
   6 -14  -1    4.70    3.20
  -6  14   1   -0.10    2.90
  -6  14   2   89.09    7.80
  -6  14   2   94.19    7.10
   6 -14  -3   66.69    6.30
  -6  14   3   47.70    6.40
  -6  14   3   56.89    5.70
   6 -14  -4   18.70    4.20
  -6  14   4   14.10    4.00
   6 -14  -5    1.60    3.50
  -6  14   5   -0.30    3.80
  -6  14   5    5.10    4.00
  -6  14   6   -0.20    4.40
  -6  14   7    0.60    5.00
   5 -13   5   24.00    5.80
  -5  13  -5   17.70    4.80
   5 -13   4  108.79    9.40
  -5  13  -4   97.89    8.70
   5 -13   3  229.28   14.40
  -5  13  -3  226.18   14.00
   5 -13   2    2.10    3.20
  -5  13  -2   -1.90    2.60
   5 -13   1   44.00    5.70
  -5  13  -1   47.10    5.20
   5 -13   0   17.60    4.10
  -5  13   0   23.60    3.80
   5 -13  -1  128.79    8.30
   5 -13  -1   99.09    7.60
  -5  13   1  127.59    8.70
  -5  13   1  111.19    8.20
   5 -13  -2   13.00    3.00
   5 -13  -2   21.20    3.80
  -5  13   2   19.00    4.00
  -5  13   2   13.30    3.70
   5 -13  -3   11.30    3.10
   5 -13  -3   10.00    3.10
  -5  13   3   14.20    3.90
  -5  13   3    9.30    5.20
   5 -13  -4   70.29    8.50
  -5  13   4   61.09    6.10
  -5  13   4   55.99    5.60
   5 -13  -5   38.90    4.90
  -5  13   5   27.70    4.90
  -5  13   6   29.70    5.60
  -5  13   7    5.60    5.00
   4 -12   5   15.10    8.80
  -4  12  -5   23.40    5.60
   4 -12   4    9.20    4.20
  -4  12  -4   14.90    4.00
   4 -12   3  129.39    9.50
  -4  12  -3  125.59    9.00
   4 -12   2   32.90    5.10
  -4  12  -2   33.50    4.50
   4 -12   1   33.40    4.80
  -4  12  -1   39.10    4.70
   4 -12   0   50.69    5.20
   4 -12   0   47.50    4.80
  -4  12   0   54.89    4.90
  -4  12   0   50.59    5.10
   4 -12  -1    7.90    2.70
   4 -12  -1    4.50    2.40
  -4  12   1    5.50    2.80
  -4  12   1    5.50    2.50
   4 -12  -2   18.20    3.10
   4 -12  -2   18.20    3.20
  -4  12   2   18.30    3.20
  -4  12   2   20.70    3.10
   4 -12  -3   24.70    3.50
   4 -12  -3   14.10    3.00
  -4  12   3   18.70    3.40
  -4  12   3   22.50    3.50
   4 -12  -4    2.20    2.70
   4 -12  -4    5.10    2.40
  -4  12   4   13.10    5.70
  -4  12   4    2.80    2.50
  -4  12   5  193.78   12.00
  -4  12   6    9.00    4.40
  -4  12   7   12.90    5.20
   3 -11   6   11.20    5.50
  -3  11  -6    9.90    4.70
   3 -11   5   41.40    6.80
  -3  11  -5   41.40    5.90
   3 -11   4   10.10    4.00
  -3  11  -4    5.30    3.10
   3 -11   3  143.59    9.80
  -3  11  -3  135.79    9.20
   3 -11   2    7.10    3.00
  -3  11  -2    9.70    2.90
   3 -11   1   67.09    5.50
   3 -11   1   69.89    5.80
  -3  11  -1   75.99    5.60
  -3  11  -1   71.49    5.80
   3 -11   0  108.19    7.30
  -3  11   0  108.19    7.20
  -3  11   0  113.69    7.10
   3 -11  -1  114.19    7.30
   3 -11  -1  111.99    7.20
  -3  11   1  121.29    7.40
  -3  11   1  115.59    7.20
   3 -11  -2   12.10    2.50
   3 -11  -2   10.20    2.30
  -3  11   2   10.20    2.50
  -3  11   2   12.30    2.60
   3 -11  -3  127.59   10.20
   3 -11  -3  152.38    8.30
  -3  11   3  142.09    8.80
  -3  11   3  148.59    8.30
   3 -11  -4    2.50    2.50
  -3  11   4    3.50    3.30
  -3  11   5    7.70    3.40
  -3  11   6  178.98   11.90
  -3  11   7    2.20    4.50
   2 -10   6   66.79    9.70
  -2  10  -6   62.29    7.90
   2 -10   5   25.20    5.40
  -2  10  -5   27.80    4.60
   2 -10   4   79.59    7.50
  -2  10  -4   80.19    6.90
   2 -10   3   83.79    7.00
  -2  10  -3   80.69    6.40
   2 -10   2  531.55   28.70
   2 -10   2  576.44   29.00
  -2  10  -2  561.54   29.00
  -2  10  -2  559.04   28.70
   2 -10   1  380.66   20.00
   2 -10   1  368.46   19.80
  -2  10  -1  388.76   20.00
  -2  10  -1  371.26   19.80
   2 -10   0  273.67   14.70
   2 -10   0  268.87   14.60
  -2  10   0  277.07   14.70
  -2  10   0  276.77   14.70
   2 -10  -1    0.70    1.80
   2 -10  -1    0.60    1.80
  -2  10   1   -0.60    1.50
  -2  10   1    0.50    1.80
   2 -10  -2  322.87   17.20
   2 -10  -2  328.17   16.90
  -2  10   2  325.77   17.00
  -2  10   2  342.97   17.40
   2 -10  -3   12.70    2.70
  -2  10   3   16.30    3.00
   2 -10  -4   42.20    4.50
  -2  10   4   38.10    4.90
  -2  10   5    4.20    3.00
  -2  10   6   67.99    7.20
  -2  10   7    2.80    4.30
   1  -9   7    1.50    5.20
  -1   9  -7    6.20    4.80
   1  -9   6  135.09   11.40
  -1   9  -6  157.78   10.60
   1  -9   5   13.90    4.50
  -1   9  -5   15.80    3.80
   1  -9   4   57.59    6.10
  -1   9  -4   53.59    5.50
   1  -9   3  120.19    8.20
  -1   9  -3  135.99    9.20
  -1   9  -3  122.29    8.40
   1  -9   2  982.40   49.10
   1  -9   2  957.00   49.00
  -1   9  -2  984.30   48.90
  -1   9  -2  990.00   49.10
   1  -9   1  324.17   17.70
   1  -9   1  343.07   17.70
  -1   9  -1  338.67   17.70
  -1   9  -1  341.57   17.80
   1  -9   0  195.88   11.10
   1  -9   0  199.18   11.10
  -1   9   0  202.38   11.00
  -1   9   0  217.18   11.20
   1  -9  -1  190.28    9.90
   1  -9  -1  161.78    9.50
  -1   9   1  186.68   10.00
   1  -9  -2   81.49    5.40
  -1   9   2   78.39    5.50
   1  -9  -3  273.87   14.60
  -1   9   3  270.47   14.70
   1  -9  -4  496.75   26.10
  -1   9   4  513.25   26.60
  -1   9   5   63.19    6.00
  -1   9   6   10.10    3.90
  -1   9   7   15.00    4.60
   0  -8   7    8.00    6.90
   0   8  -7   11.40    4.60
   0  -8   6   20.30    5.50
   0   8  -6   19.60    4.10
   0  -8   5  156.78   11.00
   0   8  -5  159.28   10.20
   0  -8   4   56.99    5.90
   0   8  -4   50.69    5.10
   0  -8   3  142.09    9.20
   0   8  -3  141.39    9.10
   0   8  -3  145.99    8.70
   0  -8   2   96.09    6.90
   0  -8   2  101.49    6.60
   0   8  -2   97.59    6.70
   0   8  -2  105.19    6.50
   0  -8   1  139.49    8.50
   0  -8   1  143.09    8.30
   0   8  -1  152.28    8.40
   0   8  -1  150.28    8.60
   0  -8   0   75.59    5.00
   0  -8   0   74.59    4.90
   0   8   0   77.99    5.10
   0   8   0   75.09    4.90
   0  -8  -1  151.28    8.50
   0   8   1  151.78    8.60
   0  -8  -2  100.39    6.30
   0   8   2  100.89    6.50
   0  -8  -3  150.08    9.00
   0   8   3  156.08    9.10
   0  -8  -4   43.60    4.50
   0   8   5  169.28   10.80
   0   8   6    8.40    4.00
   0   8   7   12.60    4.80
   1   7  -8    3.80    4.70
  -1  -7   7   22.90    6.20
   1   7  -7   26.10    4.90
  -1  -7   6    4.90    4.50
   1   7  -6    8.90    3.50
  -1  -7   5   77.19    7.30
   1   7  -5   73.69    6.20
   1   7  -4  182.78   10.30
   1   7  -4  164.68   10.80
  -1  -7   3  165.68    9.90
  -1  -7   3  158.28    9.50
   1   7  -3  152.18    9.70
   1   7  -3  169.78    9.40
  -1  -7   2  196.08   11.30
  -1  -7   2  202.28   11.00
   1   7  -2  195.78   11.20
   1   7  -2  205.28   10.90
  -1  -7   1    4.40    2.20
  -1  -7   1    4.80    1.80
   1   7  -1    5.20    2.10
   1   7  -1    4.40    1.90
  -1  -7   0    5.90    1.90
  -1  -7   0    6.40    1.90
   1   7   0    8.60    2.10
   1   7   0    4.90    1.60
  -1  -7  -1   34.40    3.20
   1   7   1   30.10    3.20
  -1  -7  -2  134.39    7.70
   1   7   2  126.39    7.80
  -1  -7  -3  266.57   14.40
   1   7   3  245.88   14.00
  -1  -7  -4   20.80    3.40
   1   7   5  354.76   19.50
   1   7   6   16.80    4.20
   1   7   7   14.50    4.80
   2   6  -8   26.30    8.40
   2   6  -8   18.50    5.10
   2   6  -7   10.60    4.10
  -2  -6   6   37.00    6.30
   2   6  -6   39.40    5.00
  -2  -6   5   74.89    7.00
   2   6  -5   64.69    6.10
   2   6  -5   88.69    6.70
  -2  -6   4   68.89    6.10
   2   6  -4   72.79    5.30
   2   6  -4   65.89    6.00
  -2  -6   3  203.78   10.90
  -2  -6   3  191.08   11.20
   2   6  -3  180.98   11.20
   2   6  -3  201.18   10.70
  -2  -6   2   47.10    4.40
  -2  -6   2   47.10    3.80
   2   6  -2   48.00    4.50
   2   6  -2   49.40    3.90
  -2  -6   1  140.29    7.50
  -2  -6   1  125.89    7.80
   2   6  -1  134.09    7.50
   2   6  -1  135.99    7.80
  -2  -6   0   29.60    2.90
   2   6   0   28.40    2.80
   2   6   0   28.50    2.90
  -2  -6  -1  293.77   15.30
   2   6   1  297.17   15.40
  -2  -6  -2  246.28   13.30
   2   6   2  252.27   13.40
  -2  -6  -3  216.28   12.70
   2   6   3  224.98   12.40
   2   6   4  103.49    7.40
   2   6   5  242.98   14.40
   2   6   6   13.70    4.10
   2   6   7    2.90    4.30
   3   5  -8   21.40    5.00
   3   5  -8   10.80    8.70
   3   5  -7    4.80    5.50
   3   5  -7    7.00    3.40
   3   5  -6    1.00    4.70
   3   5  -6   -1.00    2.70
   3   5  -5  116.69    8.00
   3   5  -5  123.39    7.60
   3   5  -5  114.69    9.00
   3   5  -4   80.79    5.50
  -3  -5   3    0.40    1.80
   3   5  -3    4.30    2.70
   3   5  -3    0.10    2.30
   3   5  -3    4.30    1.60
  -3  -5   2  331.87   17.40
   3   5  -2  336.57   18.00
   3   5  -2  357.96   18.00
   3   5  -2  344.07   17.40
  -3  -5   1  177.48    9.30
   3   5  -1  179.68    9.70
   3   5  -1  175.78    9.20
   3   5  -1  163.88    9.60
  -3  -5   0 2483.25  118.29
  -3  -5   0 2438.06  118.19
   3   5   0 2434.56  118.29
   3   5   0 2335.17  118.19
  -3  -5  -1   41.30    3.70
   3   5   1   40.60    3.80
  -3  -5  -2 1309.97   65.29
   3   5   2 1330.47   65.29
  -3  -5  -3    6.20    2.40
   3   5   3    9.00    2.70
   3   5   4   93.89    7.10
   3   5   5   19.60    4.30
   3   5   5   19.10    3.00
  -3  -5  -6  117.79    7.50
  -3  -5  -7   34.10    8.40
  -3  -5  -7   -2.30    2.60
   3   5   7    5.50    3.90
   4   4  -8   43.50    5.90
   4   4  -8   37.70    7.50
   4   4  -7    7.90    5.20
   4   4  -7   10.20    3.30
   4   4  -6   51.89    5.30
   4   4  -6   64.09    5.20
   4   4  -6   36.20    6.10
   4   4  -5    0.40    3.50
   4   4  -5   -0.40    3.30
   4   4  -5    4.40    2.30
   4   4  -5    3.90    2.20
  -4  -4   4   38.70   25.40
  -4  -4   4   56.39   23.20
   4   4  -4   47.20   25.80
   4   4  -4   62.69   24.50
  -4  -4   3  478.25   23.70
   4   4  -3  494.35   23.60
   4   4  -3  429.66   24.20
   4   4  -3  479.05   24.40
  -4  -4   2  294.27   16.10
  -4  -4   2  314.87   15.40
   4   4  -2  304.77   15.40
   4   4  -2  304.07   16.10
  -4  -4   1  630.14   30.30
  -4  -4   1  587.64   30.30
   4   4  -1  615.14   30.00
   4   4  -1  594.44   30.30
  -4  -4   0  459.45   23.90
  -4  -4   0  499.75   23.90
   4   4   0  466.85   23.80
   4   4   0  477.05   23.90
  -4  -4  -1  810.42   40.30
  -4  -4  -1  796.62   39.90
   4   4   1  834.02   40.00
   4   4   1  798.02   40.30
  -4  -4  -2   75.19    5.40
   4   4   2   73.59    4.60
   4   4   2   73.39    5.50
  -4  -4  -3  242.18   12.80
  -4  -4  -3  240.18   13.60
   4   4   3  245.18   12.80
  -4  -4  -4    4.10    1.80
   4   4   4    5.80    2.20
   4   4   4   10.40    3.30
  -4  -4  -5    4.70    2.10
   4   4   5    9.40    2.60
   4   4   5   12.30    3.70
  -4  -4  -6    7.50    2.80
   4   4   6   17.00    3.60
   4   4   6   20.30    4.60
   4   4   7    0.80    3.90
   5   3  -8    2.90    4.10
   5   3  -8    9.70    6.00
   5   3  -7   29.40    5.70
   5   3  -7   14.80    4.00
   5   3  -7   28.90    4.00
   5   3  -6    9.00    2.80
   5   3  -6    8.00    2.80
   5   3  -6   10.50    4.40
   5   3  -5  224.78   13.50
   5   3  -5  171.68   12.00
   5   3  -5  208.18   11.00
   5   3  -5  197.18   11.00
   5   3  -4  148.59    8.50
   5   3  -4  147.29    9.70
   5   3  -4  162.88    8.60
   5   3  -4  172.28   10.50
  -5  -3   3  652.13   33.50
   5   3  -3  664.03   33.30
  -5  -3   2  106.09    7.00
   5   3  -2  112.59    7.00
  -5  -3   1   33.10    2.70
  -5  -3   1   33.80    3.60
   5   3  -1   35.80    3.60
   5   3  -1   34.40    2.90
  -5  -3   0    4.40    1.70
  -5  -3   0    3.50    1.70
   5   3   0    4.10    1.70
   5   3   0    4.80    1.80
  -5  -3  -1  617.34   30.90
  -5  -3  -1  609.74   30.70
   5   3   1  615.04   30.70
   5   3   1  614.44   31.00
  -5  -3  -2  123.29    8.50
  -5  -3  -2  117.29    7.00
   5   3   2  116.49    7.60
   5   3   2  120.99    7.10
  -5  -3  -3  177.88    9.80
   5   3   3  171.38   10.60
   5   3   3  172.68    9.80
  -5  -3  -4   28.50    3.50
   5   3   4   29.50    3.80
   5   3   4   34.90    4.80
  -5  -3  -5   18.10    3.20
   5   3   5   28.50    4.70
   5   3   5   18.90    3.30
   5   3   6   16.30    4.20
   5   3   6   16.20    3.90
   6   2  -8   15.00    5.80
   6   2  -8   -2.90    4.20
   6   2  -7   34.90    6.10
   6   2  -7   23.90    4.10
   6   2  -7   15.80    4.10
   6   2  -6  172.98   10.20
   6   2  -6  172.38   10.20
   6   2  -6  190.68   11.60
   6   2  -5  100.19    8.80
   6   2  -5  119.49    8.20
   6   2  -4   36.90    4.80
  -6  -2   3  190.08   10.90
   6   2  -3  182.68   10.80
  -6  -2   2   99.19    6.80
   6   2  -2  116.49    7.10
  -6  -2   1   42.10    4.10
  -6  -2   1   48.80    4.80
   6   2  -1   50.09    3.50
   6   2  -1   52.39    4.30
  -6  -2   0  350.66   18.10
  -6  -2   0  351.86   18.30
   6   2   0  359.06   18.30
   6   2   0  352.16   18.20
  -6  -2  -1  443.76   22.70
  -6  -2  -1  452.35   22.90
   6   2   1  437.16   22.70
   6   2   1  440.76   22.80
  -6  -2  -2   88.49    6.30
  -6  -2  -2   88.69    5.80
   6   2   2   86.09    6.40
   6   2   2   87.99    5.90
  -6  -2  -3   27.70    3.60
   6   2   3   33.80    3.90
  -6  -2  -4   48.00    4.60
   6   2   4   52.39    4.80
   6   2   4   50.29    5.90
   6   2   5  169.48   11.10
   6   2   5  152.78   10.00
   6   2   6   50.59    6.50
   6   2   6   43.60    5.50
   7   1  -8    1.20    3.60
   7   1  -8    9.90    5.80
   7   1  -7   55.29    7.30
   7   1  -6   25.90    5.20
   7   1  -5   28.30    4.70
  -7  -1   4   25.10    4.40
   7   1  -4   33.10    4.80
  -7  -1   3  304.67   16.90
   7   1  -3  325.57   17.00
  -7  -1   2  220.78   12.40
   7   1  -2  226.28   12.50
  -7  -1   1   71.79    5.30
  -7  -1   1   71.39    4.50
   7   1  -1   69.99    5.40
   7   1  -1   72.59    4.60
  -7  -1   0  808.02   41.40
  -7  -1   0  845.12   41.20
   7   1   0  815.02   41.20
   7   1   0  840.62   41.50
  -7  -1  -1 1087.59   52.59
  -7  -1  -1 1049.70   52.59
   7   1   1 1047.50   52.59
   7   1   1 1033.10   52.49
  -7  -1  -2  424.16   22.20
  -7  -1  -2  443.86   22.60
   7   1   2  415.36   22.20
   7   1   2  417.86   22.50
  -7  -1  -3  174.28   10.60
   7   1   3  181.28   11.20
   7   1   3  177.68   10.70
   7   1   4   16.50    3.60
   7   1   4   12.60    3.60
   7   1   5   89.69   10.60
   7   1   5   72.09    6.60
   7   1   6   32.00    5.10
   8   0  -8   63.29    8.30
   8   0  -7   25.70    5.40
   8   0  -6    6.50    4.10
   8   0  -5    0.30    3.40
  -8   0   4   65.79    6.20
   8   0  -4   82.19    7.10
  -8   0   3   25.00    4.30
   8   0  -3   23.10    4.00
  -8   0   2  357.56   18.70
   8   0  -2  346.57   18.70
  -8   0   1    6.20    1.80
  -8   0   1    6.00    2.50
   8   0  -1    7.90    2.70
   8   0  -1    4.70    1.60
  -8   0   0 1286.07   61.49
  -8   0   0 1202.08   61.69
   8   0   0 1245.68   61.39
   8   0   0 1228.88   61.69
  -8   0  -1    9.70    2.90
  -8   0  -1    8.60    2.60
   8   0   1   10.60    2.60
   8   0   1   13.80    3.40
  -8   0  -2  843.22   43.20
   8   0   2  857.81   43.40
   8   0   2  859.21   43.50
   8   0   3    1.20    2.60
   8   0   3   -1.80    2.50
   8   0   4    7.80    3.40
   8   0   4    7.40    3.50
   8   0   5   -0.50    3.00
   9  -1  -8    6.90    5.90
   9  -1  -7   45.90    6.90
   9  -1  -6   22.10    5.30
   9  -1  -5   29.10    5.20
   9  -1  -4   90.49    7.40
  -9   1   3  106.99    7.50
   9  -1  -3  100.59   10.00
  -9   1   2  861.91   44.00
   9  -1  -2  881.41   44.00
  -9   1   1  252.37   14.40
  -9   1   1  260.97   13.70
   9  -1  -1  262.67   14.50
  -9   1   0  255.57   13.50
  -9   1   0  241.38   13.90
   9  -1   0  244.48   13.40
   9  -1   0  241.28   14.10
  -9   1  -1  520.25   27.60
  -9   1  -1  535.05   28.50
   9  -1   1  536.85   27.90
   9  -1   2   22.40    4.30
   9  -1   2   20.60    3.90
   9  -1   3   77.19    6.90
  -9   1  -4   19.20    4.80
   9  -1   4   25.70    4.70
  -9   1  -5    2.40    3.90
   9  -1   5   -2.60    3.10
  10  -2  -8   23.20    6.50
  10  -2  -7   64.49    8.10
  10  -2  -6   41.90    6.40
  10  -2  -5   50.79    6.70
  10  -2  -4    6.40    3.70
  10  -2  -3  161.48   10.40
  10  -2  -2   39.70    4.90
 -10   2   1  116.49    7.20
 -10   2   1  108.89    6.90
  10  -2  -1  112.99    8.00
 -10   2   0   14.90    3.20
 -10   2   0   10.80    2.80
  10  -2   0   19.20    3.80
 -10   2  -1   68.69    5.90
  10  -2   1   65.09    6.40
 -10   2  -2  118.39    8.80
  10  -2   2  108.19    8.60
 -10   2  -3    9.70    3.80
  10  -2   3    8.40    3.60
 -10   2  -4   26.00    5.80
  10  -2   4   21.00    5.00
  11  -3  -8   15.80   10.40
  11  -3  -7   63.69    8.30
  11  -3  -6   81.79    8.40
  11  -3  -5   16.00    5.00
  11  -3  -4   54.29    6.40
  11  -3  -3   63.39    6.40
  11  -3  -2   44.00    5.70
 -11   3   1  121.89    7.90
 -11   3   1  130.39    8.10
  11  -3  -1  135.39    9.20
 -11   3   0   10.80    3.00
  11  -3   0   14.80    4.10
 -11   3  -1   49.90    5.80
  11  -3   1   49.99    6.30
 -11   3  -2   15.70    4.10
  11  -3   2   11.50    4.20
 -11   3  -3   76.89    7.90
  11  -3   3   72.79    7.50
 -11   3  -4    4.50    4.50
  12  -4  -8   13.90    6.60
  12  -4  -7   34.50    7.00
  12  -4  -6   69.99    8.30
  12  -4  -5    6.00    4.70
  12  -4  -4   18.30    4.70
  12  -4  -3  121.59    9.20
  12  -4  -2  168.08   11.20
 -12   4   1  337.47   17.50
 -12   4   1  319.47   17.50
  12  -4  -1  317.17   18.50
 -12   4   0  137.99    9.10
  12  -4   0  128.79    9.90
 -12   4  -1   89.09    7.50
  12  -4   1   76.89    7.80
 -12   4  -2   37.00    6.00
  12  -4   2   43.30    6.60
 -12   4  -3   44.00    7.00
  12  -4   3   51.89    7.30
  13  -5  -6   22.70    6.00
  13  -5  -5    8.10    5.00
  13  -5  -4  129.49   10.10
  13  -5  -3   22.50    5.40
 -13   5   2  186.68   11.60
 -13   5   2  223.18   11.80
  13  -5  -2  220.68   13.50
 -13   5   1   88.49    7.00
 -13   5   1   94.39    7.50
  13  -5  -1  105.59    8.70
 -13   5   0  277.57   15.50
  13  -5   0  248.68   16.20
 -13   5  -1    3.80    3.40
  13  -5   1    2.60    3.90
  13  -5   2   59.09    7.60
  14  -6  -7    3.90    6.30
  14  -6  -6   27.40    7.70
  14  -6  -5   14.80    5.90
  14  -6  -4    7.90    4.80
  14  -6  -3   39.70    6.60
 -14   6   2   68.29    6.20
 -14   6   2   87.79    6.40
  14  -6  -2   88.29    8.30
 -14   6   1  207.68   12.70
  14  -6  -1  215.18   15.10
 -14   6   0   42.80    5.50
  14  -6   0   37.70    6.40
 -14   6  -1   55.59    6.90
  14  -6   1   56.89    7.90
  15  -7  -6   23.10    7.00
  15  -7  -5    7.10    5.80
  15  -7  -4   35.20    6.30
  15  -7  -3   98.29   11.30
 -15   7   2   15.30    4.80
  15  -7  -2   22.40    5.70
 -15   7   1   26.00    4.70
  15  -7  -1   24.40    5.90
 -15   7   0   24.30    4.90
  15  -7   0   19.50    5.60
  16  -8  -4    5.90    5.70
  16  -8  -3   28.60    6.40
   9 -19   0   56.49    8.50
  -9  19   0   45.00    6.60
  -9  19   1    3.80    4.50
   9 -19  -2   24.50    6.40
  -9  19   2   18.60    5.10
   9 -19  -3    4.00    5.30
  -9  19   3    3.70    4.70
   8 -18   2    5.80    4.70
  -8  18  -2    1.40    4.00
   8 -18   1   75.99    8.70
  -8  18  -1   55.39    7.10
   8 -18   0    2.50    4.50
  -8  18   0    3.40    3.70
   8 -18  -1    0.80    4.30
  -8  18   1    1.40    3.70
   8 -18  -2    1.80    4.60
  -8  18   2    5.10    4.00
   8 -18  -3   16.70    5.50
  -8  18   3   13.10    4.70
   8 -18  -4   63.99    8.20
  -8  18   4   37.10    6.40
   8 -18  -5   14.20    6.10
  -8  18   5    6.40    5.00
   7 -17   3   20.90    5.70
  -7  17  -3   26.60    5.60
   7 -17   2    3.20    4.50
  -7  17  -2    3.00    3.80
   7 -17   1   12.40    4.70
  -7  17  -1    6.60    3.80
   7 -17   0    7.40    4.20
  -7  17   0    2.90    3.50
   7 -17  -1   28.70    6.00
  -7  17   1   25.80    4.80
   7 -17  -2   16.00    5.10
  -7  17   2   16.40    4.60
   7 -17  -3   11.50    4.80
  -7  17   3   11.50    4.30
   7 -17  -4    1.90    4.50
  -7  17   4    7.80    4.30
   7 -17  -5   39.70    7.40
  -7  17   5   26.10    5.80
  -7  17   5   24.30    6.50
   6 -16   4    2.60    4.50
  -6  16  -4    4.70    4.20
   6 -16   3   77.89    8.20
  -6  16  -3   62.49    7.40
   6 -16   2   50.39    7.30
  -6  16  -2   58.19    7.00
   6 -16   1    6.10    4.20
  -6  16  -1   11.80    4.10
   6 -16   0  251.87   15.30
  -6  16   0  239.18   14.50
   6 -16  -1   71.79    7.20
  -6  16   1   54.89    6.30
   6 -16  -2   21.30    4.60
  -6  16   2   14.30    4.00
   6 -16  -3   12.90    7.80
  -6  16   3   12.30    4.80
  -6  16   3   12.60    4.00
   6 -16  -4    3.80    3.90
  -6  16   4    6.00    3.90
  -6  16   4    3.80    4.50
  -6  16   5   53.39    7.00
  -6  16   5   80.79    7.70
  -6  16   6   -1.70    4.70
   5 -15   4  118.59   10.30
  -5  15  -4  111.79    9.50
   5 -15   3  158.88   11.30
  -5  15  -3  144.39   10.70
   5 -15   2   89.39    8.10
  -5  15  -2   80.09    7.40
   5 -15   1   47.40    6.40
  -5  15  -1   51.29    5.70
   5 -15   0   -0.40    3.20
  -5  15   0    0.90    2.90
   5 -15  -1    3.10    3.40
  -5  15   1    5.10    3.00
   5 -15  -2   26.20    4.50
  -5  15   2   18.80    4.50
  -5  15   2   19.50    3.90
   5 -15  -3   -3.10    2.90
  -5  15   3    0.20    3.00
  -5  15   3    1.00    3.80
  -5  15   4  144.19    9.60
  -5  15   4  156.38   10.30
  -5  15   5    1.50    4.10
  -5  15   6   80.99    8.50
   4 -14   5   -0.40    4.40
  -4  14  -5    4.00    4.00
   4 -14   4  140.49   10.70
  -4  14  -4  124.09    9.80
   4 -14   3   45.80    6.60
  -4  14  -3   51.99    6.20
   4 -14   2  404.16   21.90
  -4  14  -2  382.96   21.40
   4 -14   1   12.90    3.80
  -4  14  -1   11.50    3.50
   4 -14   0   42.20    5.40
  -4  14   0   37.80    4.70
  -4  14   0   39.40    5.50
   4 -14  -1  148.49    9.30
  -4  14   1  148.39   10.00
  -4  14   1  130.49    9.10
   4 -14  -2  147.89    9.40
  -4  14   2  162.68    9.60
  -4  14   2  142.49    9.50
   4 -14  -3   -1.20    2.60
  -4  14   3    0.60    2.90
  -4  14   3    0.30    3.00
  -4  14   4   19.00    4.00
  -4  14   5    6.50    3.80
  -4  14   6   45.40    6.40
  -4  14   7    0.70    5.20
   3 -13   6   59.69    8.80
  -3  13  -6   55.19    7.40
   3 -13   5   13.90    9.10
   3 -13   4    1.70    3.80
  -3  13  -4   -1.40    3.20
   3 -13   3  144.29   10.00
  -3  13  -3  125.19    9.20
   3 -13   2    3.00    3.20
  -3  13  -2    7.70    3.10
   3 -13   1  159.58    9.90
  -3  13  -1  141.89    9.40
  -3  13  -1  144.89    9.70
   3 -13   0   63.39    5.60
   3 -13   0   69.89    5.90
  -3  13   0   80.89    5.90
   3 -13  -1   86.69    6.50
   3 -13  -1  108.89    6.90
  -3  13   1   98.69    6.60
  -3  13   1   69.79    8.40
   3 -13  -2   92.39    6.20
   3 -13  -2   68.89    6.10
  -3  13   2  108.39    9.50
  -3  13   2   92.19    6.20
   3 -13  -3   59.79    6.30
  -3  13   4   79.69    6.90
  -3  13   5  208.38   13.00
  -3  13   6   14.10    4.90
  -3  13   7   11.20    5.40
   2 -12   6   14.40    5.60
  -2  12  -6   11.90    4.40
   2 -12   5   28.60    5.80
  -2  12  -5   22.10    4.60
   2 -12   4    4.10    3.80
  -2  12  -4   12.10    3.50
   2 -12   3   33.50    5.20
  -2  12  -3   38.80    4.80
   2 -12   2   46.80    5.40
  -2  12  -2   50.29    5.10
   2 -12   1    5.30    2.70
   2 -12   1    8.20    2.60
  -2  12  -1    7.50    2.80
   2 -12   0    1.10    2.10
   2 -12   0    1.50    2.10
  -2  12   0    3.70    2.40
  -2  12   0   -0.20    2.20
   2 -12  -1  210.78   11.70
   2 -12  -1  203.78   11.90
  -2  12   1  216.88   11.70
  -2  12   1  216.58   12.00
   2 -12  -2   35.10    4.20
   2 -12  -2   48.40    3.90
  -2  12   2   41.70    4.40
  -2  12   2   47.30    3.90
   2 -12  -3  147.29    9.00
  -2  12   4   63.69    6.20
  -2  12   5   62.19    6.70
  -2  12   6   57.69    7.20
  -2  12   7   15.70    5.40
   1 -11   7   20.80    6.70
  -1  11  -7   13.50    5.00
   1 -11   6   -1.60    5.80
  -1  11  -6    0.90    3.80
   1 -11   5   37.90    6.30
  -1  11  -5   39.10    5.10
   1 -11   4   -0.10    3.40
  -1  11  -4    1.00    2.90
   1 -11   3   80.59    7.30
  -1  11  -3  100.09    6.90
   1 -11   2  577.44   29.60
   1 -11   2  531.75   29.30
  -1  11  -2  598.84   29.70
  -1  11  -2  572.24   29.90
   1 -11   1  133.99    8.70
   1 -11   1  139.79    8.50
  -1  11  -1  132.09    8.30
  -1  11  -1  135.79    8.50
   1 -11   0    5.90    2.30
   1 -11   0    7.20    2.40
  -1  11   0    6.00    2.20
  -1  11   0    6.30    2.20
   1 -11  -1  229.68   12.40
   1 -11  -1  224.38   12.70
  -1  11   1  239.38   12.80
  -1  11   1  240.18   12.30
   1 -11  -2   93.29    7.60
  -1  11   2   78.99    5.90
   1 -11  -3  115.99    8.00
  -1  11   3  136.99    8.50
  -1  11   4   76.79    6.50
  -1  11   5   27.00    4.50
  -1  11   6   76.79    7.70
  -1  11   7   12.80    5.10
   0 -10   7    2.00    5.40
   0  10  -7    5.30    4.60
   0 -10   6   47.30    7.20
   0  10  -6   66.19    6.90
   0 -10   5  101.59    9.00
   0  10  -5  111.09    8.20
   0 -10   4   67.59    6.90
   0  10  -4   72.39    6.10
   0 -10   3   15.60    3.30
   0 -10   3   19.10    4.50
   0  10  -3   13.30    3.30
   0 -10   2  269.77   15.20
   0  10  -2  278.07   15.00
   0  10  -2  280.67   15.30
   0 -10   1    1.60    2.00
   0 -10   1    1.10    2.20
   0  10  -1    2.20    2.00
   0  10  -1    2.60    2.00
   0 -10   0   27.10    3.40
   0 -10   0   26.30    3.30
   0  10   0   22.70    3.00
   0  10   0   28.90    3.50
   0 -10  -1    3.10    1.60
   0 -10  -1    0.90    1.90
   0  10   1    3.80    1.40
   0  10   1    2.00    2.00
   0 -10  -2  278.97   14.80
   0  10   2  268.67   14.80
   0 -10  -3   17.00    3.00
   0  10   3   17.10    3.50
   0  10   4   63.49    5.90
   0  10   5   98.79    7.80
   0  10   6   34.60    5.30
   1   9  -7    8.20    4.40
  -1  -9   6   10.30    4.80
   1   9  -6   13.00    4.00
  -1  -9   5   56.59    7.10
   1   9  -5   70.39    6.20
  -1  -9   4  478.95   26.80
  -1  -9   4  533.95   27.30
   1   9  -4  520.55   26.70
  -1  -9   3  271.17   15.20
   1   9  -3  264.77   15.20
   1   9  -3  275.97   14.70
  -1  -9   2   82.29    6.10
  -1  -9   2   78.09    5.60
   1   9  -2   89.09    5.90
   1   9  -2   77.49    6.00
  -1  -9   1  165.78    9.50
  -1  -9   1  166.18    9.70
   1   9  -1  179.98    9.60
   1   9  -1  167.58    9.60
  -1  -9   0  203.28   10.90
  -1  -9   0  198.48   10.70
   1   9   0  192.88   10.70
   1   9   0  210.28   11.10
  -1  -9  -1  343.47   17.70
   1   9   1  334.97   17.70
  -1  -9  -2  929.61   47.30
   1   9   2  968.00   47.40
  -1  -9  -3  126.99    8.10
   1   9   3  133.49    8.40
   1   9   4   54.99    5.40
   1   9   5    4.70    3.40
   1   9   6  140.59   10.40
   1   9   7    1.50    4.40
   2   8  -8   14.70    8.70
   2   8  -8    0.30    5.60
  -2  -8   7   29.30    6.60
   2   8  -7   25.10    5.10
  -2  -8   6    2.90    4.40
   2   8  -6    5.60    3.50
  -2  -8   5   48.40    6.30
   2   8  -5   45.40    5.10
  -2  -8   4   -2.40    2.70
  -2  -8   4    3.20    3.10
   2   8  -4    0.40    2.80
   2   8  -4    2.30    2.30
  -2  -8   3  163.48   10.20
  -2  -8   3  181.98   10.80
   2   8  -3  195.18   10.30
  -2  -8   2  163.88   10.00
  -2  -8   2  174.88    9.60
   2   8  -2  178.68    9.60
   2   8  -2  167.18   10.00
  -2  -8   1   75.79    5.00
  -2  -8   1   68.19    5.00
   2   8  -1   67.89    4.80
   2   8  -1   70.09    5.00
  -2  -8   0    4.50    1.80
   2   8   0    4.90    1.70
   2   8   0    5.70    2.00
  -2  -8  -1  238.58   12.70
   2   8   1  235.48   12.80
  -2  -8  -2  288.57   15.30
   2   8   2  287.17   15.50
  -2  -8  -3  355.86   17.80
   2   8   3  301.07   18.30
   2   8   4   56.29    5.70
   2   8   5   12.40    3.50
   2   8   6   89.09    8.30
   2   8   7   42.70    6.20
   3   7  -8    5.30    7.10
   3   7  -8   10.40    4.70
   3   7  -7   35.00    7.80
   3   7  -7   31.30    4.90
   3   7  -6    0.70    4.70
   3   7  -6   10.30    3.30
  -3  -7   5  117.69    8.50
   3   7  -5   81.19    7.00
   3   7  -5  104.29    7.10
  -3  -7   4    5.20    3.70
  -3  -7   4    0.70    2.40
   3   7  -4    1.60    2.20
   3   7  -4    1.90    2.70
  -3  -7   3  173.18    9.60
  -3  -7   3  167.78   10.20
   3   7  -3  185.18    9.50
   3   7  -3  140.69   10.00
  -3  -7   2  224.28   12.20
   3   7  -2  228.28   12.70
   3   7  -2  231.88   12.10
  -3  -7   1  460.75   23.60
   3   7  -1  451.05   23.90
   3   7  -1  482.55   23.70
   3   7  -1  480.55   23.90
  -3  -7   0 1549.74   75.59
   3   7   0 1454.65   75.29
   3   7   0 1556.04   75.59
   3   7   0 1593.04   75.29
  -3  -7  -1  437.56   22.00
   3   7   1  421.76   22.00
  -3  -7  -2   75.09    5.40
   3   7   2   75.19    5.50
  -3  -7  -3   68.09    5.60
   3   7   3   69.79    6.60
   3   7   4   14.80    3.30
   3   7   5    8.60    3.60
   3   7   6   80.49    7.90
   3   7   7   12.10    4.90
   4   6  -8    5.40   11.00
   4   6  -8    9.90    4.70
   4   6  -7   16.20    6.40
   4   6  -7   20.40    4.20
   4   6  -6   37.60    5.00
   4   6  -6   56.39    7.60
   4   6  -6   45.40    5.20
   4   6  -5   58.69    5.60
   4   6  -5   72.39    7.20
   4   6  -5   75.89    5.50
  -4  -6   4    2.10    2.10
   4   6  -4    2.80    1.90
   4   6  -4    2.60    2.80
   4   6  -4    2.30    3.20
  -4  -6   3   47.30    4.00
   4   6  -3   49.90    5.20
  -4  -6   2  709.23   35.60
   4   6  -2  695.33   36.10
   4   6  -2  752.12   36.10
   4   6  -2  710.83   35.50
  -4  -6   1  109.09    6.20
   4   6  -1  111.09    6.20
   4   6  -1   94.09    6.50
  -4  -6   0 1114.19   53.69
   4   6   0 1044.80   53.49
   4   6   0 1107.99   53.79
  -4  -6  -1 1996.40   98.29
   4   6   1 2011.30   98.39
   4   6   2  242.88   13.40
   4   6   3   76.99    6.20
   4   6   4   -1.00    2.40
   4   6   5   40.10    5.50
   5   5  -8    2.60    6.60
   5   5  -8    4.40    4.20
   5   5  -7   34.30    4.70
   5   5  -7   42.70    6.80
   5   5  -6    8.10    2.70
   5   5  -6    4.60    3.30
   5   5  -6    8.10    4.20
   5   5  -5   13.40    2.80
   5   5  -5   15.60    2.90
   5   5  -5   21.10    4.50
  -5  -5   4  417.76   21.60
   5   5  -4  447.96   21.50
   5   5  -4  410.56   22.40
   5   5  -4  405.66   22.40
  -5  -5   3  102.29    5.90
   5   5  -3   93.99    7.00
   5   5  -3  106.49    5.90
   5   5  -3   90.19    7.00
  -5  -5   2  775.62   37.80
  -5  -5   2  773.92   38.50
   5   5  -2  765.52   37.70
   5   5  -2  741.43   38.30
  -5  -5   1   22.40    2.60
  -5  -5   1   27.20    3.40
   5   5  -1   24.50    2.70
   5   5  -1   30.20    3.30
  -5  -5   0 2079.89   99.99
  -5  -5   0 2016.50   99.89
   5   5   0 2035.70   99.89
   5   5   0 2037.60   99.99
  -5  -5  -1   79.79    5.10
  -5  -5  -1   81.29    5.60
   5   5   1   89.59    5.20
   5   5   1   85.89    5.80
  -5  -5  -2  301.97   15.50
  -5  -5  -2  307.47   16.30
   5   5   2  301.87   15.50
   5   5   2  293.37   16.30
  -5  -5  -3    2.50    1.80
   5   5   3    1.40    1.60
   5   5   3    1.20    2.50
  -5  -5  -4  187.68   10.50
   5   5   4  185.38   10.40
   5   5   4  194.48   11.90
  -5  -5  -5   15.40    3.00
   5   5   5   21.40    4.50
   5   5   5   23.60    3.40
  -5  -5  -6    5.70    2.80
   5   5   6   16.30    3.50
   5   5   6   18.90    4.80
   6   4  -8   30.70    7.00
   6   4  -8   17.70    4.70
   6   4  -7   13.90    3.60
   6   4  -7    5.50    3.40
   6   4  -7   19.20    5.60
   6   4  -6   32.80    5.70
   6   4  -6   27.50    3.80
   6   4  -5  157.08   10.20
   6   4  -5  158.88    8.80
   6   4  -5  148.19    8.70
   6   4  -4  343.07   19.40
   6   4  -4  379.56   19.50
  -6  -4   3   22.40    3.70
   6   4  -3   27.40    3.90
  -6  -4   2  397.96   20.90
  -6  -4   2  431.46   20.40
   6   4  -2  397.86   20.80
   6   4  -2  376.66   20.00
  -6  -4   1  637.44   30.30
  -6  -4   1  596.04   30.60
   6   4  -1  605.74   30.60
   6   4  -1  591.34   30.20
  -6  -4   0  126.59    7.40
  -6  -4   0  120.89    7.50
   6   4   0  128.49    7.60
   6   4   0  139.19    7.60
  -6  -4  -1  275.17   14.50
  -6  -4  -1  271.47   14.70
   6   4   1  282.57   14.50
   6   4   1  271.37   14.80
  -6  -4  -2   74.49    5.30
  -6  -4  -2   78.89    5.90
   6   4   2   81.49    5.30
   6   4   2   78.89    6.20
  -6  -4  -3  138.99    8.30
   6   4   3  138.09    9.30
   6   4   3  143.29    8.40
  -6  -4  -4  100.89    6.70
   6   4   4   99.79    6.80
   6   4   4  112.49    8.30
  -6  -4  -5    7.10    3.00
   6   4   5    9.90    3.00
   6   4   5   15.90    4.50
   6   4   6  177.48   11.60
   6   4   6  136.59    9.70
   7   3  -8   10.10    5.90
   7   3  -8   -0.20    3.90
   7   3  -8    4.80    5.50
   7   3  -7   74.69    6.20
   7   3  -7   68.49    5.90
   7   3  -6   19.50    5.00
   7   3  -5   38.20    5.50
  -7  -3   4   19.90    4.00
   7   3  -4   21.90    4.10
  -7  -3   3   56.29    5.30
   7   3  -3   56.39    5.20
  -7  -3   2  138.39    8.60
   7   3  -2  139.29    8.60
  -7  -3   1   89.19    5.20
  -7  -3   1   86.19    5.90
   7   3  -1   88.49    5.90
   7   3  -1   78.39    5.20
  -7  -3   0   28.50    3.20
  -7  -3   0   32.80    3.50
   7   3   0   30.40    3.30
   7   3   0   33.30    3.70
  -7  -3  -1   60.89    4.70
  -7  -3  -1   62.29    5.10
   7   3   1   66.59    4.90
   7   3   1   59.89    5.10
  -7  -3  -2    4.60    2.30
   7   3   2    1.80    2.00
   7   3   2    5.60    2.80
  -7  -3  -3   51.59    4.80
   7   3   3   54.29    4.80
   7   3   3   55.69    5.80
  -7  -3  -4    0.60    2.30
   7   3   4    1.90    2.50
   7   3   4    3.80    3.30
   7   3   5   71.39    6.10
   8   2  -8   52.19    7.90
   8   2  -7   74.49    8.30
   8   2  -6   90.89    8.20
   8   2  -5    4.60    3.70
  -8  -2   4   12.00    3.60
  -8  -2   3  520.75   27.10
   8   2  -3  524.85   27.10
  -8  -2   2  289.07   15.70
  -8  -2   1  134.59    7.60
  -8  -2   1  132.79    8.30
   8   2  -1  135.99    7.70
   8   2  -1  134.09    8.30
  -8  -2   0   10.80    2.80
  -8  -2   0    9.80    2.40
   8   2   0   14.00    3.00
   8   2   0    9.40    2.40
  -8  -2  -1  339.97   18.10
  -8  -2  -1  346.67   18.20
   8   2   1  339.27   18.20
   8   2   1  333.37   18.10
  -8  -2  -2   22.10    4.00
   8   2   2   21.80    3.70
   8   2   2   20.90    3.80
  -8  -2  -3   17.00    3.70
   8   2   3   19.90    4.30
   8   2   4   84.09    6.80
   8   2   4   87.19    7.50
   8   2   5   48.20    6.30
   8   2   5   41.80    5.40
   9   1  -8    7.90    5.90
   9   1  -7   49.50    6.90
   9   1  -6   19.20    5.30
   9   1  -5   17.60    4.80
   9   1  -4   71.69    6.60
  -9  -1   3  124.29    8.40
   9   1  -3  123.49   11.00
  -9  -1   2  848.72   42.80
   9   1  -2  846.72   42.80
  -9  -1   1  265.57   14.90
  -9  -1   1  270.27   14.20
   9   1  -1  271.87   15.00
   9   1  -1  274.27   14.20
  -9  -1   0  244.98   13.40
  -9  -1   0  253.37   13.80
   9   1   0  238.28   13.40
   9   1   0  245.78   13.80
  -9  -1  -1  504.25   27.20
  -9  -1  -1  527.15   27.30
   9   1   1  537.35   27.40
   9   1   1  530.15   28.00
   9   1   2   12.80    3.60
   9   1   2   13.70    3.40
   9   1   3   60.89    6.20
   9   1   3   63.29    6.00
   9   1   4   18.70    4.20
   9   1   4   21.00    4.50
   9   1   5    2.30    3.40
   9   1   5   -3.20    3.00
  10   0  -8   33.50    7.70
  10   0  -7    7.30    5.50
  10   0  -6  154.18   11.10
  10   0  -5   15.90    4.70
  10   0  -4   48.70    6.00
  10   0  -3   10.40    3.40
  10   0  -2  625.44   32.30
 -10   0   1    4.00    3.30
 -10   0   1    1.10    1.90
  10   0  -1    0.90    1.80
  10   0  -1    8.30    3.30
 -10   0   0  324.57   17.20
  10   0   0  303.77   16.60
  10   0   0  299.87   17.10
  10   0   1   -0.10    2.30
  10   0   1    0.20    2.90
  10   0   2   35.80    5.00
  10   0   2   39.20    5.60
  10   0   3    5.90    3.20
  10   0   3    5.60    3.30
  10   0   4   62.89    6.60
  11  -1  -7   20.30    5.80
  11  -1  -6  112.29    9.70
  11  -1  -5   60.29    7.20
  11  -1  -4  290.47   16.80
  11  -1  -3  113.89    8.60
  11  -1  -2  113.99    8.30
 -11   1   1  274.67   15.60
 -11   1   1  305.67   15.90
  11  -1  -1  292.07   16.50
 -11   1   0    4.10    2.50
  11  -1   0    9.90    3.50
  11  -1   1  168.18   11.20
  11  -1   2  111.79    8.80
 -11   1  -3   19.70    4.90
  11  -1   3   18.20    4.50
 -11   1  -4   43.70    7.40
  11  -1   4   43.00    6.50
  12  -2  -8    8.90    7.20
  12  -2  -7   78.59    9.40
  12  -2  -6   24.20    5.90
  12  -2  -5   54.39    7.10
  12  -2  -4   24.40    5.00
  12  -2  -3  124.49    9.30
  12  -2  -2   67.99    7.00
 -12   2   1    5.10    2.60
  12  -2  -1   10.00    3.70
 -12   2   0  112.59    8.00
  12  -2   0  103.29    8.60
 -12   2  -1    9.00    3.60
  12  -2   1   10.60    3.80
 -12   2  -2   -0.20    3.20
  12  -2   2    3.30    3.70
 -12   2  -3   64.49    7.90
  12  -2   3   54.49    7.00
  13  -3  -6   24.80    6.20
  13  -3  -5   27.50    6.00
  13  -3  -4   31.30    5.60
  13  -3  -3  212.88   13.50
  13  -3  -2    3.10    3.70
 -13   3   1  120.29    8.50
 -13   3   1  139.39    8.70
  13  -3  -1  137.49   10.00
 -13   3   0  124.89    8.80
  13  -3   0  112.89    9.50
 -13   3  -1   67.39    7.30
  13  -3   1   67.19    7.60
 -13   3  -2   -0.30    3.70
  14  -4  -7    6.60    6.10
  14  -4  -5   68.69    8.30
  14  -4  -4   -0.60    4.50
  14  -4  -3   26.90    5.60
 -14   4   2  136.09    8.40
  14  -4  -2  125.99   10.10
 -14   4   1   68.09    6.10
  14  -4  -1   62.39    7.60
 -14   4   0    5.40    3.60
  14  -4   0   11.80    5.30
 -14   4  -1  122.49    9.70
  14  -4   1  109.59    9.90
  15  -5  -6   80.49    9.70
  15  -5  -5   17.70    5.90
  15  -5  -4   53.49    8.60
  15  -5  -3   39.70   10.60
 -15   5   2   48.60    5.30
  15  -5  -2   44.80    7.30
 -15   5   1    3.00    3.10
  15  -5  -1   -4.40    4.10
 -15   5   0   75.59    7.40
  15  -5   0   60.29    8.20
  16  -6  -5   41.80    7.60
  16  -6  -4   28.50    6.40
  16  -6  -3   60.59    8.30
 -16   6   2    1.70    3.40
  16  -6  -2    1.10    4.70
   8 -20   0   12.50    5.40
  -8  20   0    5.80    4.70
   8 -20  -1   19.30    5.90
  -8  20   1   15.00    7.70
   8 -20  -2   -2.60    4.80
  -8  20   2    1.30    4.40
   8 -20  -3   16.20    6.10
  -8  20   3   11.60    5.00
   7 -19   2   76.29    9.00
  -7  19  -2   65.59    8.00
   7 -19   1   20.10    6.00
  -7  19  -1   22.60    5.30
   7 -19   0   42.50    6.90
  -7  19   0   41.30    6.30
   7 -19  -1    2.60    4.40
  -7  19   1    5.00    4.20
   7 -19  -2   47.50    7.30
  -7  19   2   57.39    6.90
   7 -19  -3    7.60    5.20
  -7  19   3    2.80    4.30
   7 -19  -4   82.89    8.40
  -7  19   4   60.59    7.90
   6 -18   3   43.00    7.40
  -6  18  -3   33.90    6.00
   6 -18   2   -1.00    4.20
  -6  18  -2    0.10    3.70
   6 -18   1   66.99    7.90
  -6  18  -1   60.99    6.90
   6 -18   0   14.90    4.80
  -6  18   0   14.10    4.40
   6 -18  -1   53.89    7.00
  -6  18   1   52.19    6.50
   6 -18  -2  116.49    9.30
  -6  18   2  103.79    8.70
   6 -18  -3   27.00    5.30
  -6  18   3   20.70    4.90
   6 -18  -4    3.70    8.90
  -6  18   4    2.60    4.30
  -6  18   4    5.40    5.30
  -6  18   5   77.99    8.70
   5 -17   4    4.20    4.80
  -5  17  -4    6.80    4.30
   5 -17   3   33.40    6.50
  -5  17  -3   27.50    5.40
   5 -17   2   11.40    4.50
  -5  17  -2   15.10    4.30
   5 -17   1   49.30    6.90
  -5  17  -1   49.40    6.30
   5 -17   0   10.60    4.50
  -5  17   0   15.30    4.10
   5 -17  -1  200.88   12.60
  -5  17   1  193.68   12.40
   5 -17  -2    4.30    3.90
  -5  17   2    2.30    4.80
  -5  17   2    3.70    3.30
   5 -17  -3   33.40    5.10
  -5  17   3   32.90    5.20
  -5  17   3   33.60    5.90
   5 -17  -4   42.10    5.20
  -5  17   4   32.30    5.40
  -5  17   4   26.00    5.10
  -5  17   5   24.80    5.80
  -5  17   6    7.30    5.80
   4 -16   4   52.39   14.50
  -4  16  -4   49.70    6.60
   4 -16   3   42.00    6.70
  -4  16  -3   45.90    6.20
   4 -16   2   55.19    6.90
  -4  16  -2   50.39    6.30
   4 -16   1    0.00    3.10
  -4  16  -1    0.30    3.10
   4 -16   0   38.40    5.60
  -4  16   0   32.30    4.90
  -4  16   1   27.00    4.40
  -4  16   1   22.00    4.80
   4 -16  -2    6.50    3.30
  -4  16   2    2.80    3.20
   4 -16  -3  156.78    8.90
  -4  16   3  115.09    8.90
  -4  16   3  124.69    9.30
  -4  16   4   20.60    4.80
  -4  16   5   32.90    5.90
  -4  16   6   21.20    6.00
   3 -15   5   14.30    5.50
  -3  15  -5   10.40    4.50
   3 -15   4   51.09    7.30
  -3  15  -4   45.20    6.10
   3 -15   3   24.30    5.10
  -3  15  -3   27.10    4.80
   3 -15   2   15.70    4.30
  -3  15  -2   16.10    4.00
   3 -15   1   11.40    3.70
  -3  15  -1   15.70    3.80
  -3  15   0    3.60    3.10
  -3  15   0    1.60    2.80
   3 -15  -1   50.69    5.20
  -3  15   1   40.40    5.00
  -3  15   1   47.20    5.90
   3 -15  -2  571.14   28.60
  -3  15   2  583.94   28.60
  -3  15   2  513.25   28.90
  -3  15   3    9.30    3.50
  -3  15   4  187.48   12.00
  -3  15   5   30.00    5.20
  -3  15   6   24.00    5.60
   2 -14   6   18.00    6.00
  -2  14  -6   16.10    5.10
   2 -14   5   10.70    8.90
   2 -14   4   68.49    7.80
  -2  14  -4   69.39    7.00
   2 -14   3   25.20    5.00
  -2  14  -3   34.20    4.90
   2 -14   2   73.59    6.70
  -2  14  -2   62.99    6.10
   2 -14   1   43.40    6.00
  -2  14  -1   35.20    5.00
  -2  14  -1   38.00    4.70
   2 -14   0  174.58   10.50
  -2  14   0  179.48   11.20
  -2  14   0  168.48   10.50
   2 -14  -1    6.90    2.80
  -2  14   1    6.70    2.60
  -2  14   1    6.70    2.80
   2 -14  -2   77.99    5.60
  -2  14   2   78.79    6.30
  -2  14   2   76.49    5.70
  -2  14   3   12.50    3.40
  -2  14   4   46.80    5.90
  -2  14   5    2.70    3.80
  -2  14   6   39.20    6.00
   1 -13   6   -2.00    5.30
  -1  13  -6   -1.50    3.90
   1 -13   5   12.10    5.00
  -1  13  -5   15.30    4.30
   1 -13   4    5.20    3.80
  -1  13  -4    9.80    3.40
   1 -13   3  162.58   10.70
  -1  13  -3  150.48   10.10
   1 -13   2    3.00    2.80
  -1  13  -2    0.90    2.50
   1 -13   1  128.19    8.40
  -1  13  -1  138.19    8.80
  -1  13  -1  120.39    8.30
   1 -13   0  140.99    9.30
   1 -13   0  167.68    9.40
  -1  13   0  158.38    9.30
   1 -13  -1  530.05   26.60
   1 -13  -1  493.95   26.90
  -1  13   1  545.25   26.60
   1 -13  -2  242.98   15.50
  -1  13   2  297.87   15.20
  -1  13   3   84.29    6.80
  -1  13   4    1.10    3.40
  -1  13   5    5.80    3.70
  -1  13   6    7.10    4.60
   0 -12   7   34.70    7.80
   0  12  -7   33.50    6.10
   0  12  -6    9.50    4.20
   0 -12   5    1.80    4.30
   0  12  -5    3.60    3.80
   0 -12   4    9.00    4.10
   0  12  -4   14.90    3.80
   0 -12   3   75.59    6.50
   0  12  -3   66.79    6.00
   0 -12   2   58.69    5.50
   0 -12   2   65.99    5.90
   0  12  -2   59.49    5.60
   0  12  -2   81.29    5.80
   0 -12   1  307.77   16.40
   0 -12   1  280.07   16.30
   0  12  -1  320.27   16.50
   0  12  -1  305.07   16.40
   0 -12   0   45.50    4.10
   0 -12   0   39.90    4.20
   0  12   0   41.20    4.20
   0  12   0   40.60    3.90
   0 -12  -1  301.67   15.50
   0 -12  -1  286.67   16.00
   0  12   1  292.67   16.10
   0  12   1  314.57   15.50
   0 -12  -2   36.00    4.00
   0  12   3   69.89    6.10
   0  12   4   12.90    3.70
   0  12   5    2.90    3.80
   0  12   6    5.10    4.10
   0  12   7   24.50    5.90
  -1 -11   7   29.50    7.10
   1  11  -7   33.60    8.50
  -1 -11   6   53.39    8.00
   1  11  -6   78.49    7.30
  -1 -11   5   67.99    7.80
   1  11  -5   69.89    6.80
  -1 -11   4   67.29    7.00
   1  11  -4   65.29    6.00
  -1 -11   3  132.09    8.90
  -1 -11   3  144.59    9.50
   1  11  -3  141.49    9.90
  -1 -11   2   66.19    5.80
  -1 -11   2   68.09    5.40
   1  11  -2   67.99    5.30
  -1 -11   1  249.97   14.20
  -1 -11   1  248.48   13.80
   1  11  -1  252.77   13.70
   1  11  -1  256.57   13.80
  -1 -11   0    8.00    2.30
  -1 -11   0   10.10    2.40
   1  11   0   11.50    2.60
   1  11   0    7.40    2.10
  -1 -11  -1  130.49    8.30
   1  11   1  127.39    8.00
  -1 -11  -2  590.14   31.10
   1  11   2  629.94   31.40
   1  11   3   45.30    5.10
   1  11   4   -1.20    2.90
   1  11   5   29.30    4.90
   1  11   6    1.30    3.90
   1  11   7   13.20    5.50
  -2 -10   7   -0.20    6.40
   2  10  -7    3.80    4.30
  -2 -10   6   81.19    9.00
   2  10  -6   91.89    7.80
  -2 -10   5    6.80    4.20
   2  10  -5    5.70    3.40
  -2 -10   4   47.60    5.80
  -2 -10   4   38.30    5.20
   2  10  -4   49.60    5.10
  -2 -10   3   17.10    3.80
  -2 -10   3   22.70    3.50
   2  10  -3   17.00    3.60
   2  10  -3   22.20    3.40
  -2 -10   2  313.57   17.30
  -2 -10   2  323.57   17.60
   2  10  -2  333.17   17.60
   2  10  -2  341.07   17.40
  -2 -10   1    0.80    2.00
  -2 -10   1   -1.10    2.00
   2  10  -1    0.90    2.10
   2  10  -1   -1.60    1.70
  -2 -10   0  261.17   14.30
  -2 -10   0  273.27   14.10
   2  10   0  261.57   14.30
   2  10   0  278.17   14.00
  -2 -10  -1  392.56   20.00
   2  10   1  369.16   19.90
  -2 -10  -2  514.55   26.10
   2  10   2  498.25   26.10
   2  10   3   74.49    6.20
   2  10   4   65.49    6.20
   2  10   5   25.50    4.80
   2  10   6   85.69    8.20
   3   9  -8   12.50    8.40
   3   9  -8   16.10    6.70
   3   9  -7   18.90    7.70
   3   9  -7   21.10    4.90
  -3  -9   6   60.09    8.00
   3   9  -6   76.79    6.80
  -3  -9   5   66.19    7.50
   3   9  -5   75.59    6.30
  -3  -9   4   50.29    5.50
  -3  -9   4   67.69    6.40
   3   9  -4   68.19    5.40
  -3  -9   3    3.10    2.40
  -3  -9   3    4.40    2.90
   3   9  -3    8.50    2.40
   3   9  -3    3.70    2.80
  -3  -9   2  557.44   27.60
  -3  -9   2  511.55   27.20
   3   9  -2  519.05   27.50
   3   9  -2  554.34   27.20
  -3  -9   1   73.39    5.10
   3   9  -1   79.39    5.40
   3   9  -1   70.59    5.50
   3   9  -1   74.69    5.30
  -3  -9   0 1271.87   63.29
   3   9   0 1291.37   63.29
   3   9   0 1317.47   62.99
   3   9   0 1243.08   62.89
  -3  -9  -1   59.19    4.70
   3   9   1   69.39    5.20
  -3  -9  -2  196.08   10.90
   3   9   2  185.18   11.00
   3   9   3  240.98   13.80
   3   9   4  264.97   15.40
   3   9   5    2.30    3.40
   4   8  -8    7.80    4.80
   4   8  -8    7.50    7.20
   4   8  -7   24.80    4.80
   4   8  -7   30.80    7.60
   4   8  -6   35.10    7.00
   4   8  -6   53.09    5.60
   4   8  -5    6.30    4.50
   4   8  -5   11.90    3.00
  -4  -8   4   12.60    3.20
   4   8  -4   18.10    4.60
   4   8  -4   19.90    4.50
   4   8  -4   20.60    3.40
  -4  -8   3   31.40    3.80
   4   8  -3   26.10    4.60
   4   8  -3   41.50    3.70
  -4  -8   2   57.39    4.50
   4   8  -2   66.69    4.70
   4   8  -2   59.89    5.30
   4   8  -2   60.29    5.30
  -4  -8   1  889.71   45.70
   4   8  -1  973.00   46.00
   4   8  -1  913.11   45.90
   4   8  -1  913.71   45.80
  -4  -8   0   36.20    3.50
   4   8   0   38.30    3.40
   4   8   0   41.80    3.70
   4   8   0   38.40    3.40
  -4  -8  -1  109.79    6.90
   4   8   1  111.89    7.10
  -4  -8  -2   42.50    4.20
   4   8   2   42.20    4.60
   4   8   3  116.89    8.10
   4   8   4   88.29    7.20
   4   8   5   40.40    5.60
   4   8   6   38.50    6.00
   5   7  -8   12.80    4.50
   5   7  -8    7.00    6.70
   5   7  -7   62.49    6.30
   5   7  -7   51.89    8.30
   5   7  -6    8.90    4.80
   5   7  -6   11.50    3.70
   5   7  -5    6.60    2.60
   5   7  -5    3.20    3.80
  -5  -7   4   95.49    6.10
   5   7  -4   71.69    6.90
  -5  -7   3   98.49    6.20
   5   7  -3   93.39    7.20
   5   7  -3   98.29    7.10
   5   7  -3   99.69    6.10
  -5  -7   2  318.07   16.20
   5   7  -2  294.87   16.60
   5   7  -2  325.27   16.20
   5   7  -2  307.37   16.70
  -5  -7   1  398.26   20.50
  -5  -7   1  394.66   20.20
   5   7  -1  399.16   20.20
   5   7  -1  387.86   20.30
  -5  -7   0   13.30    2.30
  -5  -7   0   15.00    2.40
   5   7   0   15.80    2.40
   5   7   0   17.10    2.70
  -5  -7  -1  134.59    7.90
   5   7   1  134.39    8.10
   5   7   1  126.49    7.30
  -5  -7  -2   61.19    5.20
   5   7   3   12.60    3.30
   5   7   4  277.97   16.10
   5   7   5   36.60    5.80
   5   7   6    3.10    3.70
   6   6  -8   25.20    5.00
   6   6  -8   27.40    9.30
   6   6  -7   44.50    7.00
   6   6  -7   46.20    5.90
   6   6  -6   71.89    7.60
   6   6  -6   67.89    5.60
   6   6  -6   52.99    6.50
   6   6  -5   78.69    5.60
   6   6  -5   76.79    7.30
  -6  -6   4  158.48    8.60
   6   6  -4  146.79    8.30
   6   6  -4  134.49    9.50
  -6  -6   3  467.25   23.40
   6   6  -3  469.55   24.20
   6   6  -3  478.15   23.30
   6   6  -3  431.56   24.60
  -6  -6   2  291.77   15.90
  -6  -6   2  296.17   15.20
   6   6  -2  291.97   15.80
   6   6  -2  292.17   15.10
  -6  -6   1  492.15   24.50
  -6  -6   1  473.05   24.70
   6   6  -1  489.85   24.50
   6   6  -1  480.85   24.70
  -6  -6   0   23.10    3.00
  -6  -6   0   25.00    3.00
   6   6   0   28.30    3.30
   6   6   0   24.70    3.10
  -6  -6  -1  565.04   29.10
   6   6   1  596.74   29.20
   6   6   1  584.34   29.70
  -6  -6  -2   38.00    3.50
   6   6   2   40.80    3.40
   6   6   2   36.70    4.60
  -6  -6  -3   37.40    3.60
   6   6   3   36.60    3.50
   6   6   3   46.80    5.40
  -6  -6  -4   34.20    3.90
   6   6   4   51.29    5.80
   6   6   4   33.20    3.70
   6   6   5   22.00    4.80
   6   6   6    5.30    4.30
   7   5  -8   17.00    4.70
   7   5  -7    5.40    3.50
   7   5  -7   11.30    3.60
   7   5  -7   18.00    5.80
   7   5  -6  204.18   12.10
   7   5  -6  218.68   12.10
   7   5  -6  235.78   13.90
   7   5  -5   64.89    6.70
   7   5  -4   84.19    6.70
   7   5  -3   75.49    6.20
  -7  -5   2  497.75   24.60
  -7  -5   2  489.35   25.50
   7   5  -2  496.75   25.40
   7   5  -2  482.75   24.60
  -7  -5   1   23.60    3.30
  -7  -5   1   23.80    2.80
   7   5  -1   32.80    4.00
   7   5  -1   26.30    3.10
  -7  -5   0   68.09    5.10
  -7  -5   0   73.39    5.20
   7   5   0   78.69    5.30
   7   5   0   71.49    5.30
  -7  -5  -1   65.19    4.90
  -7  -5  -1   68.09    5.30
   7   5   1   70.09    5.60
   7   5   1   74.29    5.10
  -7  -5  -2  572.24   29.10
   7   5   2  572.64   29.10
   7   5   2  576.04   29.80
  -7  -5  -3    0.10    2.00
   7   5   3    0.40    1.90
   7   5   3   -1.80    3.00
  -7  -5  -4  129.59    8.50
   7   5   4  140.29    9.90
   7   5   4  138.89    8.30
  -7  -5  -5   27.40    4.10
   7   5   5   31.20    5.60
   7   5   5   29.60    3.90
   8   4  -7   40.80    6.80
   8   4  -6  129.79   10.00
   8   4  -5   63.69    6.80
   8   4  -4  140.79    9.40
  -8  -4   3   64.49    5.90
   8   4  -3   72.49    6.10
  -8  -4   2   65.29    4.40
  -8  -4   2   70.19    5.80
   8   4  -2   68.89    5.70
   8   4  -2   67.29    4.50
  -8  -4   1   47.30    4.50
  -8  -4   1   45.20    3.60
   8   4  -1   52.19    4.50
   8   4  -1   42.20    3.70
  -8  -4   0   37.00    3.70
  -8  -4   0   33.10    4.00
   8   4   0   38.90    4.10
   8   4   0   34.70    3.80
  -8  -4  -1   38.60    4.30
  -8  -4  -1   38.50    4.10
   8   4   1   39.70    4.20
   8   4   1   43.70    4.50
  -8  -4  -2  114.79    7.60
   8   4   2  121.99    8.30
   8   4   2  120.99    7.80
  -8  -4  -3   76.99    6.40
   8   4   3   80.79    6.10
   8   4   3   75.79    7.00
  -8  -4  -4  126.29    8.70
   8   4   4  135.49    9.90
   8   4   5   58.19    5.60
   8   4   5   68.29    7.40
   9   3  -7   16.90    5.90
   9   3  -6    6.00    4.90
   9   3  -5   56.79    6.60
   9   3  -4   57.29    6.20
  -9  -3   3  227.38   13.20
  -9  -3   2   18.20    3.40
   9   3  -2   23.20    3.80
  -9  -3   1   24.20    3.00
  -9  -3   1   21.40    4.10
   9   3  -1   25.30    3.00
   9   3  -1   24.40    3.80
  -9  -3   0    6.90    2.30
   9   3   0    9.90    3.10
   9   3   0    9.90    2.70
  -9  -3  -1  336.67   18.00
  -9  -3  -1  327.47   18.80
   9   3   1  338.77   18.00
   9   3   1  326.97   18.10
  -9  -3  -2   10.30    3.10
   9   3   2   14.50    3.40
   9   3   2   17.20    3.80
   9   3   3   49.99    6.20
   9   3   3   51.49    5.30
   9   3   4    1.40    2.70
   9   3   5   67.69    6.40
   9   3   5   62.79    7.30
  10   2  -8   11.70    8.20
  10   2  -7   38.60    6.90
  10   2  -6   66.49    7.70
  10   2  -5   61.69    7.10
  10   2  -4   13.60    4.10
  10   2  -3  179.38   11.10
 -10  -2   2   26.40    4.70
  10   2  -2   33.60    4.80
 -10  -2   1  115.59    8.20
 -10  -2   1  119.89    7.30
  10   2  -1  123.99    7.30
 -10  -2   0   25.50    4.20
 -10  -2   0   29.80    3.80
  10   2   0   27.40    4.60
  10   2   0   26.00    3.60
  10   2   1   57.79    5.90
  10   2   1   62.69    5.80
  10   2   2   99.69    7.70
  10   2   2  104.99    7.90
  10   2   3    5.80    3.30
  10   2   3   10.40    3.60
  10   2   4   22.80    4.50
  10   2   4   17.50    4.30
  11   1  -8   11.40    6.70
  11   1  -7   33.80    6.70
  11   1  -6   79.79    8.50
  11   1  -5   72.89    7.70
  11   1  -4  265.87   15.70
  11   1  -3  134.29    9.40
  11   1  -2  114.59    8.30
 -11  -1   1  310.87   16.50
  11   1  -1  310.67   16.40
  11   1  -1  307.17   17.40
 -11  -1   0    2.20    2.50
  11   1   0    3.10    3.10
  11   1   1  177.68   11.30
  11   1   1  167.48   10.70
  11   1   2  102.79    8.00
  11   1   2  106.49    8.30
  11   1   3   17.60    4.20
  11   1   3   17.10    4.20
  11   1   4   34.20    5.70
  12   0  -8    9.80    6.90
  12   0  -7   24.10    6.60
  12   0  -6   70.19    8.50
  12   0  -5    8.50    4.80
  12   0  -4   33.30    5.70
  12   0  -3   10.90    3.90
  12   0  -2   44.20    5.90
  12   0  -1    5.00    3.40
  12   0   0    7.50    3.70
  12   0   1    2.10    3.40
  12   0   1    4.00    2.70
  12   0   2  478.25   26.20
 -12   0  -3    0.40    3.60
  12   0   3    5.10    3.90
  13  -1  -7   26.00    8.40
  13  -1  -6  161.98   12.20
  13  -1  -5   29.90    6.10
  13  -1  -4   19.80    5.20
  13  -1  -3   86.89    8.00
  13  -1  -2   17.70    4.90
 -13   1   1   10.80    3.10
 -13   1   1   12.00    3.10
  13  -1  -1   11.30    4.10
 -13   1   0   30.20    4.70
  13  -1   0   32.40    5.70
 -13   1  -1   28.30    5.50
  13  -1   1   37.40    6.00
 -13   1  -2  104.49    9.40
  13  -1   2   82.49    8.40
  14  -2  -7   21.90    6.90
  14  -2  -5   50.49    7.60
  14  -2  -4   17.30    5.10
  14  -2  -3   24.90    5.60
  14  -2  -2   83.69    8.10
 -14   2   1    5.10    3.00
  14  -2  -1    6.10    4.20
 -14   2   0   52.99    6.40
  14  -2   0   56.59    7.50
 -14   2  -1   33.10    5.90
  15  -3  -6   33.00    7.20
  15  -3  -5  101.99    9.80
  15  -3  -3   29.80    7.00
 -15   3   2   -0.50    3.20
  15  -3  -2    8.50    5.50
 -15   3   1   23.80    4.30
  15  -3  -1   32.40    9.60
 -15   3   0   28.30    5.10
  15  -3   0   27.50    5.90
  16  -4  -5   12.90    5.70
  16  -4  -4   55.19    8.20
  16  -4  -3    8.40    5.00
  16  -4  -2   64.79    8.10
 -16   4   1    8.70    3.80
  16  -4  -1    5.70    4.80
   7 -21   0    3.60    5.10
  -7  21   0   -0.90    4.10
   7 -21  -1   69.19    9.00
  -7  21   1   61.09    7.90
   7 -21  -2    1.70    4.70
  -7  21   2   -0.90    4.70
   6 -20   2   11.70    5.50
  -6  20  -2    6.50    4.40
   6 -20   1   36.40    7.90
  -6  20  -1   35.10    6.00
   6 -20   0    0.10    4.40
  -6  20   0    2.60    7.50
   6 -20  -1   89.59    8.90
  -6  20   1   67.19    7.80
   6 -20  -2   70.99    7.90
  -6  20   2   59.89    7.40
   6 -20  -3    7.60    4.80
  -6  20   3    2.90    4.20
   6 -20  -4   22.30    5.80
  -6  20   4   18.00    5.80
  -6  20   4   14.40    7.60
   5 -19   3    2.80    5.00
  -5  19  -3   -0.10    4.00
   5 -19   2   75.49   13.50
  -5  19  -2   59.59    7.30
   5 -19   1   34.90    6.20
  -5  19  -1   36.30    6.30
   5 -19   0  395.56   20.80
  -5  19   0  320.77   20.00
   5 -19  -1   10.40    4.60
  -5  19   1   12.20    4.40
   5 -19  -2  219.38   13.00
  -5  19   2  181.08   12.70
  -5  19   3   -0.80    3.80
  -5  19   3   -0.10    5.10
  -5  19   4    1.40    4.30
  -5  19   5   -0.30    5.20
   4 -18   4    3.00    5.00
  -4  18  -4   -1.50    3.90
   4 -18   3   20.60    5.90
  -4  18  -3   11.70    4.40
   4 -18   2    2.90    4.10
  -4  18  -2   -0.50    3.30
   4 -18   1  101.49    8.80
  -4  18  -1   96.89    8.20
   4 -18   0   56.49    6.80
  -4  18   0   57.09    6.40
   4 -18  -1  254.67   14.80
  -4  18   1  236.48   14.70
   4 -18  -2    7.60    4.40
  -4  18   2    8.20    4.50
  -4  18   2    8.00    4.00
   4 -18  -3  156.28    9.50
  -4  18   3  120.49    9.70
  -4  18   3  148.19   10.20
  -4  18   4   32.90    6.10
  -4  18   5    9.80    5.20
   3 -17   4    4.50    4.50
  -3  17  -4   -1.40    3.60
   3 -17   3  160.48   11.50
  -3  17  -3  146.99   10.80
   3 -17   2   36.10    6.00
  -3  17  -2   30.40    5.10
   3 -17   1   50.69    6.50
  -3  17  -1   65.39    7.00
   3 -17   0   15.90    4.30
  -3  17   0   10.70    3.70
   3 -17  -1   49.70    5.90
  -3  17   1   54.69    6.20
  -3  17   1   47.00    5.70
   3 -17  -2   97.19    7.00
  -3  17   2   93.09    7.50
  -3  17   2   79.89    7.20
  -3  17   3    0.30    3.40
  -3  17   4   12.70    4.30
  -3  17   5   -0.50    4.40
  -3  17   6    2.50    8.80
   2 -16   5    1.50    4.90
  -2  16  -5    3.50    4.00
   2 -16   4   45.80    7.20
  -2  16  -4   45.10    6.30
   2 -16   3   54.49    7.00
  -2  16  -3   56.09    6.50
   2 -16   2   10.90    3.90
  -2  16  -2    6.80    3.30
   2 -16   1   40.30    5.80
  -2  16  -1   38.30    5.30
   2 -16   0   -1.20    3.00
  -2  16   0   -2.30    2.90
  -2  16   0   -0.80    2.80
   2 -16  -1  220.08   12.20
  -2  16   1  199.48   12.50
  -2  16   1  207.28   12.20
   2 -16  -2   34.20    4.40
  -2  16   2   34.10    4.30
  -2  16   2   35.20    5.10
  -2  16   3   54.89    6.00
  -2  16   4   36.40    5.50
  -2  16   5   45.90    6.60
   1 -15   6   19.10    6.40
  -1  15  -6   15.30    5.10
   1 -15   5    4.40    5.30
   1 -15   4   -0.90    3.90
  -1  15  -4    2.60    3.40
   1 -15   3   58.79    6.80
  -1  15  -3   59.49    6.30
   1 -15   2  102.39    8.20
  -1  15  -2   99.09    7.50
   1 -15   1   95.29    7.70
  -1  15  -1   90.89    7.10
  -1  15  -1   87.79    7.00
   1 -15   0  478.35   25.10
  -1  15   0  468.15   25.30
  -1  15   0  497.85   25.20
   1 -15  -1  133.49    8.70
  -1  15   1  151.18    9.40
  -1  15   1  149.29    8.80
  -1  15   2  543.75   28.40
  -1  15   3   15.70    3.90
  -1  15   4    4.40    3.90
  -1  15   5    4.00    4.00
   0 -14   6   27.50    6.80
   0  14  -6   27.00    5.70
   0 -14   5    1.80    4.80
   0  14  -5    6.20    3.80
   0 -14   4    0.40    3.90
   0  14  -4    1.50    3.10
   0 -14   3    2.90    3.60
   0  14  -3    5.60    3.10
   0 -14   2  714.13   35.90
   0  14  -2  679.23   35.70
   0 -14   1   38.40    4.80
   0  14  -1   38.40    4.60
   0  14  -1   38.40    4.80
   0 -14   0  136.89    8.30
   0  14   0  132.19    8.20
   0  14   0  128.79    8.50
   0 -14  -1   29.70    3.50
   0  14   1   29.30    3.40
   0  14   1   34.00    4.20
   0  14   2  653.33   33.60
   0  14   3    0.50    2.90
   0  14   4    1.20    3.50
   0  14   5    3.40    3.70
  -1 -13   7   11.30    6.70
   1  13  -7   17.60    5.20
  -1 -13   6   -2.20    9.30
   1  13  -6   -0.80    4.00
  -1 -13   5    0.00    4.40
   1  13  -5    2.40    3.40
  -1 -13   4    4.30    4.10
   1  13  -4   -0.10    2.80
  -1 -13   3   85.09    7.40
   1  13  -3   87.49    6.90
  -1 -13   2  330.67   18.40
   1  13  -2  308.57   17.40
   1  13  -2  324.87   17.80
  -1 -13   1  478.75   27.60
  -1 -13   1  554.44   27.70
   1  13  -1  575.84   28.10
   1  13  -1  538.25   27.60
  -1 -13   0  152.18    9.70
  -1 -13   0  169.18    9.60
   1  13   0  175.48    9.50
   1  13   0  166.18   10.80
  -1 -13  -1  101.29    8.10
   1  13   1  117.09    7.50
   1  13   2    2.10    2.80
   1  13   3  151.08    9.90
   1  13   4    3.20    3.30
   1  13   5   15.00    4.40
   1  13   6   -1.70    4.80
  -2 -12   7   20.40    7.30
   2  12  -7   51.79   11.60
  -2 -12   6   43.30    7.10
   2  12  -6   31.00    5.30
  -2 -12   5   54.79    7.30
   2  12  -5   57.59    6.30
  -2 -12   4   78.69    7.60
   2  12  -4   89.59    7.00
  -2 -12   3  202.78   12.20
   2  12  -3  195.38   11.60
  -2 -12   2   48.10    5.20
  -2 -12   2   47.40    4.70
   2  12  -2   66.09    5.80
   2  12  -2   38.50    5.50
  -2 -12   1  190.98   11.50
  -2 -12   1  206.08   11.50
   2  12  -1  206.98   11.60
   2  12  -1  213.18   11.50
  -2 -12   0    2.60    2.30
  -2 -12   0    3.50    2.20
   2  12   0    1.30    2.00
   2  12   0    1.60    1.60
  -2 -12  -1    8.50    2.50
   2  12   1    9.70    5.50
   2  12   2   46.50    4.90
   2  12   3   48.30    5.90
   2  12   4    2.70    3.30
   2  12   5   27.10    5.10
   2  12   6    4.60    4.60
   3  11  -7    6.70    4.30
   3  11  -7    3.20    7.00
  -3 -11   6  170.68   12.50
   3  11  -6  160.18   11.00
  -3 -11   5   15.90    4.80
   3  11  -5   20.70    3.80
  -3 -11   4    5.20    3.60
   3  11  -4    4.40    2.90
  -3 -11   3  147.09    9.30
   3  11  -3  138.99    9.70
   3  11  -3  162.68    9.20
  -3 -11   2    4.50    2.60
  -3 -11   2    7.50    3.10
   3  11  -2    4.30    2.50
   3  11  -2   10.70    2.70
  -3 -11   1  116.09    9.60
   3  11  -1  118.89    7.40
   3  11  -1  117.09    7.30
  -3 -11   0  110.69    7.00
   3  11   0  107.99    6.60
   3  11   0  100.59    7.00
   3  11   0  111.29    6.50
  -3 -11  -1   55.69    5.00
   3  11   1   77.69    5.80
   3  11   2    3.40    2.50
   3  11   3  122.79    8.50
   3  11   4    5.90    3.50
   3  11   5   37.30    5.60
   3  11   6    4.30    4.20
   4  10  -7    4.00    4.10
   4  10  -6   77.69    9.50
   4  10  -6   73.99    7.10
   4  10  -5   16.90    5.20
   4  10  -5   15.00    3.60
  -4 -10   4   22.10    3.90
   4  10  -4   22.40    3.70
   4  10  -4   15.60    4.80
  -4 -10   3   50.99    4.90
   4  10  -3   55.59    5.80
   4  10  -3   52.09    5.70
   4  10  -3   62.39    4.90
  -4 -10   2  238.28   13.70
   4  10  -2  254.17   14.20
   4  10  -2  266.57   13.90
   4  10  -2  259.47   14.40
  -4 -10   1  688.03   35.90
   4  10  -1  743.43   36.00
   4  10  -1  690.03   35.90
   4  10  -1  732.53   35.90
  -4 -10   0   18.70    3.60
   4  10   0   19.90    2.70
   4  10   0   20.80    3.20
   4  10   0   21.40    2.80
  -4 -10  -1  337.57   17.70
   4  10   1  326.27   17.70
   4  10   2  179.68   10.80
   4  10   3    5.60    3.10
   4  10   4  178.18   11.60
   4  10   5    7.80    3.90
   4  10   6   36.40    6.40
   5   9  -8   21.10    5.40
   5   9  -8   16.80    8.00
   5   9  -7   11.50    6.70
   5   9  -7   10.50    4.10
   5   9  -6   72.69    9.10
   5   9  -6   79.29    6.80
  -5  -9   5   11.20    3.70
   5   9  -5   12.40    4.90
  -5  -9   4   26.50    4.10
   5   9  -4   30.10    5.40
   5   9  -4   38.20    4.10
  -5  -9   3    2.10    2.10
   5   9  -3    1.00    3.00
   5   9  -3    4.80    3.00
   5   9  -3    6.30    2.20
  -5  -9   2  753.02   39.10
   5   9  -2  785.02   39.60
   5   9  -2  804.92   39.60
   5   9  -2  786.92   39.20
  -5  -9   1  531.85   27.50
   5   9  -1  551.74   27.60
   5   9  -1  544.55   27.50
   5   9  -1  538.35   27.50
  -5  -9   0  624.24   32.20
   5   9   0  657.33   31.90
   5   9   0  646.94   32.30
   5   9   0  618.94   31.80
  -5  -9  -1   58.29    4.90
   5   9   1   63.79    5.30
   5   9   2  474.65   25.00
   5   9   3   66.89    6.20
   5   9   4   46.10    5.80
   5   9   5    3.90    3.60
   5   9   6    9.90    4.70
   6   8  -8    3.00    6.80
   6   8  -8    6.10    4.50
   6   8  -7    0.30    5.30
   6   8  -7    7.70    4.00
   6   8  -6   38.40    6.60
   6   8  -6   31.10    4.80
  -6  -8   5   85.09    6.90
   6   8  -5   96.59    8.30
   6   8  -5   93.19    6.60
  -6  -8   4   81.59    6.00
   6   8  -4   81.39    5.70
   6   8  -4   77.39    7.10
  -6  -8   3   69.89    5.40
   6   8  -3   81.69    5.30
   6   8  -3   69.19    6.40
   6   8  -3   90.79    6.60
  -6  -8   2   55.89    4.40
   6   8  -2   56.09    4.40
   6   8  -2   55.69    5.20
   6   8  -2   61.19    5.20
  -6  -8   1  305.47   16.20
  -6  -8   1  294.27   15.80
   6   8  -1  304.57   15.80
   6   8  -1  297.77   15.90
  -6  -8   0    0.60    1.90
  -6  -8   0    1.70    1.80
   6   8   0    0.90    1.90
   6   8   0    1.70    2.20
  -6  -8  -1   95.39    6.40
  -6  -8  -1   86.29    5.80
   6   8   1   99.09    6.80
   6   8   1   95.89    5.90
   6   8   2   42.80    5.10
   6   8   3  181.68   11.50
   6   8   4   14.20    4.20
   6   8   5   66.09    8.10
   7   7  -8    8.40    6.80
   7   7  -8    7.10    4.40
   7   7  -7    8.50    4.10
   7   7  -7   19.60    6.30
   7   7  -7   22.50    4.50
   7   7  -6   14.60    5.10
   7   7  -6   23.80    3.70
   7   7  -6   13.80    3.60
   7   7  -5  199.48   11.30
   7   7  -5  207.08   12.90
  -7  -7   4  108.19    6.70
   7   7  -4   95.89    7.90
   7   7  -4  102.39    6.50
  -7  -7   3  347.17   17.70
   7   7  -3  326.17   18.50
   7   7  -3  352.16   18.70
   7   7  -3  344.07   17.60
  -7  -7   2   33.50    3.30
   7   7  -2   33.60    4.40
   7   7  -2   28.80    3.20
  -7  -7   1   17.30    3.10
  -7  -7   1   17.00    2.60
   7   7  -1   16.60    2.70
   7   7  -1   21.20    3.30
  -7  -7   0   29.00    3.60
  -7  -7   0   37.20    4.10
   7   7   0   37.00    4.00
   7   7   0   30.80    3.70
  -7  -7  -1   28.40    3.50
  -7  -7  -1   34.20    4.20
   7   7   1   38.30    3.60
  -7  -7  -2  338.07   18.00
   7   7   2  352.36   19.10
   7   7   2  354.56   18.10
   7   7   3   43.40    5.70
   7   7   4    5.00    3.90
   7   7   5   35.10    5.90
   8   6  -8   -1.00    4.00
   8   6  -8    3.10    6.30
   8   6  -7    6.50    4.10
   8   6  -7   13.80    5.90
   8   6  -7   13.40    3.90
   8   6  -6   65.59    7.90
   8   6  -5  106.79    8.60
   8   6  -4  163.28   10.70
  -8  -6   3  269.77   16.10
   8   6  -3  311.37   16.40
   8   6  -3  281.97   14.80
  -8  -6   2    1.70    1.80
   8   6  -2    1.50    1.80
   8   6  -2    1.50    2.50
  -8  -6   1  148.89    8.40
  -8  -6   1  142.69    9.00
   8   6  -1  146.39    8.60
   8   6  -1  143.09    8.80
  -8  -6   0   59.99    5.30
   8   6   0   81.89    5.60
   8   6   0   73.49    5.40
  -8  -6  -1  103.09    7.10
  -8  -6  -1  123.09    8.70
   8   6   1  117.09    7.30
   8   6   1  108.79    7.70
  -8  -6  -2   21.20    3.40
   8   6   2   22.80    3.50
   8   6   2   26.90    4.40
  -8  -6  -3    2.20    2.60
   8   6   3    0.10    2.30
   8   6   3    8.80    3.60
   8   6   4  106.99    8.80
   8   6   4  100.89    6.80
  -8  -6  -5   71.29    6.50
   8   6   5   97.89    8.60
   8   6   5   76.39    6.60
   9   5  -8   26.40    7.40
   9   5  -7    5.70    5.60
   9   5  -6   21.40    5.50
   9   5  -5   19.40    4.70
   9   5  -4  136.79    9.50
  -9  -5   3   68.39    6.50
   9   5  -3   71.99    6.70
  -9  -5   2    8.80    3.00
   9   5  -2   10.30    3.30
   9   5  -2   12.60    2.10
  -9  -5   1   54.09    4.40
   9   5  -1   54.79    4.50
   9   5  -1   58.99    5.20
  -9  -5   0  613.34   30.30
  -9  -5   0  548.95   30.70
   9   5   0  603.04   30.40
   9   5   0  601.74   30.30
  -9  -5  -1   92.99    7.30
   9   5   1  107.39    7.30
   9   5   1  100.39    7.10
  -9  -5  -2  245.78   14.70
   9   5   2  256.97   14.30
   9   5   2  260.67   14.90
  -9  -5  -3    9.40    3.10
   9   5   3   11.00    3.90
   9   5   3   10.60    3.10
   9   5   4  132.39    8.80
   9   5   4  140.19   10.60
  10   4  -8    6.80    6.50
  10   4  -7   16.50    6.20
  10   4  -6   31.80    6.30
  10   4  -5   34.20    5.60
  10   4  -4   25.60    5.20
  10   4  -3   13.00    3.80
 -10  -4   2   60.19    4.50
 -10  -4   2   64.39    6.50
  10   4  -2   61.69    4.60
  10   4  -2   70.49    6.10
 -10  -4   1   69.49    5.10
 -10  -4   1   61.99    5.90
  10   4  -1   70.99    5.20
 -10  -4   0   90.39    7.30
 -10  -4   0  101.49    7.00
  10   4   0  105.29    8.10
  10   4   0  108.49    7.20
 -10  -4  -1  144.99    9.50
  10   4   1  157.88    9.90
  10   4   2  582.04   30.70
  10   4   2  586.44   30.40
  10   4   3  114.39    8.10
  10   4   3  106.99    8.90
  10   4   4    6.70    3.80
  10   4   4    6.20    3.20
  11   3  -8    6.20    6.10
  11   3  -7   24.60    6.20
  11   3  -6  103.19    9.40
  11   3  -5   15.90    5.30
  11   3  -4   34.80    5.60
  11   3  -3   45.40    5.90
 -11  -3   2   31.50    3.50
  11   3  -2   38.80    5.10
  11   3  -2   30.80    3.50
 -11  -3   1  124.79    7.50
  11   3  -1  121.69    7.50
  11   3  -1  103.99    8.30
 -11  -3   0    7.10    3.20
  11   3   0    7.30    3.20
  11   3   0   11.20    2.90
  11   3   1   42.90    5.70
  11   3   1   39.90    5.20
  11   3   2    2.50    3.10
  11   3   2    1.30    2.90
  11   3   3   99.49   12.10
  11   3   3   76.69    7.00
  12   2  -8   11.50    6.90
  12   2  -7   97.49   14.60
  12   2  -6   18.80    5.70
  12   2  -5   55.89    7.40
  12   2  -4   20.30    5.10
  12   2  -3  143.89   10.10
 -12  -2   2   38.80    3.90
  12   2  -2   37.40    3.70
  12   2  -2   45.40    5.80
 -12  -2   1    4.00    2.60
  12   2  -1    8.60    3.90
  12   2  -1    6.80    2.40
  12   2   0  108.99    8.30
  12   2   0  101.29    7.40
  12   2   1   12.20    4.20
  12   2   1   10.10    3.30
  12   2   2    0.00    3.00
  12   2   2   -0.30    3.00
  12   2   3   54.49    6.50
  12   2   3   57.69    6.60
  13   1  -7   44.40    8.10
  13   1  -6  117.19   10.80
  13   1  -5   43.50    6.70
  13   1  -4   12.00    4.80
  13   1  -3  117.69    9.30
  13   1  -2   19.90    4.80
 -13  -1   1    9.90    3.10
  13   1  -1    9.90    4.20
  13   1   0   31.60    5.40
  13   1   0   33.30    4.40
  13   1   1   42.90    6.60
  13   1   1   45.60    5.50
  13   1   2   79.59    7.90
  13   1   2   86.29    7.60
  14   0  -7   11.10    6.40
  14   0  -5   17.60    5.50
  14   0  -4   18.40    5.40
  14   0  -3    0.20    4.10
 -14   0   2   97.49    7.00
  14   0  -2  101.59    8.80
 -14   0   1    1.60    2.70
  14   0  -1    0.10    3.70
 -14   0   0   71.59    6.70
  14   0   0   57.79    7.40
 -14   0  -1    0.40    3.50
  14   0   1    2.30    3.90
  15  -1  -7    9.30    6.40
  15  -1  -6   12.30    6.00
  15  -1  -5   24.10    6.60
  15  -1  -4   18.10    7.10
  15  -1  -3    8.70    5.20
 -15   1   2  103.39    7.30
  15  -1  -2  103.59    9.30
 -15   1   1  158.48   10.30
  15  -1  -1  141.89   11.30
 -15   1   0   32.00    5.30
  16  -2  -6   23.90    7.00
  16  -2  -5    4.30    5.40
  16  -2  -4    7.10    5.20
  16  -2  -3    8.50    5.40
  16  -2  -2   23.50    5.70
 -16   2   1  137.29    9.70
  16  -2  -1  134.29   11.00
  17  -3  -4    6.30    5.80
  17  -3  -3   33.00    7.00
  -5  21  -1   57.79    7.50
   5 -21   0    0.70    4.40
  -5  21   0   -0.90    4.20
   5 -21  -1   34.20    6.10
  -5  21   1   33.80    7.50
   5 -21  -2    8.30    4.50
   5 -21  -3   -1.30    4.00
  -5  21   3    8.20    7.40
   4 -20   3   46.00    7.90
  -4  20  -3   34.50    6.00
  -4  20  -2   24.30    5.30
   4 -20   1   30.20    6.10
  -4  20  -1   20.80    6.00
   4 -20   0  230.28   14.30
  -4  20   0  211.18   14.10
   4 -20  -1  171.68   11.30
  -4  20   1  150.18   11.20
   4 -20  -2   16.20    4.60
  -4  20   2   10.50    4.40
   4 -20  -3    9.80    3.80
  -4  20   3    4.00    4.30
  -4  20   4   54.49   12.90
  -3  19  -4   30.00    5.60
   3 -19   3   -0.80    4.30
  -3  19  -3   -1.90    3.60
   3 -19   2  280.07   16.60
  -3  19  -2  242.18   17.80
   3 -19   1    5.60    4.00
  -3  19  -1   10.00    4.10
   3 -19   0  149.99   10.70
  -3  19   0  147.99   10.60
   3 -19  -1    8.20    3.90
  -3  19   1    4.90    3.60
   3 -19  -2  103.09    7.40
  -3  19   2   78.19    8.70
  -3  19   2   83.79    7.90
  -3  19   3    3.10    3.90
  -3  19   4    0.50    4.20
  -3  19   5    3.00    5.20
   2 -18   4   -1.40    4.40
  -2  18  -4    0.40    3.70
   2 -18   3   52.79    7.40
  -2  18  -3   40.70    6.30
   2 -18   2  260.37   15.40
  -2  18  -2  229.88   14.80
   2 -18   1  135.89    9.30
  -2  18  -1  109.39    9.00
   2 -18   0    9.80    3.70
  -2  18   0    6.50    3.80
   2 -18  -1  233.98   13.10
  -2  18   1  209.98   13.10
  -2  18   1  220.38   13.50
   2 -18  -2  181.48   10.50
  -2  18   2  171.18   10.90
  -2  18   2  179.18   11.60
  -2  18   3   76.39    7.30
  -2  18   4   -4.40    3.70
   1 -17   5   30.10    7.00
  -1  17  -5   27.90    5.50
   1 -17   4   21.30    6.40
  -1  17  -4   25.40    6.30
   1 -17   3   79.59    7.70
  -1  17  -3   60.99    6.80
   1 -17   2   12.50    4.30
  -1  17  -2   10.10    3.80
   1 -17   1   21.00    4.40
  -1  17  -1   15.80    4.10
   1 -17   0  104.29    7.70
  -1  17   0  100.69    7.60
  -1  17   0   98.69    7.80
   1 -17  -1   37.20    4.80
  -1  17   1   45.60    5.30
  -1  17   1   47.60    5.20
  -1  17   2   31.90    4.90
  -1  17   3    8.20    4.10
  -1  17   4    7.90    4.10
  -1  17   5   48.00    7.30
   0  16  -6   31.00    6.00
   0 -16   5   10.00    5.50
   0  16  -5    3.60    6.70
   0 -16   4   10.10    4.90
   0  16  -4   14.70    4.20
   0 -16   3   83.49    7.90
   0  16  -3   75.79    7.00
   0 -16   2    1.70    3.30
   0  16  -2    4.10    3.30
   0 -16   1  250.97   13.90
   0  16  -1  218.18   13.20
   0  16  -1  208.18   13.20
   0 -16   0  196.78   11.30
   0  16   0  184.68   11.80
   0  16   0  197.38   11.30
   0 -16  -1  207.48   11.60
   0  16   1  210.48   11.50
   0  16   1  201.98   12.40
   0  16   2    0.70    2.90
   0  16   3   75.19    7.10
   0  16   4    6.10    3.90
   0  16   5    1.70    4.60
  -1 -15   6    3.70    5.60
   1  15  -6    3.00    4.50
  -1 -15   5    1.10    4.60
   1  15  -5    2.40    3.80
  -1 -15   4   11.80    4.90
   1  15  -4    9.70    3.90
  -1 -15   3   24.10    5.00
   1  15  -3   20.20    4.10
  -1 -15   2  615.34   30.90
   1  15  -2  564.74   30.70
  -1 -15   1  167.78   10.00
   1  15  -1  153.38   10.00
   1  15  -1  154.38    9.80
  -1 -15   0  466.85   24.20
   1  15   0  447.76   24.70
   1  15   0  489.75   24.20
   1  15   1   77.19    6.40
   1  15   2   92.79    7.40
   1  15   3   48.00    5.90
   1  15   4    0.90    3.40
   1  15   5    4.70    4.10
   1  15   6    8.60    5.00
  -2 -14   6   70.59    9.60
   2  14  -6   91.89    8.40
  -2 -14   5    2.40    4.60
   2  14  -5    0.20    3.70
  -2 -14   4   58.89    7.00
   2  14  -4   57.09    6.20
  -2 -14   3   14.20    4.20
   2  14  -3   11.10    3.50
   2  14  -2   58.49    5.90
   2  14  -2   67.79    5.80
  -2 -14   1    7.20    3.00
   2  14  -1    5.50    2.50
   2  14  -1    8.70    3.10
  -2 -14   0  167.98    9.70
   2  14   0  158.88   10.00
   2  14   0  170.58    9.50
   2  14   1   34.00    4.50
   2  14   2   57.89    5.80
   2  14   3   33.80    5.20
   2  14   4   65.69    7.00
   2  14   5   10.30    4.60
   2  14   6    5.40    4.70
   3  13  -7    6.10    8.40
   3  13  -7    0.60    7.40
  -3 -13   6   31.30    7.40
   3  13  -6   58.89    6.90
  -3 -13   5  205.38   14.50
   3  13  -5  237.58   13.70
  -3 -13   4  113.29    9.30
   3  13  -4  118.89    8.40
  -3 -13   3  100.49    8.20
   3  13  -3  109.99    7.60
  -3 -13   2   92.59    7.10
   3  13  -2   88.89    6.90
   3  13  -2   93.59    6.80
  -3 -13   1   69.39    6.30
   3  13  -1  104.29    6.70
   3  13  -1   87.79    6.10
   3  13   0   72.59    5.80
   3  13   0   70.19    4.90
   3  13   0   71.89    5.40
   3  13   1  130.89    8.60
   3  13   2   -0.50    2.60
   3  13   3  136.39    9.60
   3  13   4    1.00    3.30
   3  13   5    9.20    5.40
   3  13   6   45.10    7.00
   4  12  -7   21.00    5.40
   4  12  -7   15.50    8.50
   4  12  -6   31.40    5.10
   4  12  -6   35.40    7.90
   4  12  -5  269.97   15.00
   4  12  -5  237.98   16.50
   4  12  -4    4.10    3.00
   4  12  -4    0.10    3.90
  -4 -12   3   11.80    3.40
   4  12  -3   11.40    4.20
   4  12  -3   16.40    3.90
  -4 -12   2    8.20    2.70
   4  12  -2    8.30    3.30
   4  12  -2   10.40    2.80
  -4 -12   1    2.20    2.50
   4  12  -1    2.70    2.20
   4  12  -1    4.50    2.60
   4  12  -1    4.20    2.40
  -4 -12   0   45.10    4.60
   4  12   0   49.70    4.10
   4  12   0   63.39    5.70
   4  12   0   55.99    4.50
   4  12   1   33.70    4.50
   4  12   2   47.00    5.90
   4  12   3  125.59    9.10
   4  12   4    9.10    3.70
   4  12   5   13.90    8.00
   5  11  -7   39.90    5.80
   5  11  -7   18.50    8.20
   5  11  -6    0.90    5.90
   5  11  -6    7.80    4.00
   5  11  -5  134.19   11.10
   5  11  -5  137.99    9.20
  -5 -11   4   10.90    3.50
   5  11  -4   22.50    5.50
   5  11  -4   13.10    4.80
  -5 -11   3   93.19    6.90
   5  11  -3   95.39   10.90
   5  11  -3  104.99    6.80
   5  11  -3   97.39    7.70
  -5 -11   2  209.68   12.70
   5  11  -2  232.28   12.50
   5  11  -2  207.68   13.30
   5  11  -2  235.38   13.00
  -5 -11   1  297.07   16.60
   5  11  -1  312.77   16.60
   5  11  -1  308.47   16.70
   5  11  -1  327.57   16.70
  -5 -11   0  240.98   14.00
   5  11   0  266.67   13.70
   5  11   0  256.67   13.60
   5  11   0  260.97   15.00
   5  11   1   38.80    4.70
   5  11   2    9.80    3.30
   5  11   3   89.79    7.50
   5  11   4   12.30    4.30
   5  11   5   43.10    6.30
   6  10  -8    2.70    7.10
   6  10  -8    9.50    5.00
   6  10  -7   27.20    5.30
   6  10  -6   30.90    4.90
   6  10  -6   13.60    5.90
  -6 -10   5   30.60    4.90
   6  10  -5   26.80    5.60
  -6 -10   4   28.20    5.00
   6  10  -4   26.10    5.10
   6  10  -4   33.70    4.10
  -6 -10   3  141.99    8.80
   6  10  -3  156.78    8.70
   6  10  -3  129.89    9.50
  -6 -10   2  129.39    8.10
   6  10  -2  136.49    8.10
   6  10  -2  132.89    8.90
   6  10  -2  129.19    8.60
  -6 -10   1    7.80    4.10
   6  10  -1    9.60    2.70
   6  10  -1   10.90    2.70
   6  10  -1   12.70    3.00
  -6 -10   0  564.74   29.20
   6  10   0  542.55   28.70
   6  10   0  588.24   28.90
   6  10   0  590.84   29.40
   6  10   1  196.88   11.60
   6  10   2  352.66   19.40
   6  10   3   38.90    5.30
   6  10   4  212.38   13.50
   6  10   5   -2.00    3.80
   7   9  -8   20.00    5.40
   7   9  -8    6.60    7.10
   7   9  -7   25.10    4.80
   7   9  -7   16.90    7.20
   7   9  -6   47.20    6.80
   7   9  -6   29.40    6.50
  -7  -9   5    8.50    5.30
   7   9  -5    1.20    4.40
   7   9  -5    7.80    2.90
  -7  -9   4  346.67   19.20
   7   9  -4  370.46   20.10
   7   9  -4  370.66   19.10
  -7  -9   3   11.70    2.80
   7   9  -3   15.10    2.80
   7   9  -3    6.20    3.40
  -7  -9   2  120.79    7.70
   7   9  -2  124.69    8.30
   7   9  -2  129.59    7.70
  -7  -9   1  376.06   19.60
  -7  -9   1  344.17   19.20
   7   9  -1  375.46   19.30
   7   9  -1  370.16   19.20
  -7  -9   0  425.56   22.90
  -7  -9   0  450.45   22.90
   7   9   0  445.96   23.10
   7   9   0  445.76   22.70
  -7  -9  -1   16.80    3.00
   7   9   1   20.40    3.00
   7   9   1   17.30    3.50
   7   9   2   37.80    5.10
   7   9   3   47.50    6.00
   7   9   4   50.09    6.30
   7   9   5   13.90    4.70
   8   8  -8   17.80    5.00
   8   8  -8    9.20    6.90
   8   8  -7    8.20    6.30
   8   8  -7    0.00    5.40
   8   8  -7    1.50    4.00
   8   8  -6   21.70    5.50
   8   8  -6   17.60    3.50
  -8  -8   5   65.69    6.10
   8   8  -5   69.09    7.70
   8   8  -5   75.19    5.60
  -8  -8   4    9.30    2.70
   8   8  -4    7.20    3.70
   8   8  -4    7.60    2.30
  -8  -8   3   58.39    4.80
   8   8  -3   56.79    4.50
  -8  -8   2    4.50    2.90
  -8  -8   2    3.90    2.10
   8   8  -2    3.60    2.90
   8   8  -2    2.80    2.20
  -8  -8   1   90.69    6.60
  -8  -8   1   85.99    6.20
   8   8  -1   96.39    6.40
   8   8  -1   97.79    6.70
  -8  -8   0    4.80    2.50
  -8  -8   0    2.20    2.10
   8   8   0    3.00    2.40
   8   8   0    7.90    2.60
  -8  -8  -1  163.18   10.10
   8   8   1  184.68   10.10
   8   8   1  179.48   10.80
  -8  -8  -2  157.78    9.50
   8   8   2  174.18   10.70
   8   8   2  161.88    9.40
   8   8   3  248.58   14.90
   8   8   5   13.50    4.80
   9   7  -8   14.70    7.30
   9   7  -7   27.60    6.70
   9   7  -6   33.10    6.00
   9   7  -5  136.89   10.30
   9   7  -4   21.30    4.60
  -9  -7   3   31.90    3.60
   9   7  -3   24.60    3.10
   9   7  -3   37.10    5.30
  -9  -7   2   18.10    3.80
  -9  -7   2   32.70    3.70
   9   7  -2   36.30    3.70
   9   7  -2   28.30    4.20
  -9  -7   1    9.60    3.60
  -9  -7   1   12.00    2.70
   9   7  -1   14.10    2.90
   9   7  -1   17.20    3.50
  -9  -7   0  274.17   15.40
  -9  -7   0  273.27   15.40
   9   7   0  299.57   15.50
  -9  -7  -1   20.00    3.70
   9   7   1   22.80    3.80
   9   7   1   21.20    4.00
  -9  -7  -2    3.40    2.60
   9   7   2    3.10    3.20
   9   7   2    4.40    2.50
  -9  -7  -3   74.79    7.20
   9   7   3   80.49    5.80
   9   7   3   76.69    7.50
  -9  -7  -4   53.99    6.50
   9   7   4   61.69    5.10
   9   7   4   67.49    7.40
  10   6  -8    4.80    6.60
  10   6  -7   22.30    6.80
  10   6  -6   46.90    7.20
  10   6  -5   55.79    7.20
  10   6  -4   41.80    6.10
  10   6  -3  227.38   12.20
  10   6  -3  235.18   13.80
 -10  -6   2    1.70    2.10
  10   6  -2    6.40    3.10
  10   6  -2    1.90    2.00
 -10  -6   1   51.19    6.90
 -10  -6   1   40.30    5.00
  10   6  -1   44.10    4.50
  10   6  -1   28.10    4.70
 -10  -6   0   40.50    5.30
 -10  -6   0   51.79    6.00
  10   6   0   52.89    5.50
  10   6   0   51.19    5.10
 -10  -6  -1   88.29    7.10
  10   6   1  104.89    7.60
  10   6   1  102.89    7.30
 -10  -6  -2    2.20    3.00
  10   6   2    2.00    3.00
  10   6   2    6.40    3.60
 -10  -6  -3  112.29    9.50
  10   6   3  135.89    9.10
  10   6   3  145.59   10.00
  10   6   4   85.79    6.90
  10   6   4   99.49    8.80
  11   5  -8    0.70    6.40
  11   5  -7   94.89   14.70
  11   5  -6    4.90    5.10
  11   5  -5    1.80    4.30
  11   5  -4   22.40    4.80
  11   5  -3    5.60    3.90
 -11  -5   2  680.73   33.70
  11   5  -2  668.43   33.70
  11   5  -2  657.13   34.60
 -11  -5   1   79.39    6.10
  11   5  -1   85.59    6.20
  11   5  -1   87.29    7.00
  11   5   0  166.38   10.60
  11   5   0  177.48   11.00
  11   5   1   77.69    6.80
  11   5   1   77.29    7.00
  11   5   2  259.77   15.50
  11   5   2  283.27   16.10
  11   5   3    4.30    4.20
  11   5   3    7.40    3.30
  12   4  -8   21.10    7.30
  12   4  -7   11.10    6.40
  12   4  -6   67.29    8.20
  12   4  -5   14.00    5.10
  12   4  -4   28.10    5.90
  12   4  -3  100.09    8.30
 -12  -4   2  169.18    9.90
  12   4  -2  174.48   11.30
  12   4  -2  174.88    9.90
 -12  -4   1  304.67   16.70
  12   4  -1  315.07   16.70
  12   4  -1  303.77   17.40
  12   4   0  133.99    9.40
  12   4   0  127.49    8.80
  12   4   1   77.09    6.90
  12   4   1   79.59    7.30
  12   4   2   41.70    5.80
  12   4   2   35.20    5.30
  12   4   3   46.10    6.20
  12   4   3   44.00    5.80
  13   3  -7   14.00    6.40
  13   3  -6   27.70    6.40
  13   3  -5   21.40    6.20
  13   3  -4   40.80    6.20
  13   3  -3  172.08   11.70
 -13  -3   2    6.70    2.70
  13   3  -2    6.10    2.20
  13   3  -2    6.70    3.80
 -13  -3   1  102.19    7.80
  13   3  -1  118.49    8.90
  13   3  -1  111.39    7.50
  13   3   0  100.69    7.50
  13   3   0   98.09    8.30
  13   3   1   68.79    6.60
  13   3   1   68.69    7.30
  13   3   2    1.60    3.50
  14   2  -7   33.20    8.00
  14   2  -6   10.10    7.00
  14   2  -5   69.59    8.40
  14   2  -4   14.70    5.10
  14   2  -3   33.10    5.80
 -14  -2   2  114.29    7.80
  14   2  -2  111.19    9.10
  14   2  -1    8.10    2.70
  14   2  -1    6.50    4.30
  14   2   0   50.19    6.80
  14   2   0   40.90    5.10
  14   2   1   38.30    6.30
  14   2   1   28.20    4.80
  15   1  -7    8.10    6.80
  15   1  -6   14.80    6.40
  15   1  -5   25.70    6.40
  15   1  -4   18.00    5.70
  15   1  -3    6.70    4.70
 -15  -1   2  114.99    7.50
 -15  -1   2   94.69    7.60
  15   1  -2  104.79    9.30
 -15  -1   1  181.48   11.40
  15   1  -1  171.28   12.30
 -15  -1   0   24.90    4.90
  15   1   0   24.40    5.70
 -15  -1  -1   57.59    7.90
  16   0  -6   18.50    6.60
  16   0  -5    4.00    5.40
  16   0  -4    6.60    5.10
  16   0  -3   -1.30    4.60
  16   0  -2  127.29   10.60
 -16   0   1    5.10    3.50
  16   0  -1    3.60    4.50
  17  -1  -4   25.10    6.50
  17  -1  -3   28.90    6.70
  -4  22  -1   41.60    6.80
   4 -22   0   16.90    5.40
  -4  22   0   15.40    4.90
   4 -22  -1    6.60    4.80
  -4  22   1    7.90    4.60
   4 -22  -2   27.00    5.50
  -4  22   2   25.70    5.60
  -3  21  -2    3.90    4.20
   3 -21   1   32.70    6.50
  -3  21  -1   21.20    5.40
   3 -21   0   50.89    7.00
  -3  21   0   49.50    8.10
   3 -21  -1   16.70    4.80
   3 -21  -2    6.30    7.60
  -3  21   2    9.30    5.30
  -3  21   3   16.50    5.10
   2 -20   3   64.09    8.50
  -2  20  -3   59.69    7.40
   2 -20   2   53.89    7.60
  -2  20  -2   45.30    6.60
   2 -20   1   74.39    7.70
  -2  20  -1   74.09    7.60
   2 -20   0   -1.60    3.50
  -2  20   0    1.30    3.90
   2 -20  -1   40.70    5.50
  -2  20   1   24.10    5.00
  -2  20   1   37.60    7.00
   2 -20  -2   41.80    5.20
  -2  20   2   53.99    6.80
  -2  20   2   49.50    6.30
  -2  20   3    8.70    4.80
  -2  20   4   -0.60    4.50
   1 -19   4   76.29    9.10
  -1  19  -4   73.59    7.90
   1 -19   3   -4.00    3.90
  -1  19  -3    2.90    6.10
   1 -19   2  102.39    8.60
  -1  19  -2   93.69    8.40
   1 -19   1    0.20    3.50
  -1  19  -1   -3.50    3.40
   1 -19   0   41.90    5.60
  -1  19   0   45.10    6.20
   1 -19  -1   -0.90    2.90
  -1  19   1    0.30    3.10
  -1  19   2   59.69    6.80
  -1  19   3   -0.10    3.50
  -1  19   3    0.20    0.20
  -1  19   4   26.50    8.90
   0 -18   5   36.60    7.50
   0  18  -5   32.70    6.00
   0 -18   4   22.30   10.50
   0  18  -4    8.20    6.50
   0 -18   3   26.00    5.40
   0  18  -3   21.90    4.70
   0 -18   2    2.50    3.80
   0  18  -2    5.00    3.70
   0 -18   1   96.99    7.80
   0  18  -1   91.59    7.90
   0 -18   0   84.19    6.90
   0  18   0   76.49    7.10
   0  18   0   76.99    6.70
   0 -18  -1   90.39    6.50
   0  18   1   85.39    6.60
   0  18   1   85.99    7.40
   0  18   3   31.50    5.30
   0  18   4    5.60    5.60
   0  18   5   30.30    6.20
  -1 -17   5   83.59    9.20
   1  17  -5   71.39    8.20
  -1 -17   4   10.70    4.80
   1  17  -4    5.00    3.70
  -1 -17   3    6.50    4.50
   1  17  -3    8.90    3.80
  -1 -17   2   29.70    5.20
   1  17  -2   30.80    4.90
  -1 -17   1   51.49    6.10
   1  17  -1   45.80    5.70
   1  17  -1   48.90    6.20
  -1 -17   0  101.99    7.10
   1  17   0   93.19    7.60
   1  17   0   95.29    6.90
   1  17   1   22.40    4.50
   1  17   2    6.50    3.40
   1  17   3   60.59    6.70
   1  17   4   11.80    4.70
   1  17   5   30.40    6.10
  -2 -16   6   10.70    6.20
   2  16  -6   21.20    5.30
  -2 -16   5   50.79    8.80
   2  16  -5   56.39    7.00
  -2 -16   4   33.10    6.10
   2  16  -4   29.30    5.00
  -2 -16   3   71.99    7.30
   2  16  -3   87.39    7.30
  -2 -16   2   47.40    6.10
   2  16  -2   42.00    5.30
  -2 -16   1  201.18   11.90
   2  16  -1  207.38   12.40
   2  16  -1  197.08   11.80
   2  16   0    0.90    2.10
   2  16   0    1.70    2.60
   2  16   1   36.30    5.30
   2  16   2   10.70    3.70
   2  16   3   39.30    5.60
   2  16   4   49.00    6.50
   2  16   5    4.00    4.30
  -3 -15   6   36.20    7.60
   3  15  -6   25.40    5.70
  -3 -15   5   64.39    8.60
   3  15  -5   79.99    7.60
  -3 -15   4  220.58   14.40
   3  15  -4  225.78   13.60
  -3 -15   3    9.30    4.20
   3  15  -3    9.70    3.60
  -3 -15   2  575.84   29.30
   3  15  -2  538.25   29.10
   3  15  -1   47.50    5.30
   3  15   0    2.20    2.80
   3  15   0    4.00    2.20
   3  15   0    9.20    3.00
   3  15   1   14.00    3.60
   3  15   2   15.00    4.10
   3  15   3   25.10    5.00
   3  15   4   38.50    6.10
   3  15   5   12.20    5.20
   4  14  -7   -1.70    7.80
   4  14  -6   66.99    7.50
   4  14  -5    3.90    5.50
   4  14  -5    1.90    3.60
   4  14  -4    9.00    3.70
   4  14  -3   -0.70    2.80
   4  14  -3   -0.70    3.70
   4  14  -2  125.39    8.30
   4  14  -2  128.39   10.30
   4  14  -2  112.59    8.30
   4  14  -1  136.79    8.70
   4  14  -1  122.99    8.40
   4  14  -1  123.29    8.10
   4  14   0   29.40    3.60
   4  14   0   32.20    4.00
   4  14   0   41.90    5.00
   4  14   1   11.10    3.60
   4  14   2  365.86   20.20
   4  14   3   42.30    6.00
   4  14   4  122.29    9.60
   4  14   5   -2.10    4.10
   5  13  -7   14.30    7.90
   5  13  -7    6.20    5.00
   5  13  -6   56.79    9.40
   5  13  -6   69.09    7.30
   5  13  -5   28.40    4.80
   5  13  -5   26.40    7.00
   5  13  -4   90.09    9.10
   5  13  -4   93.79    7.40
   5  13  -3   12.70    4.60
   5  13  -3   13.10    3.40
   5  13  -2   13.50    3.30
   5  13  -2   16.50    3.80
   5  13  -2   18.80    4.30
   5  13  -1  115.99    7.40
   5  13  -1  100.99    7.00
   5  13  -1   92.39    7.20
   5  13   0   20.80    3.70
   5  13   0   14.50    2.90
   5  13   0   16.60    2.80
   5  13   1   43.90    5.20
   5  13   2    3.30    3.20
   5  13   3  214.08   13.40
   5  13   4  104.49    8.90
   5  13   5   16.20    4.60
   6  12  -7   19.00    5.40
   6  12  -7   19.60    7.60
   6  12  -6   -0.60    5.80
   6  12  -6    7.60    4.20
   6  12  -5    8.90    3.80
   6  12  -5    6.70    5.50
  -6 -12   4    2.10    4.80
   6  12  -4    4.60    3.20
   6  12  -4    1.80    3.90
   6  12  -3   58.69    6.50
   6  12  -3   52.19    7.50
  -6 -12   2   27.80    4.20
   6  12  -2   26.90    4.30
   6  12  -2   33.30    4.70
  -6 -12   1   23.30    3.80
   6  12  -1   23.70    3.90
   6  12  -1   28.10    4.10
   6  12  -1   24.60    3.80
   6  12   0   32.20    3.90
   6  12   0   40.60    4.80
   6  12   0   32.50    3.80
   6  12   1    7.90    3.50
   6  12   2   26.00    4.70
   6  12   3   97.59    8.10
   6  12   5   32.70    6.00
   7  11  -7   15.40    7.20
   7  11  -7   15.90    4.90
   7  11  -6   10.10    3.90
   7  11  -6   -3.10    5.10
  -7 -11   5   42.60    5.70
   7  11  -5   42.50    5.40
   7  11  -5   57.49    7.50
  -7 -11   4   41.90    5.40
   7  11  -4   50.19    5.10
   7  11  -4   62.89    7.70
  -7 -11   3   34.40    4.20
   7  11  -3   46.90    4.70
   7  11  -3   31.00    5.00
  -7 -11   2    1.50    2.40
   7  11  -2    2.00    2.50
   7  11  -2    3.20    3.00
   7  11  -2    1.80    3.00
  -7 -11   1   11.70    2.80
   7  11  -1    8.80    2.80
   7  11  -1   11.60    3.10
   7  11   0   18.40    3.20
   7  11   0   12.40    2.90
   7  11   0   15.00    3.60
   7  11   1  189.08   11.60
   7  11   2  109.39    8.30
   7  11   3  133.29   10.00
   7  11   4  178.68   12.30
   7  11   5   17.90    5.10
   8  10  -7   18.30    4.60
   8  10  -7   13.40    6.80
  -8 -10   6    5.50    2.80
   8  10  -6   14.80    5.80
   8  10  -6   12.80    4.70
  -8 -10   5   17.90    4.80
   8  10  -5   23.40    5.30
  -8 -10   4   74.29    6.80
   8  10  -4   80.39    6.00
   8  10  -4   83.99    7.80
  -8 -10   3    2.40    2.70
   8  10  -3    7.00    2.60
   8  10  -3    2.30    3.30
  -8 -10   2  274.37   16.60
   8  10  -2  287.37   16.80
   8  10  -2  325.57   17.00
   8  10  -2  331.97   16.50
  -8 -10   1    5.70    2.90
  -8 -10   1    4.80    2.70
   8  10  -1    4.70    3.00
   8  10  -1    5.90    2.90
  -8 -10   0  246.88   14.00
   8  10   0  246.08   14.20
   8  10   0  259.67   13.80
  -8 -10  -1   16.30    3.30
   8  10   1   17.90    3.80
   8  10   1   22.80    3.40
   8  10   2  243.68   14.50
   8  10   3   25.30    4.90
   8  10   4   87.79    8.60
   9   9  -8    5.80    4.50
   9   9  -8    4.70    7.20
   9   9  -7   -1.00    6.50
   9   9  -7    4.40    4.20
   9   9  -6   98.79    7.50
   9   9  -6  117.59   10.00
  -9  -9   5   53.79    5.70
   9   9  -5   49.99    5.00
   9   9  -5   71.59    7.60
  -9  -9   4   55.29    5.40
   9   9  -4   61.69    5.20
   9   9  -4   73.99    7.20
  -9  -9   3   76.89    6.20
   9   9  -3   91.09    7.40
   9   9  -3   83.59    5.80
  -9  -9   2  138.89   10.70
  -9  -9   2  148.19   10.00
   9   9  -2  157.98    9.10
  -9  -9   1  260.67   14.90
  -9  -9   1  268.77   14.50
   9   9  -1  252.67   14.60
   9   9  -1  266.77   14.60
  -9  -9   0  170.38   10.50
   9   9   0  178.28   10.40
   9   9   0  172.08   10.70
  -9  -9  -1   16.20    3.50
   9   9   1   12.90    3.10
   9   9   1   13.60    3.50
  -9  -9  -2  146.19    9.30
   9   9   2  167.68   10.50
   9   9   2  148.09    9.10
   9   9   3   42.50    6.10
   9   9   4  102.99    9.20
  10   8  -8    2.30    6.80
  10   8  -7   13.20    6.70
  10   8  -6   10.10    5.60
  10   8  -5   66.49    7.90
  10   8  -4   25.00    5.50
 -10  -8   3   44.40    4.60
  10   8  -3   56.49    6.20
  10   8  -3   45.70    4.40
 -10  -8   2   21.10    3.70
  10   8  -2   28.70    4.70
  10   8  -2   17.50    3.20
 -10  -8   1  346.77   18.00
 -10  -8   1  309.67   18.30
  10   8  -1  348.37   18.70
 -10  -8   0   44.80    5.30
  10   8   0   39.20    5.00
  10   8   0   39.10    5.00
 -10  -8  -1   37.30    5.00
  10   8   1   45.00    5.40
  10   8   1   36.20    4.80
 -10  -8  -2   18.40    4.60
  10   8   2   25.70    4.90
  10   8   2   22.00    3.80
 -10  -8  -3   48.60    6.10
  10   8   3   60.29    5.20
  10   8   4    4.80    4.20
  11   7  -8    7.10    7.30
  11   7  -7   20.60    6.80
  11   7  -6    1.80    5.30
  11   7  -5   38.50    6.20
  11   7  -4    7.50    4.30
 -11  -7   3   62.39    5.30
  11   7  -3   67.49    7.00
  11   7  -3   68.09    5.00
 -11  -7   2   46.80    4.80
  11   7  -2   53.09    6.10
  11   7  -2   56.69    4.90
 -11  -7   1   21.70    3.60
  11   7  -1   20.60    4.20
  11   7   0   75.59    6.60
  11   7   0   74.89    6.80
  11   7   1  106.99    7.90
  11   7   1  105.59    8.20
  11   7   2    2.20    3.50
  11   7   2    1.70    2.70
  11   7   3   42.70    5.20
  11   7   3   50.09    6.60
  12   6  -7   30.40    7.00
  12   6  -6    6.90    5.40
  12   6  -5    8.70    5.10
  12   6  -4    2.70    4.30
  12   6  -3   68.19    7.10
 -12  -6   2   11.80    3.60
  12   6  -2    9.90    2.70
  12   6  -2   15.90    4.30
 -12  -6   1  168.18   10.80
  12   6  -1  148.19    9.40
  12   6  -1  141.49   10.10
  12   6   0  129.89    9.30
  12   6   0  131.59    9.10
  12   6   1  211.38   12.90
  12   6   1  207.48   13.10
  12   6   2   19.70    4.60
  12   6   2   28.00    4.80
  12   6   3   84.19    7.30
  12   6   3   91.19    8.70
  13   5  -7   12.50    6.30
  13   5  -6   25.70   10.90
  13   5  -5    0.10    5.10
  13   5  -4  158.48   11.40
  13   5  -3   23.00    5.50
 -13  -5   2  234.08   15.60
  13   5  -2  216.68   12.50
  13   5  -2  228.28   13.90
  13   5  -1  120.99    9.40
  13   5  -1  126.29    8.40
  13   5   0  264.17   15.20
  13   5   0  263.27   15.70
  13   5   1    8.20    3.60
  13   5   1    6.10    4.00
  13   5   2   60.39    6.60
  13   5   2   50.89    6.60
  14   4  -7    8.20    6.50
  14   4  -6   30.50    7.20
  14   4  -5   50.49    7.50
  14   4  -4    1.10    4.60
  14   4  -3   17.90    5.00
 -14  -4   2  103.69    7.60
  14   4  -2  117.99    9.10
  14   4  -2  102.39    7.10
  14   4  -1   55.69    5.50
  14   4  -1   50.49    6.70
  14   4   0    4.70    3.10
  14   4   0    7.00    4.10
  14   4   1  110.59    8.70
  14   4   1  113.09    9.30
  15   3  -6   41.30    7.80
  15   3  -5   89.99    9.60
  15   3  -4    4.10    4.80
  15   3  -3   21.30    5.30
 -15  -3   2   11.70    3.90
  15   3  -2   14.90    5.00
  15   3  -1   17.00    3.50
  15   3  -1   21.00    5.20
  15   3   0   24.20    5.30
  15   3   0   17.40    3.80
  16   2  -6   16.20    6.60
  16   2  -5    9.70    5.50
  16   2  -4    7.80    5.20
  16   2  -3   19.30    5.80
 -16  -2   2   21.00    4.20
 -16  -2   2    4.00    6.80
  16   2  -2   24.70    6.40
 -16  -2   1  154.88   10.50
  16   2  -1  146.19   11.40
  17   1  -4   27.50    6.80
  17   1  -3   34.80    6.90
   3 -23   0   42.80    6.80
  -3  23   0   34.40    6.60
   3 -23  -1    1.60    3.90
  -3  23   1   -0.70    3.90
   2 -22   2    0.90    5.00
  -2  22  -2    1.30    4.20
   2 -22   1   16.10    5.20
  -2  22  -1   20.00    5.30
   2 -22   0    4.20    4.10
  -2  22   0    7.40    4.50
   2 -22  -1   62.29    6.70
  -2  22   1   61.69    7.30
  -2  22   2   13.80    5.00
  -2  22   3   21.80    5.70
   1 -21   3   53.79    8.00
  -1  21  -3   52.09    7.10
   1 -21   2    1.20    4.10
  -1  21  -2   -0.40    3.70
   1 -21   1    3.80    4.20
  -1  21  -1    2.00    4.30
   1 -21   0   -1.20    3.50
  -1  21   1    0.00    4.30
  -1  21   2   -0.10    4.10
  -1  21   3    3.50    4.30
   0 -20   4   91.69    9.90
   0  20  -4   89.99    8.90
   0 -20   3   35.90    6.80
   0  20  -3   37.10    6.10
   0 -20   2    0.50    4.10
   0  20  -2    2.40    6.80
   0 -20   1   17.90    4.70
   0  20  -1   11.40    4.50
   0 -20   0   40.10    5.90
   0  20   0   49.60    6.70
   0 -20  -1    7.90    3.50
   0  20   1   12.10    4.20
   0  20   1   10.40    4.50
   0  20   2    4.30    3.90
   0  20   3   17.30    5.10
   0  20   4   89.09    9.20
   1  19  -5    2.90    4.40
  -1 -19   4   33.40    8.20
   1  19  -4   41.10    6.40
  -1 -19   3    1.10    4.10
   1  19  -3    3.00    3.90
  -1 -19   2   65.19    7.20
   1  19  -2   67.89    7.20
  -1 -19   1    1.50    3.50
   1  19  -1    0.50    3.60
  -1 -19   0   55.29    6.20
   1  19   0   48.10    5.60
   1  19   0   43.70    6.00
   1  19   1    5.80    3.50
   1  19   2   82.89    7.50
   1  19   4   65.19    8.20
  -2 -18   5    2.10    5.40
   2  18  -5    0.40    4.20
  -2 -18   4    5.20    4.60
   2  18  -4    1.80    4.00
  -2 -18   3   78.59    8.00
   2  18  -3   85.49    7.80
  -2 -18   2  183.58   11.60
   2  18  -2  170.38   11.60
  -2 -18   1  224.38   13.00
   2  18  -1  205.38   13.20
   2  18   0    7.90    3.80
   2  18   0    8.30    3.00
   2  18   1  121.69    9.00
   2  18   2  207.68   13.10
   2  18   3   38.00    6.10
   2  18   4    2.80    4.10
  -3 -17   6   12.20    6.50
   3  17  -6   23.30    5.30
  -3 -17   5   -2.60    6.60
   3  17  -5    8.60    4.80
  -3 -17   4   13.10    4.90
   3  17  -4   11.90    4.50
  -3 -17   3    5.40    4.10
   3  17  -3    6.10    3.80
  -3 -17   2   85.89    7.50
   3  17  -2   77.79    7.20
   3  17  -1   44.70    6.10
   3  17  -1   46.00    5.60
   3  17  -1   42.30    5.10
   3  17   0   10.80    3.70
   3  17   0   12.60    2.90
   3  17   0   12.90    3.70
   3  17   1   64.19    7.20
   3  17   2   35.10    5.70
   3  17   3  130.59    9.90
   3  17   4    2.80    4.50
   4  16  -6   28.40    8.90
   4  16  -6   12.60    6.10
   4  16  -5   76.69    7.60
   4  16  -5   53.79    9.20
   4  16  -4   46.90    5.90
   4  16  -4   38.10    7.30
   4  16  -3  175.38   12.40
   4  16  -3  169.78   11.20
   4  16  -2    5.00    3.40
   4  16  -2    3.00    4.10
   4  16  -1   27.60    4.30
   4  16  -1   30.00    4.50
   4  16  -1   39.70    5.40
   4  16   0   33.00    4.40
   4  16   0   31.20    3.90
   4  16   0   41.40    5.50
   4  16   1   -1.40    2.90
   4  16   2   66.19    7.60
   4  16   3   40.40    6.30
   4  16   4   41.80    6.50
   5  15  -6  103.49    9.10
   5  15  -6  111.49   12.30
   5  15  -5   -3.90    3.80
   5  15  -5    1.40    5.80
   5  15  -4  193.08   12.50
   5  15  -4  216.88   14.50
   5  15  -3   -1.50    4.00
   5  15  -3    1.00    3.00
   5  15  -2   27.80    4.40
   5  15  -2   34.70    5.70
   5  15  -1    3.70    3.00
   5  15  -1    1.70    3.40
   5  15   0    0.50    2.00
   5  15   0    2.40    2.30
   5  15   0    1.30    2.90
   5  15   1   44.00    5.60
   5  15   2   68.59    6.90
   5  15   3  140.39   10.40
   5  15   4  107.39    9.40
   6  14  -7    0.90    4.80
   6  14  -7    3.40    7.40
   6  14  -6    2.10    4.40
   6  14  -5    5.50    4.00
   6  14  -5    0.80    5.40
   6  14  -4   17.50    4.40
   6  14  -4   14.10    5.10
   6  14  -3   63.99    7.20
   6  14  -3   55.49    5.90
   6  14  -2   88.79    7.00
   6  14  -2   82.69    7.20
   6  14  -2  105.79   12.00
   6  14  -1    4.10    3.00
   6  14  -1   -0.50    2.80
   6  14  -1    2.30    3.00
   6  14   0  149.59    9.00
   6  14   0  146.39   10.00
   6  14   0  165.28    9.10
   6  14   1   17.00    4.10
   6  14   2  205.38   12.90
   6  14   3   17.80    4.70
   6  14   4  123.79   10.10
   7  13  -7   10.80    7.50
   7  13  -7    4.90    4.80
   7  13  -6   68.99    7.30
   7  13  -6   58.09   10.10
   7  13  -5   14.20    4.30
   7  13  -5   17.30    6.00
   7  13  -4   10.80    3.70
   7  13  -4   11.40    4.90
   7  13  -3   65.69    6.90
   7  13  -3   69.19    6.20
   7  13  -2    6.70    3.00
   7  13  -2    4.00    3.40
   7  13  -1  449.86   23.90
   7  13  -1  428.66   24.20
   7  13  -1  477.85   23.70
   7  13   0    5.60    2.70
   7  13   0    6.50    3.20
   7  13   0    5.70    2.70
   7  13   1   92.89    7.60
   7  13   2   91.19    7.90
   7  13   3   62.59    7.00
   7  13   4    1.80    4.10
   8  12  -7    0.00    6.60
   8  12  -7    4.40    4.70
   8  12  -6    2.00    3.80
   8  12  -6   -0.70    5.70
   8  12  -5   80.99    8.60
   8  12  -5   79.99    6.90
  -8 -12   4    8.50    3.90
   8  12  -4    5.90    3.30
   8  12  -4    5.90    4.30
  -8 -12   3   -1.00    3.20
   8  12  -3    0.10    3.10
   8  12  -3    0.80    3.40
   8  12  -2    7.50    3.50
   8  12  -2   13.20    3.20
   8  12  -2   10.50    6.50
   8  12  -1  279.17   15.70
   8  12  -1  283.97   15.50
   8  12   0   21.10    3.70
   8  12   0   21.10    4.30
   8  12   0   31.50    4.00
   8  12   1   14.80    3.90
   8  12   2    4.90    3.60
   8  12   4   16.70    4.80
   9  11  -7   12.50    6.80
   9  11  -7   13.50    4.40
   9  11  -6   38.40    7.60
   9  11  -6   32.20    4.80
  -9 -11   5   23.30    4.90
   9  11  -5   22.40    5.10
   9  11  -5   37.50    4.90
  -9 -11   4    5.10    3.50
   9  11  -4   11.70    3.30
   9  11  -4   10.20    5.00
  -9 -11   3   37.50    4.90
   9  11  -3   50.09    5.00
   9  11  -3   53.09    6.50
  -9 -11   2    7.80    3.40
   9  11  -2   14.00    4.30
   9  11  -2    9.60    3.30
  -9 -11   1  314.07   18.10
   9  11  -1  334.07   17.80
   9  11  -1  325.57   17.70
  -9 -11   0    2.00    3.10
   9  11   0   -0.40    3.00
   9  11   0    2.70    2.70
  -9 -11  -1  123.49    8.40
   9  11   1  125.29    9.10
   9  11   1  131.39    8.10
   9  11   2   74.29    7.50
   9  11   3   80.99    7.90
   9  11   4    0.50    3.80
  10  10  -7   12.50    6.70
  10  10  -7   12.70    7.10
 -10 -10   6    9.80    6.10
  10  10  -6    9.50    5.90
  10  10  -6   12.30    3.70
 -10 -10   5    8.90    4.40
  10  10  -5   21.00    5.80
  10  10  -5   13.40    3.40
 -10 -10   4   53.79    6.30
  10  10  -4   61.79    5.40
  10  10  -4   70.89    7.70
 -10 -10   3   20.50    4.30
  10  10  -3   39.10    5.70
  10  10  -3   25.20    3.60
 -10 -10   2   79.79    6.60
  10  10  -2   89.79    7.30
 -10 -10   1   13.70    4.10
  10  10  -1   15.80    3.50
 -10 -10   0  528.35   28.00
  10  10   0  528.05   28.20
  10  10   0  549.15   27.80
 -10 -10  -1    4.90    6.80
  10  10   1    9.80    4.20
  10  10   1   10.10    3.20
 -10 -10  -2  108.69    8.20
  10  10   2  125.49    7.80
  10  10   2  131.39    9.40
  10  10   3    7.30    4.30
  11   9  -7    7.10    6.50
  11   9  -6   11.30    6.20
  11   9  -5   46.20    6.90
 -11  -9   4   17.00    3.80
  11   9  -4   24.60    5.40
  11   9  -4   16.30    3.00
 -11  -9   3   21.00    5.40
  11   9  -3   16.90    4.70
  11   9  -3   15.70    3.20
 -11  -9   2   15.90    3.70
  11   9  -2   18.40    4.40
  11   9  -2   19.20    4.00
  11   9  -1    2.20    3.70
  11   9  -1    3.50    3.30
  11   9   0  309.97   16.50
  11   9   0  263.87   16.00
 -11  -9  -1    4.90    3.80
  11   9   1    8.30    3.70
 -11  -9  -2   53.99    6.40
  11   9   2   60.39    7.10
  11   9   2   53.39    6.30
  11   9   3   28.10    4.70
  11   9   3   33.60    5.90
  12   8  -7    3.50    6.40
  12   8  -6    7.30    9.40
  12   8  -5   44.60    7.30
  12   8  -4    4.90    4.50
 -12  -8   3   24.30    4.00
  12   8  -3   30.40    5.50
  12   8  -3   26.00    3.50
 -12  -8   2  278.37   16.00
  12   8  -2  303.37   16.60
  12   8  -2  294.27   16.90
  12   8  -1   67.39    6.20
  12   8  -1   67.49    6.80
  12   8   0   23.00    4.60
  12   8   0   20.00    4.30
  12   8   1  118.89    9.00
  12   8   1  113.29    8.50
  12   8   2    3.50    4.90
  12   8   2    3.60    3.10
  13   7  -7    9.00    6.40
  13   7  -6   17.40    6.40
  13   7  -5    6.00    5.40
  13   7  -4  103.09    9.50
 -13  -7   3    4.30    3.20
  13   7  -3    2.40    2.50
  13   7  -3    3.30    4.20
 -13  -7   2   18.40    3.90
  13   7  -2   21.10    4.60
  13   7  -1  147.49   10.20
  13   7  -1  144.39    9.60
  13   7   0   36.50    4.90
  13   7   0   29.10    4.90
  13   7   1   16.70    4.30
  13   7   1   22.70    4.60
  13   7   2   59.99    7.20
  13   7   2   57.39    6.30
  14   6  -7    6.40    6.80
  14   6  -6   12.10    6.30
  14   6  -5   29.40    8.10
  14   6  -4    2.10    4.90
  14   6  -3   73.99    8.00
 -14  -6   2   58.39    6.40
  14   6  -2   71.79    6.30
  14   6  -2   61.69    7.30
  14   6  -1  223.68   12.90
  14   6  -1  206.58   13.70
  14   6   0   38.20    6.10
  14   6   0   42.70    5.50
  14   6   1   48.30    6.60
  14   6   1   53.29    6.50
  15   5  -6   80.29   10.10
  15   5  -5   23.40    6.70
  15   5  -4   57.49    9.30
  15   5  -3   62.09    7.80
  15   5  -2   36.70    4.60
  15   5  -2   48.90    6.90
  15   5  -1   -5.10    3.70
  15   5  -1   -1.60    2.70
  15   5   0   64.99    7.60
  15   5   0   64.59    6.60
  16   4  -5   11.80    6.00
  16   4  -4   54.09    7.80
  16   4  -3    4.60    4.80
  16   4  -2   43.00    4.60
  16   4  -2   54.99    8.70
  16   4  -1    4.70    2.90
  16   4  -1    6.90    5.20
  17   3  -4   -0.70    5.00
  17   3  -3   27.90    6.50
   1 -23   1   47.70    7.50
  -1  23  -1   39.50    7.00
   1 -23   0    3.60    4.20
  -1  23   0    7.10    4.40
   1 -23  -1   50.29    6.40
  -1  23   1   73.89    7.90
   0 -22   2    5.90    4.70
   0  22  -2    5.40    4.80
   0 -22   1   53.59    7.40
   0  22  -1   54.89    7.40
   0 -22   0   99.89    8.00
   0  22   0   98.89    8.60
   0 -22  -1   57.79    7.00
   0  22   1   46.30    6.60
   0  22   1   42.40    6.70
   0  22   2    7.40    4.50
  -1 -21   3    5.40    5.10
   1  21  -3    5.80    4.40
  -1 -21   2    1.00    3.90
   1  21  -2    4.90    5.70
  -1 -21   1    4.60    3.60
   1  21  -1    7.10    4.70
  -1 -21   0   -3.90    3.30
   1  21   0    2.30    6.30
   1  21   1    6.50    4.30
   1  21   2    1.60    3.80
   1  21   3   56.39    7.70
  -2 -20   4    2.60    4.90
   2  20  -4    9.90    4.80
  -2 -20   3   11.40    4.80
   2  20  -3   12.80    5.10
  -2 -20   2   53.79    7.10
   2  20  -2   64.29    7.70
  -2 -20   1   43.50    6.20
   2  20  -1   48.70    6.50
   2  20   0   -1.60    3.50
   2  20   0   -1.00    2.90
   2  20   0   -3.00    3.50
   2  20   1   75.89    7.60
   2  20   2   46.10    7.00
   2  20   3   42.70    6.40
  -3 -19   5   14.80    6.40
   3  19  -5    9.70    4.90
  -3 -19   4    1.90    5.40
   3  19  -4   12.90    7.50
  -3 -19   3    0.20    4.30
   3  19  -3    3.70    4.30
   3  19  -2  107.59    8.90
   3  19  -1    8.10    4.50
   3  19  -1    5.20    3.70
   3  19   0  154.48    9.90
   3  19   0  136.49   10.20
   3  19   1    3.60    3.50
   3  19   3   -2.30    3.80
   4  18  -5    3.70    7.30
   4  18  -5    4.10    7.10
   4  18  -4   39.90    7.90
   4  18  -4   38.60    6.00
   4  18  -3  117.09    9.50
   4  18  -3  139.09   11.30
   4  18  -2    6.10    3.80
   4  18  -2    4.40    4.80
   4  18  -1  189.88   12.10
   4  18  -1  223.58   13.00
   4  18   0   54.49    5.50
   4  18   0   46.30    4.80
   4  18   0   54.69    6.20
   4  18   1   65.39    6.70
   4  18   2   -2.20    3.40
   4  18   3   10.90    4.60
   4  18   4    3.00    4.80
   5  17  -6    9.80    6.10
   5  17  -6    6.20    8.10
   5  17  -5   20.60    5.40
   5  17  -4   15.10    5.20
   5  17  -4   26.50    6.90
   5  17  -3   37.90    5.70
   5  17  -3   34.40    6.80
   5  17  -2    1.60    3.30
   5  17  -2   -0.10    3.80
   5  17  -1  182.38   11.00
   5  17  -1  171.18   11.10
   5  17  -1  156.58   10.30
   5  17   0    5.10    3.50
   5  17   0    7.20    3.00
   5  17   0    8.10    2.70
   5  17   1   51.89    6.40
   5  17   2   15.90    4.70
   5  17   3   32.50    5.90
   5  17   4    4.60    4.50
   6  16  -6    4.20    7.00
   6  16  -6    3.50    5.10
   6  16  -5  138.59   10.50
   6  16  -5  155.18   12.70
   6  16  -4    4.00    5.00
   6  16  -4   -0.20    3.90
   6  16  -3   27.30    5.60
   6  16  -3   19.50    4.50
   6  16  -2   32.10    5.50
   6  16  -2   34.10    4.70
   6  16  -1   61.89    6.00
   6  16  -1   58.79    6.20
   6  16  -1   51.89    5.60
   6  16   0  196.98   11.10
   6  16   0  198.98   12.20
   6  16   0  189.18   10.90
   6  16   1   10.20    4.00
   6  16   2   59.69    7.30
   6  16   3   62.89    7.50
   6  16   4   -1.20    4.20
   7  15  -6   85.39   10.90
   7  15  -6   85.89    8.30
   7  15  -5   -4.00    5.40
   7  15  -5    4.00    4.30
   7  15  -4    5.70    4.90
   7  15  -4   10.40    4.20
   7  15  -3   12.50    4.80
   7  15  -3   11.60    3.70
   7  15  -2   45.00    5.90
   7  15  -2   41.20    5.40
   7  15  -1  394.26   22.30
   7  15  -1  449.76   22.50
   7  15  -1  419.96   22.70
   7  15   0   92.09    6.60
   7  15   0  100.19    7.80
   7  15   0   95.69    6.60
   7  15   1   62.49    6.70
   7  15   2   70.19    7.40
   7  15   3   44.20    7.00
   8  14  -6   -1.30    6.30
   8  14  -6    5.80    4.70
   8  14  -5   14.80    6.00
   8  14  -5   17.80    4.50
   8  14  -4   -0.30    3.40
   8  14  -4    0.60    4.30
   8  14  -3    5.90    4.50
   8  14  -3    2.60    3.40
   8  14  -2  261.67   15.70
   8  14  -2  296.27   16.20
   8  14  -1   31.20    4.60
   8  14  -1   22.00    4.30
   8  14  -1   28.50    4.60
   8  14   0  722.73   37.40
   8  14   0  719.83   36.50
   8  14   0  728.43   36.60
   8  14   1   26.60    4.90
   8  14   2  101.89    8.60
   8  14   3   53.49    7.00
   9  13  -7    1.90    6.70
   9  13  -7    3.30    4.70
   9  13  -6   -1.10    3.80
   9  13  -6   -0.40    6.60
   9  13  -5   19.80    6.30
   9  13  -5   24.80    4.50
   9  13  -4    4.90    3.40
   9  13  -4   11.10    5.00
   9  13  -3    6.00    4.40
   9  13  -3    6.40    3.30
   9  13  -2   30.10    5.30
   9  13  -2   23.50    4.30
   9  13  -1  197.48   11.70
   9  13  -1  182.18   11.50
   9  13  -1  185.68   11.50
   9  13   0  153.38    9.20
   9  13   0  125.19    9.10
   9  13   0  159.08   10.10
   9  13   1   36.50    5.60
   9  13   2    9.00    4.30
   9  13   3   19.00    5.10
  10  12  -7   11.70    4.60
  10  12  -7   14.40    6.90
  10  12  -6   -2.00    6.90
  10  12  -6    1.50    3.80
 -10 -12   5    9.30    4.70
  10  12  -5   19.10    4.00
  10  12  -5   13.90    5.80
 -10 -12   4   15.50    5.50
  10  12  -4    7.90    4.70
  10  12  -4   15.90    3.60
  10  12  -3   58.19    5.80
  10  12  -3   62.29    7.10
  10  12  -2   21.90    4.50
  10  12  -2   24.00    3.90
  10  12  -1   26.00    4.50
  10  12  -1   37.60    5.10
 -10 -12   0   24.00    4.70
  10  12   0   34.60    5.30
  10  12   0   39.60    4.90
 -10 -12  -1   33.40    5.10
  10  12   1   38.40    5.80
  10  12   1   37.70    4.50
  10  12   3   16.80    5.00
  11  11  -7    9.20    6.70
  11  11  -6    8.50    6.80
 -11 -11   5   13.20    4.10
  11  11  -5   23.40    6.40
  11  11  -5   22.10    3.90
 -11 -11   4   18.50    4.50
  11  11  -4   21.10    4.00
  11  11  -4   27.30    5.70
 -11 -11   3   80.69    7.40
  11  11  -3   74.69    6.50
  11  11  -3   94.99    8.10
  11  11  -2   29.40    4.50
  11  11  -2   31.90    5.50
  11  11  -1   98.19    7.70
  11  11  -1   90.29    7.60
 -11 -11   0   34.90    6.20
  11  11   0   48.90    6.00
  11  11   0   50.79    6.10
 -11 -11  -1   24.00    5.00
  11  11   1   31.00    5.50
  11  11   1   30.70    4.40
  11  11   2   10.30    3.10
  11  11   2   11.70    4.30
  12  10  -7   10.40    6.90
  12  10  -6    8.00    6.00
  12  10  -5    9.10    5.40
 -12 -10   4   75.99    9.10
  12  10  -4   86.69    6.50
  12  10  -4  108.49    9.10
 -12 -10   3   12.10    4.00
  12  10  -3   18.40    5.10
  12  10  -2  188.68   11.40
  12  10  -2  184.98   12.10
  12  10  -1   18.10    4.40
  12  10  -1   22.30    4.40
  12  10   0  146.89   10.20
  12  10   0  156.58   10.60
  12  10   1   25.70    4.60
  12  10   1   26.60    5.20
  12  10   2    9.10    3.40
  12  10   2   12.60    4.50
  13   9  -7   -3.90    6.00
  13   9  -6    6.60    6.10
  13   9  -5    4.90    5.60
  13   9  -4    5.50    5.00
 -13  -9   3    4.00    3.90
  13   9  -3    5.40    3.10
  13   9  -3   12.00    4.90
  13   9  -2  106.99    7.80
  13   9  -2  100.59    8.70
  13   9  -1   15.90    4.10
  13   9  -1   17.00    4.50
  13   9   0   77.19    7.40
  13   9   0   80.19    7.40
  13   9   1   91.39    8.50
  13   9   1   95.49    7.90
  14   8  -6   30.70    7.20
  14   8  -5    6.70    6.90
  14   8  -4  117.19   10.20
 -14  -8   3   30.80    4.90
  14   8  -3   53.89    7.30
  14   8  -3   31.70    4.10
  14   8  -2   54.39    6.90
  14   8  -2   45.60    5.40
  14   8  -1   86.99    8.20
  14   8  -1   80.69    7.20
  14   8   0    2.00    3.60
  14   8   0    2.30    3.60
  14   8   1   32.70    5.50
  14   8   1   42.30    5.90
  15   7  -6   23.20    7.30
  15   7  -5   11.70    6.10
  15   7  -3   87.69    8.90
  15   7  -2    5.60    4.20
  15   7  -2    4.70    2.80
  15   7  -1   40.60    6.40
  15   7  -1   29.10    4.60
  15   7   0   36.20    5.30
  15   7   0   30.70    5.90
  16   6  -5   48.60    7.90
  16   6  -4   25.50    6.50
  16   6  -3   70.89    8.30
  16   6  -2    3.30    2.70
  16   6  -2   -1.60    8.20
  -1 -23   1   72.49    7.90
   1  23  -1   65.19    7.70
   1  23   0    2.00    4.20
   1  23   1   48.50    7.40
  -2 -22   3   36.50   12.00
   2  22  -3   20.20    5.60
  -2 -22   2   13.90    5.30
   2  22  -2    8.20    4.70
   2  22  -1   65.19    7.40
   2  22   0    4.60    4.30
   2  22   0   10.10    4.90
   2  22   1   18.40    5.10
   2  22   2    0.20    4.00
   3  21  -4    1.70    4.70
   3  21  -3   22.00    5.60
   3  21  -2   13.70    4.70
   3  21  -2   19.70    6.20
   3  21  -1   28.90    6.50
   3  21  -1   16.20    5.10
   3  21   0   47.10    5.90
   3  21   0   34.70    5.90
   3  21   0   23.50    4.50
   3  21   1   30.90    5.80
   3  21   2    0.40    3.80
   4  20  -4   39.80    6.70
   4  20  -3   28.00    7.30
   4  20  -3   17.80    7.50
   4  20  -2   20.60    6.10
   4  20  -2    8.90    5.00
   4  20  -1  150.98   11.50
   4  20  -1  181.58   11.70
   4  20   0  187.78   15.70
   4  20   0  207.88   12.00
   4  20   1   20.30    5.00
   4  20   2   20.80    5.20
   4  20   3   40.30    7.10
   5  19  -5    1.50    4.80
   5  19  -5    4.60    6.90
   5  19  -4    5.60    5.30
   5  19  -4    7.60    6.10
   5  19  -3   -1.10    3.90
   5  19  -3    1.80    5.30
   5  19  -2  191.18   13.10
   5  19  -2  223.38   13.90
   5  19  -1   11.80    4.30
   5  19  -1   13.60    4.40
   5  19   0  284.17   16.30
   5  19   0  330.27   16.70
   5  19   0  302.07   17.80
   5  19   2   48.40    6.80
   5  19   3    5.10    4.50
   6  18  -5   47.90    7.20
   6  18  -5   63.09   10.10
   6  18  -4    4.00    4.40
   6  18  -4   -0.80    5.30
   6  18  -3   27.30    6.10
   6  18  -3   22.30    5.00
   6  18  -2  102.79    8.80
   6  18  -2  115.89    9.20
   6  18  -1   40.30    6.00
   6  18  -1   35.60    5.10
   6  18   0   12.80    4.30
   6  18   0   12.90    3.60
   6  18   0    7.30    2.90
   6  18   1   63.69    7.40
   6  18   2   -1.60    4.10
   6  18   3   29.00    6.00
   7  17  -6   13.10    7.70
   7  17  -6   -0.30    5.30
   7  17  -5   38.30    6.10
   7  17  -4   11.00    4.50
   7  17  -4    3.10    5.10
   7  17  -3    4.30    4.10
   7  17  -3    7.30    5.10
   7  17  -2   29.90    5.10
   7  17  -2   29.80    5.50
   7  17  -1   15.60    7.10
   7  17  -1   18.90    4.50
   7  17  -1   17.10    4.00
   7  17   0    1.40    2.80
   7  17   0    0.40    2.50
   7  17   0   -0.60    3.40
   7  17   1    6.60    4.00
   7  17   2    7.20    4.10
   7  17   3   19.60    5.50
   8  16  -6   -3.70    4.50
   8  16  -6   -2.80    6.50
   8  16  -5   37.30    6.00
   8  16  -5   32.60    8.90
   8  16  -4    6.30    4.80
   8  16  -4    4.50    4.00
   8  16  -3   10.90    4.80
   8  16  -3    9.90    4.30
   8  16  -2   62.69    6.90
   8  16  -2   48.80    6.20
   8  16  -1   50.39    6.10
   8  16  -1   42.80    5.70
   8  16   0    5.90    3.90
   8  16   0    1.80    2.80
   8  16   0    2.90    2.70
   8  16   1   19.80    5.20
   8  16   2   20.10    5.40
   8  16   3   19.40    5.40
   9  15  -6    0.60    4.50
   9  15  -6   -0.50    6.00
   9  15  -5    4.80    5.80
   9  15  -5   15.30    4.50
   9  15  -4   23.70    6.00
   9  15  -4   24.30    5.10
   9  15  -3   39.00    5.30
   9  15  -3   29.90    5.80
   9  15  -2   46.30    6.30
   9  15  -2   40.90    5.40
   9  15  -1   60.09    7.80
   9  15  -1   58.89    6.60
   9  15  -1   66.19    6.60
   9  15   0  105.39    8.70
   9  15   0  126.29    8.10
   9  15   0  127.19    9.20
   9  15   1   91.09    8.30
   9  15   2    1.20    4.00
  10  14  -6    4.50    4.30
  10  14  -6    0.60    5.80
  10  14  -5    2.20    4.00
  10  14  -5    3.00    5.90
  10  14  -4  171.78   12.10
  10  14  -4  153.78   10.60
  10  14  -3   14.70    4.10
  10  14  -3   19.20    5.40
  10  14  -2  180.98   11.50
  10  14  -2  181.58   11.80
  10  14  -1   34.80    5.30
  10  14  -1   33.80    5.10
  10  14   0  134.89    8.70
  10  14   0  115.79    8.70
  10  14   0  140.89    9.80
  10  14   1   36.30    5.80
  10  14   2   42.90    6.60
  11  13  -6    3.10    6.20
  11  13  -6    7.90    4.20
  11  13  -5   10.30    4.00
  11  13  -5    1.20    6.00
  11  13  -4   25.20    5.80
  11  13  -4   20.80    4.20
  11  13  -3   57.59    6.10
  11  13  -3   61.29    7.40
  11  13  -2   40.20    6.20
  11  13  -2   32.80    5.20
  11  13  -1   12.20    3.90
  11  13  -1   16.50    4.20
  11  13   0   30.60    5.40
  11  13   1   70.19   11.60
  11  13   1   57.69    5.70
  11  13   2    8.70    4.60
  12  12  -6    4.60    4.50
  12  12  -6   15.60    6.90
 -12 -12   5   33.60    6.70
  12  12  -5   96.39   11.70
  12  12  -5   61.89    6.10
  12  12  -4   24.60    5.50
  12  12  -4   15.90    3.60
  12  12  -3   10.60    5.00
  12  12  -3    5.70    3.60
  12  12  -2    2.00    3.50
  12  12  -2    6.30    4.20
  12  12  -1   26.20    5.10
  12  12  -1   17.30    4.30
  12  12   0    8.80    4.00
  12  12   0    7.70    3.80
  12  12   1    5.40    5.10
  12  12   1    4.90    3.30
  13  11  -6   15.20    6.60
  13  11  -5   35.80    8.80
 -13 -11   4   -0.80    4.30
  13  11  -4   -1.20    3.60
  13  11  -4    4.10    4.90
  13  11  -3   65.39    7.80
  13  11  -3   63.59    6.20
  13  11  -2    2.20    4.00
  13  11  -2   -1.70    3.20
  13  11  -1   61.39    6.80
  13  11  -1   65.39    7.00
  13  11   0    1.50    3.60
  13  11   0    1.80    3.80
  13  11   1   16.80    4.20
  13  11   1   23.90    5.30
  14  10  -6    3.70    6.30
  14  10  -5    2.80    5.60
  14  10  -4  109.69   10.90
  14  10  -3    4.30    4.60
  14  10  -3    6.60    3.30
  14  10  -2   15.80    4.10
  14  10  -2   13.10    4.60
  14  10  -1    9.00    4.40
  14  10  -1   11.60    4.10
  14  10   0   35.80    5.60
  14  10   0   38.90    5.80
  15   9  -5    4.00    6.00
  15   9  -4   13.90    5.90
  15   9  -3   12.40    3.50
  15   9  -3   10.80    5.70
  15   9  -2   28.70    5.60
  15   9  -2   25.40    4.30
  15   9  -1   39.50    6.40
  15   9  -1   33.10    5.10
  16   8  -4    4.20    5.20
  16   8  -3   26.10    6.00
  16   8  -3   19.60    3.50
   3  23  -1   -0.30    4.30
   3  23  -1    3.50    5.20
   3  23   0   35.90    6.00
   3  23   0   27.40    6.00
   4  22  -3   30.50    8.00
   4  22  -3   17.10    5.40
   4  22  -2   28.40    7.10
   4  22  -2   19.60    5.30
   4  22  -1    4.90    4.30
   4  22  -1    7.10    4.90
   4  22   0   11.40    4.90
   4  22   0    9.60    3.80
   4  22   0   15.50    4.30
   4  22   1   49.30    7.40
   5  21  -3   -1.70    5.50
   5  21  -3    3.80    4.60
   5  21  -2    6.00    5.00
   5  21  -2    3.30    4.10
   5  21  -1   35.30    6.10
   5  21  -1   40.10    6.10
   5  21   0    0.90    3.70
   5  21   1   44.80    6.80
   6  20  -4   21.70    5.90
   6  20  -3    3.80    4.90
   6  20  -3   10.70    5.80
   6  20  -2   58.49    7.70
   6  20  -1   57.39    8.70
   6  20  -1   78.19    7.30
   6  20   0    1.70    3.90
   6  20   1   31.40    5.90
   6  20   2    4.50    4.60
   7  19  -4  100.39   10.30
   7  19  -4   94.99   10.90
   7  19  -3    1.50    4.80
   7  19  -3    3.20    4.40
   7  19  -2   57.89    7.40
   7  19  -2   51.69    6.80
   7  19  -1    3.50    3.80
   7  19  -1    2.00    4.10
   7  19   0   31.80    6.20
   7  19   1   13.30    4.80
   7  19   2   67.59    7.90
   8  18  -5    8.70    6.40
   8  18  -5    1.30    4.90
   8  18  -4   45.70    7.60
   8  18  -4   48.00    6.80
   8  18  -3   15.40    5.20
   8  18  -3    7.40    4.60
   8  18  -2    0.40    4.20
   8  18  -2   -2.00    3.80
   8  18  -1   -2.50    3.30
   8  18  -1   -0.90    3.40
   8  18   1   63.19    7.90
   8  18   2   -3.20    4.10
   9  17  -5    8.40    4.90
   9  17  -5   14.00    6.70
   9  17  -4    4.20    5.20
   9  17  -4    5.90    4.60
   9  17  -3   20.50    5.10
   9  17  -3   20.00    5.50
   9  17  -2   -3.60    3.50
   9  17  -2   -0.40    3.90
   9  17  -1   54.69    6.20
   9  17  -1   49.99    6.50
   9  17   0   16.30    5.70
   9  17   0   13.90    3.70
   9  17   1   11.60    4.70
  10  16  -5   28.20    7.80
  10  16  -5   23.30    5.40
  10  16  -4   24.30    5.20
  10  16  -4   24.20    6.60
  10  16  -3    3.10    4.00
  10  16  -3    2.00    4.50
  10  16  -2    4.90    4.00
  10  16  -2    4.70    4.30
  10  16  -1   63.79    6.60
  10  16  -1   69.79    7.30
  10  16   0   10.40    3.80
  10  16   0   12.50    3.90
  10  16   0   15.70    4.90
  10  16   1   23.30    5.80
  11  15  -5   20.70    6.50
  11  15  -5   27.80    5.20
  11  15  -4   19.50    4.40
  11  15  -4   14.00    6.10
  11  15  -3   14.20    4.20
  11  15  -3   10.40    4.90
  11  15  -2   26.00    5.10
  11  15  -2   14.80    4.40
  11  15  -1   54.19    6.40
  11  15  -1   66.69    7.10
  11  15   0   43.20    7.40
  11  15   0   23.80    5.20
  11  15   1   58.49    7.60
  12  14  -5    4.10    3.90
  12  14  -5   11.00    6.30
  12  14  -4   41.90    5.50
  12  14  -4   70.49    8.50
  12  14  -3    8.20    3.90
  12  14  -2    1.20    3.90
  12  14  -2    1.70    3.70
  12  14  -1   32.60    5.40
  12  14  -1   28.90    5.50
  12  14   0   53.19    6.30
  13  13  -5   17.10    4.00
  13  13  -5   26.00    7.20
  13  13  -4   19.40    4.40
  13  13  -4   21.20    6.50
  13  13  -3    5.40    5.00
  13  13  -3    5.40    3.70
  13  13  -2   11.50    4.70
  13  13  -2   17.10    4.60
  13  13  -1   19.80    4.70
  13  13  -1   16.30    4.70
  13  13   0    3.30    6.90
  13  13   0    2.40    3.80
  14  12  -5    6.50    6.10
  14  12  -4   18.90    4.00
  14  12  -4   34.60    8.40
  14  12  -3   14.60    4.10
  14  12  -3   16.80    5.40
  14  12  -2   14.20    4.20
  14  12  -2   14.00    4.80
  14  12  -1    4.50    4.20
  14  12  -1    3.90    4.10
  15  11  -4    8.80    5.70
  15  11  -3   11.50    4.00
  15  11  -2   -0.90    3.50
  15  11  -2   -1.50    4.10
   6  22  -1   22.90    5.10
   6  22  -1   22.00    5.70
   7  21  -3   26.40    6.60
   7  21  -3   22.30    5.80
   7  21  -2    1.30    4.50
   7  21  -2    3.40    4.70
   7  21  -1   51.79    6.80
   7  21  -1   54.99    7.40
   7  21   0    3.60    4.10
   8  20  -3   19.50    5.60
   8  20  -3   16.10    5.70
   8  20  -2   -1.90    4.30
   8  20  -2   -1.60    4.10
   8  20  -1   11.30    4.80
   8  20  -1   20.00    4.70
   8  20   0   10.40    4.90
   9  19  -3    4.30    7.80
   9  19  -3   -1.90    4.70
   9  19  -2   18.70    5.10
   9  19  -2   13.90    7.80
   9  19  -1   -0.20    3.80
   9  19  -1    2.20    3.70
   9  19   0   49.40    7.10
  10  18  -4    1.60    4.80
  10  18  -4   -4.00   10.50
  10  18  -3    1.30    4.90
  10  18  -3    2.70    4.20
  10  18  -2    2.10    4.20
  10  18  -2    4.40    4.20
  10  18  -1   52.89    7.40
  10  18  -1   55.49    6.50
  10  18   0   14.60    5.40
  11  17  -4   12.20    4.80
  11  17  -4   14.70   11.80
  11  17  -3   10.40    4.80
  11  17  -3   10.20    5.30
  11  17  -2    0.00    3.90
  11  17  -2    1.90    4.30
  11  17  -1   17.50    6.60
  11  17  -1   27.60    5.10
  12  16  -4   17.70    5.00
  12  16  -3   18.40    4.70
  12  16  -3   14.30    5.40
  12  16  -2   -2.40    3.90
  12  16  -2    0.20    4.20
  12  16  -1    5.20    4.30
  12  16  -1    6.50    8.00
  13  15  -3    2.10    4.00
  13  15  -3    6.10    5.00
  13  15  -2    5.00    4.40
  13  15  -2    5.50    4.40
   0   0   0    0.00    0.00

_computing_structure_solution     'SHELXT 2018/2 (Sheldrick, 2018)'
;
_shelx_hkl_checksum   36274

