 
data_pvl615_auto_a
 
_audit_creation_method            'SHELXL-2018/3'
_shelx_SHELXL_version_number      '2018/3'
_chemical_name_systematic         ?
_chemical_name_common             ?
_chemical_melting_point           ?
_chemical_formula_moiety          ?
_chemical_formula_sum
 'C23.51 H21.52 N5.51 O7.50 S1.50 Zn' 
_chemical_formula_weight          614.64

loop_
 _atom_type_symbol
 _atom_type_description
 _atom_type_scat_dispersion_real
 _atom_type_scat_dispersion_imag
 _atom_type_scat_source
 'C'  'C'   0.0033   0.0016
 'International Tables Vol C Tables 4.2.6.8 and 6.1.1.4'
 'H'  'H'   0.0000   0.0000
 'International Tables Vol C Tables 4.2.6.8 and 6.1.1.4'
 'N'  'N'   0.0061   0.0033
 'International Tables Vol C Tables 4.2.6.8 and 6.1.1.4'
 'O'  'O'   0.0106   0.0060
 'International Tables Vol C Tables 4.2.6.8 and 6.1.1.4'
 'S'  'S'   0.1246   0.1234
 'International Tables Vol C Tables 4.2.6.8 and 6.1.1.4'
 'Zn'  'Zn'   0.2839   1.4301
 'International Tables Vol C Tables 4.2.6.8 and 6.1.1.4'
 
_space_group_crystal_system       triclinic
_space_group_IT_number            2
_space_group_name_H-M_alt         'P -1'
_space_group_name_Hall            '-P 1'
 
_shelx_space_group_comment
;
The symmetry employed for this shelxl refinement is uniquely defined
by the following loop. which should always be used as a source of
symmetry information in preference to the above space-group names.
They are only intended as comments.
;
 
loop_
 _space_group_symop_operation_xyz
 'x. y. z'
 '-x. -y. -z'
 
_cell_length_a                    12.7253(5)
_cell_length_b                    12.8791(2)
_cell_length_c                    17.0749(6)
_cell_angle_alpha                 78.809(2)
_cell_angle_beta                  70.643(3)
_cell_angle_gamma                 75.849(2)
_cell_volume                      2540.48(15)
_cell_formula_units_Z             4
_cell_measurement_temperature     141(2)
_cell_measurement_reflns_used     ?
_cell_measurement_theta_min       ?
_cell_measurement_theta_max       ?
 
_exptl_crystal_description        ?
_exptl_crystal_colour             ?
_exptl_crystal_density_meas       ?
_exptl_crystal_density_method     ?
_exptl_crystal_density_diffrn     1.607          
_exptl_crystal_F_000              1260
_exptl_transmission_factor_min    ?
_exptl_transmission_factor_max    ?
_exptl_crystal_size_max           ?
_exptl_crystal_size_mid           ?
_exptl_crystal_size_min           ?
_exptl_absorpt_coefficient_mu     1.148
_shelx_estimated_absorpt_T_min    ?
_shelx_estimated_absorpt_T_max    ?
_exptl_absorpt_correction_type    ?
_exptl_absorpt_correction_T_min   ?
_exptl_absorpt_correction_T_max   ?
_exptl_absorpt_process_details    ?
_exptl_absorpt_special_details    ?
_diffrn_ambient_temperature       141(2)
_diffrn_radiation_wavelength      0.71073
_diffrn_radiation_type            MoK\a
_diffrn_source                    ?
_diffrn_measurement_device_type   ?
_diffrn_measurement_method        ?
_diffrn_detector_area_resol_mean  ?
_diffrn_reflns_number             22160
_diffrn_reflns_av_unetI/netI      0.0350
_diffrn_reflns_av_R_equivalents   0.0213
_diffrn_reflns_limit_h_min        -16
_diffrn_reflns_limit_h_max        11
_diffrn_reflns_limit_k_min        -17
_diffrn_reflns_limit_k_max        15
_diffrn_reflns_limit_l_min        -23
_diffrn_reflns_limit_l_max        23
_diffrn_reflns_theta_min          1.816
_diffrn_reflns_theta_max          29.118
_diffrn_reflns_theta_full         25.242
_diffrn_measured_fraction_theta_max   0.826
_diffrn_measured_fraction_theta_full  1.000
_diffrn_reflns_Laue_measured_fraction_max    0.826
_diffrn_reflns_Laue_measured_fraction_full   1.000
_diffrn_reflns_point_group_measured_fraction_max   0.826
_diffrn_reflns_point_group_measured_fraction_full  1.000
_reflns_number_total              11308
_reflns_number_gt                 9533
_reflns_threshold_expression      'I > 2\s(I)'
_reflns_Friedel_coverage          0.000
_reflns_Friedel_fraction_max      .
_reflns_Friedel_fraction_full     .
 
_reflns_special_details
;
 Reflections were merged by SHELXL according to the crystal
 class for the calculation of statistics and refinement.
 
 _reflns_Friedel_fraction is defined as the number of unique
 Friedel pairs measured divided by the number that would be
 possible theoretically. ignoring centric projections and
 systematic absences.
;
 
_computing_data_collection        ?
_computing_cell_refinement        ?
_computing_data_reduction         ?
_computing_structure_solution     'SHELXT 2018/2 (Sheldrick. 2018)'
_computing_structure_refinement 'SHELXL-2018/3 (Sheldrick. 2018)'
_computing_molecular_graphics     ?
_computing_publication_material   ?
_refine_special_details           ?
_refine_ls_structure_factor_coef  Fsqd
_refine_ls_matrix_type            full
_refine_ls_weighting_scheme       calc
_refine_ls_weighting_details
'w=1/[\s^2^(Fo^2^)+(0.0371P)^2^+2.7417P] where P=(Fo^2^+2Fc^2^)/3'
_atom_sites_solution_primary      ?
_atom_sites_solution_secondary    ?
_atom_sites_solution_hydrogens    mixed
_refine_ls_hydrogen_treatment     mixed
_refine_ls_extinction_method      none
_refine_ls_extinction_coef        .
_refine_ls_number_reflns          11308
_refine_ls_number_parameters      732
_refine_ls_number_restraints      0
_refine_ls_R_factor_all           0.0465
_refine_ls_R_factor_gt            0.0365
_refine_ls_wR_factor_ref          0.0959
_refine_ls_wR_factor_gt           0.0903
_refine_ls_goodness_of_fit_ref    1.058
_refine_ls_restrained_S_all       1.058
_refine_ls_shift/su_max           0.002
_refine_ls_shift/su_mean          0.000
 
loop_
 _atom_site_label
 _atom_site_type_symbol
 _atom_site_fract_x
 _atom_site_fract_y
 _atom_site_fract_z
 _atom_site_U_iso_or_equiv
 _atom_site_adp_type
 _atom_site_occupancy
 _atom_site_site_symmetry_order  
 _atom_site_calc_flag
 _atom_site_refinement_flags_posn
 _atom_site_refinement_flags_adp
 _atom_site_refinement_flags_occupancy
 _atom_site_disorder_assembly
 _atom_site_disorder_group
Zn1 Zn 0.26032(2) 0.62912(2) 0.15792(2) 0.01592(7) Uani 1 1 d . . . . .
Zn2 Zn 0.29471(2) 1.57855(2) 0.32542(2) 0.01619(7) Uani 1 1 d . . . . .
S1 S 0.75043(5) 0.02906(4) 0.08591(4) 0.01843(12) Uani 1 1 d . . . . .
S2 S -0.19831(5) 1.18539(4) 0.38526(4) 0.01981(12) Uani 1 1 d . . . . .
S3 S 0.10215(6) 1.29915(6) 0.72626(4) 0.03017(15) Uani 1 1 d . . . . .
O1 O 0.39276(16) -0.29634(14) 0.13157(11) 0.0265(4) Uani 1 1 d . . . . .
O2 O 0.20563(14) 0.65883(13) 0.05873(9) 0.0191(3) Uani 1 1 d . . . . .
O3 O 0.79853(15) 0.04325(13) -0.00349(10) 0.0232(4) Uani 1 1 d . . . . .
O4 O 0.82433(15) 0.00109(13) 0.13793(11) 0.0246(4) Uani 1 1 d . . . . .
O5 O 0.36988(15) 0.48974(13) 0.13334(11) 0.0256(4) Uani 1 1 d . . . . .
O6 O 0.41008(16) -0.32583(14) 0.26030(11) 0.0250(4) Uani 1 1 d . . . . .
O7 O 0.15761(16) 0.76086(13) 0.21125(10) 0.0250(4) Uani 1 1 d . . . . .
O8 O 0.14770(16) 1.53789(14) 0.23704(11) 0.0284(4) Uani 1 1 d . . . . .
O9 O 0.39939(15) 0.45698(13) 0.25871(11) 0.0245(4) Uani 1 1 d . . . . .
O10 O 0.16917(16) 1.49174(14) 0.36438(11) 0.0274(4) Uani 1 1 d . . . . .
O11 O 0.17332(16) 0.71724(13) 0.34053(11) 0.0254(4) Uani 1 1 d . . . . .
O12 O -0.25184(15) 1.16788(14) 0.47365(11) 0.0263(4) Uani 1 1 d . . . . .
O13 O -0.26634(16) 1.21689(14) 0.32898(12) 0.0282(4) Uani 1 1 d . . . . .
N2 N 0.08940(17) 0.75193(16) -0.01683(12) 0.0193(4) Uani 1 1 d . . . . .
N3 N 0.2910(2) 1.41963(18) 0.95471(13) 0.0272(5) Uani 1 1 d . . . . .
N4 N 0.12735(19) 1.32368(17) 0.80645(13) 0.0262(5) Uani 1 1 d . . . . .
N5 N 0.33810(17) 1.55521(16) 0.43161(12) 0.0200(4) Uani 1 1 d . . . . .
N6 N 0.40277(18) 1.59557(16) 0.52687(12) 0.0226(4) Uani 1 1 d . . . . .
N7 N 0.33960(17) 1.51697(15) 0.56057(12) 0.0193(4) Uani 1 1 d . . . . .
N8 N 0.22116(18) 1.40972(16) 0.91169(12) 0.0228(4) Uani 1 1 d . . . . .
N9 N 0.1203(2) 1.3919(2) 1.04337(14) 0.0408(6) Uani 1 1 d . . . . .
N10 N 0.18276(19) 1.36671(17) 0.65183(13) 0.0259(5) Uani 1 1 d . . . . .
C1 C 0.6653(2) -0.06896(17) 0.11266(15) 0.0185(5) Uani 1 1 d . . . . .
C2 C 0.6240(2) -0.0905(2) 0.05334(15) 0.0256(5) Uani 1 1 d . . . . .
H2 H 0.644890 -0.055844 -0.002462 0.031 Uiso 1 1 calc R U . . .
C3 C 0.5519(2) -0.1629(2) 0.07633(16) 0.0266(5) Uani 1 1 d . . . . .
H3 H 0.523680 -0.178977 0.035980 0.032 Uiso 1 1 calc R U . . .
C4 C 0.5204(2) -0.21253(18) 0.15831(15) 0.0198(5) Uani 1 1 d . . . . .
C5 C 0.5650(2) -0.19210(19) 0.21617(15) 0.0235(5) Uani 1 1 d . . . . .
H5 H 0.545533 -0.227977 0.271640 0.028 Uiso 1 1 calc R U . . .
C6 C 0.6374(2) -0.12014(19) 0.19412(15) 0.0234(5) Uani 1 1 d . . . . .
H6 H 0.667582 -0.105836 0.233999 0.028 Uiso 1 1 calc R U . . .
C7 C 0.6528(2) 0.14808(18) 0.11582(15) 0.0183(5) Uani 1 1 d . . . . .
C8 C 0.6069(2) 0.21646(18) 0.05700(14) 0.0191(5) Uani 1 1 d . . . . .
H8 H 0.628080 0.199330 0.001492 0.023 Uiso 1 1 calc R U . . .
C9 C 0.5303(2) 0.30956(19) 0.07985(15) 0.0207(5) Uani 1 1 d . . . . .
H9 H 0.497852 0.356794 0.040143 0.025 Uiso 1 1 calc R U . . .
C10 C 0.5004(2) 0.33428(18) 0.16115(15) 0.0189(5) Uani 1 1 d . . . . .
C11 C 0.5494(2) 0.26550(19) 0.21853(15) 0.0229(5) Uani 1 1 d . . . . .
H11 H 0.530251 0.283427 0.273630 0.027 Uiso 1 1 calc R U . . .
C12 C 0.6254(2) 0.17164(19) 0.19667(15) 0.0221(5) Uani 1 1 d . . . . .
H12 H 0.658089 0.124307 0.236188 0.027 Uiso 1 1 calc R U . . .
C13 C 0.4349(2) -0.28462(18) 0.18523(15) 0.0206(5) Uani 1 1 d . . . . .
C14 C 0.1249(2) 0.73235(18) 0.04962(14) 0.0181(5) Uani 1 1 d . . . . .
H14 H 0.086887 0.776749 0.093050 0.022 Uiso 1 1 calc R U . . .
C15 C 0.1452(2) 0.6884(2) -0.08615(15) 0.0242(5) Uani 1 1 d . . . . .
H15A H 0.172311 0.736192 -0.137516 0.036 Uiso 1 1 calc R U . . .
H15B H 0.091180 0.650851 -0.093136 0.036 Uiso 1 1 calc R U . . .
H15C H 0.209709 0.635443 -0.074571 0.036 Uiso 1 1 calc R U . . .
C16 C 0.4166(2) 0.43527(18) 0.18635(15) 0.0200(5) Uani 1 1 d . . . . .
C17 C 0.3995(2) 1.61594(19) 0.44980(15) 0.0222(5) Uani 1 1 d . . . . .
H17 H 0.436455 1.668190 0.409880 0.027 Uiso 1 1 calc R U . . .
C18 C 0.3018(2) 1.49470(19) 0.50246(15) 0.0218(5) Uani 1 1 d . . . . .
H18 H 0.255790 1.443023 0.511153 0.026 Uiso 1 1 calc R U . . .
C19 C 0.1349(2) 0.77772(18) 0.28536(15) 0.0193(5) Uani 1 1 d . . . . .
C20 C 0.0528(2) 0.88017(18) 0.30970(14) 0.0185(5) Uani 1 1 d . . . . .
C21 C 0.0097(3) 0.9520(2) 0.25132(16) 0.0289(6) Uani 1 1 d . . . . .
H21 H 0.033128 0.936976 0.195086 0.035 Uiso 1 1 calc R U . . .
C22 C -0.0670(3) 1.0452(2) 0.27371(16) 0.0302(6) Uani 1 1 d . . . . .
H22 H -0.096799 1.094119 0.233403 0.036 Uiso 1 1 calc R U . . .
C23 C -0.0999(2) 1.06647(18) 0.35529(15) 0.0185(5) Uani 1 1 d . . . . .
C24 C -0.0589(3) 0.9960(2) 0.41453(16) 0.0301(6) Uani 1 1 d . . . . .
H24 H -0.082696 1.011243 0.470726 0.036 Uiso 1 1 calc R U . . .
C25 C 0.0174(3) 0.9027(2) 0.39142(16) 0.0326(6) Uani 1 1 d . . . . .
H25 H 0.046036 0.853330 0.432127 0.039 Uiso 1 1 calc R U . . .
C26 C 0.1251(2) 1.48825(18) 0.30939(15) 0.0216(5) Uani 1 1 d . . . . .
C27 C 0.0385(2) 1.41784(18) 0.33051(15) 0.0199(5) Uani 1 1 d . . . . .
C28 C -0.0101(2) 1.37701(18) 0.41262(15) 0.0207(5) Uani 1 1 d . . . . .
H28 H 0.008626 1.395966 0.456711 0.025 Uiso 1 1 calc R U . . .
C29 C -0.0859(2) 1.30876(18) 0.43040(14) 0.0199(5) Uani 1 1 d . . . . .
H29 H -0.120040 1.281160 0.486594 0.024 Uiso 1 1 calc R U . . .
C30 C -0.1114(2) 1.28121(17) 0.36552(14) 0.0182(5) Uani 1 1 d . . . . .
C31 C -0.0657(2) 1.32349(19) 0.28346(15) 0.0233(5) Uani 1 1 d . . . . .
H31 H -0.085314 1.305091 0.239568 0.028 Uiso 1 1 calc R U . . .
C32 C 0.0088(2) 1.3927(2) 0.26621(15) 0.0237(5) Uani 1 1 d . . . . .
H32 H 0.039690 1.423137 0.210247 0.028 Uiso 1 1 calc R U . . .
C33 C -0.0058(2) 0.8390(2) -0.02364(17) 0.0284(6) Uani 1 1 d . . . . .
H33A H 0.020703 0.893716 -0.070026 0.043 Uiso 1 1 calc R U . . .
H33B H -0.038353 0.871689 0.028601 0.043 Uiso 1 1 calc R U . . .
H33C H -0.063723 0.810151 -0.034076 0.043 Uiso 1 1 calc R U . . .
C34 C 0.3154(2) 1.48107(18) 0.64721(14) 0.0187(5) Uani 1 1 d . . . . .
C35 C 0.3650(2) 1.51659(19) 0.69392(15) 0.0212(5) Uani 1 1 d . . . . .
H35 H 0.421090 1.559451 0.666954 0.025 Uiso 1 1 calc R U . . .
C36 C 0.3342(2) 1.49060(19) 0.78187(15) 0.0212(5) Uani 1 1 d . . . . .
H36 H 0.370805 1.515961 0.812627 0.025 Uiso 1 1 calc R U . . .
C37 C 0.2538(2) 1.43042(19) 0.82367(14) 0.0210(5) Uani 1 1 d . . . . .
C38 C 0.2036(2) 1.38867(19) 0.77668(15) 0.0214(5) Uani 1 1 d . . . . .
C39 C 0.2357(2) 1.41353(19) 0.68769(15) 0.0206(5) Uani 1 1 d . . . . .
C40 C 0.2264(3) 1.4072(2) 1.03226(16) 0.0308(6) Uani 1 1 d . . . . .
H40 H 0.252345 1.408799 1.078100 0.037 Uiso 1 1 calc R U . . .
C41 C 0.1211(3) 1.3948(3) 0.96585(16) 0.0360(7) Uani 1 1 d . . . . .
H41 H 0.058525 1.387233 0.950309 0.043 Uiso 1 1 calc R U . . .
O14 O 0.5684(3) -0.2087(2) 0.39813(16) 0.0652(8) Uani 1 1 d . . . . .
C42 C 0.5486(4) -0.1997(3) 0.4683(2) 0.0585(11) Uani 1 1 d . . . . .
H1AA H 0.489(4) -0.234(4) 0.511(3) 0.088 Uiso 1 1 d . U . . .
C43 C 0.6992(5) -0.1023(5) 0.4458(3) 0.110(2) Uani 1 1 d . . . . .
N100 N 0.5887(5) -0.1351(5) 0.4980(3) 0.0573(14) Uani 0.7 1 d . . P A 1
C100 C 0.5453(7) -0.1132(6) 0.5843(4) 0.087(2) Uani 0.7 1 d . . P A 1
H10A H 0.531428 -0.035278 0.586070 0.130 Uiso 0.7 1 calc R U P A 1
H10B H 0.601143 -0.150068 0.613724 0.130 Uiso 0.7 1 calc R U P A 1
H10C H 0.474152 -0.139429 0.611552 0.130 Uiso 0.7 1 calc R U P A 1
N200 N 0.6473(10) -0.1918(9) 0.4951(6) 0.044(3) Uani 0.3 1 d . . P A 2
C200 C 0.6646(13) -0.2347(12) 0.5766(8) 0.064(4) Uani 0.3 1 d . . P A 2
H20A H 0.607079 -0.277784 0.608973 0.096 Uiso 0.3 1 calc R U P A 2
H20B H 0.657921 -0.174869 0.606797 0.096 Uiso 0.3 1 calc R U P A 2
H20C H 0.740398 -0.280248 0.568659 0.096 Uiso 0.3 1 calc R U P A 2
O15 O -0.1536(3) 0.8780(3) 0.5980(2) 0.0938(11) Uani 1 1 d . . . . .
N11 N -0.2654(3) 0.9498(3) 0.7157(2) 0.0756(11) Uani 1 1 d . . . . .
C44 C -0.1893(5) 0.8763(4) 0.6740(3) 0.0876(16) Uani 1 1 d . . . . .
H44 H -0.158291 0.814957 0.706018 0.105 Uiso 1 1 calc R U . . .
C45 C -0.3016(7) 0.9444(7) 0.8036(3) 0.162(4) Uani 1 1 d . . . . .
H45A H -0.270104 0.884241 0.836326 0.195 Uiso 1 1 calc R U . . .
H45B H -0.357590 1.000928 0.830113 0.195 Uiso 1 1 calc R U . . .
C46 C -0.3137(4) 1.0441(4) 0.6685(3) 0.0765(13) Uani 1 1 d . . . . .
H46A H -0.316486 1.108933 0.691698 0.115 Uiso 1 1 calc R U . . .
H46B H -0.390764 1.039163 0.671867 0.115 Uiso 1 1 calc R U . . .
H46C H -0.266654 1.048114 0.609900 0.115 Uiso 1 1 calc R U . . .
 
loop_
 _atom_site_aniso_label
 _atom_site_aniso_U_11
 _atom_site_aniso_U_22
 _atom_site_aniso_U_33
 _atom_site_aniso_U_23
 _atom_site_aniso_U_13
 _atom_site_aniso_U_12
Zn1 0.01687(14) 0.01466(13) 0.01767(13) -0.00264(10) -0.00680(10) -0.00290(10)
Zn2 0.01705(14) 0.01515(13) 0.01802(13) -0.00293(10) -0.00751(10) -0.00231(10)
S1 0.0148(3) 0.0151(3) 0.0263(3) -0.0054(2) -0.0060(2) -0.0026(2)
S2 0.0168(3) 0.0144(3) 0.0295(3) -0.0053(2) -0.0079(2) -0.0020(2)
S3 0.0315(4) 0.0360(4) 0.0289(3) -0.0056(3) -0.0068(3) -0.0192(3)
O1 0.0265(10) 0.0321(10) 0.0262(9) -0.0017(7) -0.0084(7) -0.0162(8)
O2 0.0196(9) 0.0195(8) 0.0191(8) -0.0035(6) -0.0079(7) -0.0015(7)
O3 0.0194(9) 0.0197(8) 0.0279(9) -0.0061(7) -0.0016(7) -0.0045(7)
O4 0.0185(9) 0.0225(9) 0.0366(10) -0.0071(7) -0.0124(8) -0.0022(7)
O5 0.0249(10) 0.0222(9) 0.0300(9) -0.0098(7) -0.0116(8) 0.0049(7)
O6 0.0275(10) 0.0224(9) 0.0275(9) 0.0002(7) -0.0086(7) -0.0109(8)
O7 0.0312(10) 0.0194(8) 0.0226(8) -0.0079(7) -0.0073(7) 0.0015(7)
O8 0.0258(10) 0.0261(9) 0.0315(9) 0.0042(8) -0.0060(8) -0.0113(8)
O9 0.0248(10) 0.0212(9) 0.0286(9) -0.0110(7) -0.0085(7) 0.0005(7)
O10 0.0262(10) 0.0277(9) 0.0311(9) -0.0032(8) -0.0072(8) -0.0128(8)
O11 0.0278(10) 0.0201(8) 0.0280(9) -0.0068(7) -0.0131(8) 0.0055(7)
O12 0.0198(9) 0.0213(9) 0.0328(9) -0.0069(7) 0.0013(7) -0.0046(7)
O13 0.0245(10) 0.0216(9) 0.0455(11) -0.0092(8) -0.0210(8) 0.0014(7)
N2 0.0171(10) 0.0203(10) 0.0215(9) -0.0028(8) -0.0078(8) -0.0025(8)
N3 0.0313(13) 0.0299(12) 0.0238(10) -0.0057(9) -0.0126(9) -0.0040(10)
N4 0.0264(12) 0.0270(11) 0.0260(11) -0.0035(9) -0.0051(9) -0.0106(9)
N5 0.0204(11) 0.0208(10) 0.0196(9) -0.0052(8) -0.0074(8) -0.0014(8)
N6 0.0254(12) 0.0206(10) 0.0234(10) -0.0024(8) -0.0071(8) -0.0078(9)
N7 0.0195(11) 0.0194(10) 0.0199(9) -0.0035(8) -0.0056(8) -0.0045(8)
N8 0.0233(11) 0.0230(10) 0.0221(10) -0.0033(8) -0.0057(8) -0.0056(9)
N9 0.0519(17) 0.0571(17) 0.0216(11) -0.0046(11) -0.0090(11) -0.0285(14)
N10 0.0261(12) 0.0290(11) 0.0256(10) -0.0056(9) -0.0070(9) -0.0105(9)
C1 0.0170(12) 0.0132(10) 0.0269(12) -0.0048(9) -0.0068(9) -0.0036(9)
C2 0.0291(15) 0.0285(13) 0.0218(12) -0.0019(10) -0.0067(10) -0.0125(11)
C3 0.0317(15) 0.0293(13) 0.0254(12) -0.0055(10) -0.0109(11) -0.0133(11)
C4 0.0181(12) 0.0149(11) 0.0268(12) -0.0038(9) -0.0069(9) -0.0027(9)
C5 0.0278(14) 0.0192(12) 0.0249(12) 0.0017(9) -0.0100(10) -0.0076(10)
C6 0.0277(14) 0.0204(12) 0.0271(12) -0.0022(10) -0.0137(10) -0.0069(10)
C7 0.0148(12) 0.0153(11) 0.0264(11) -0.0052(9) -0.0055(9) -0.0049(9)
C8 0.0188(12) 0.0179(11) 0.0212(11) -0.0048(9) -0.0047(9) -0.0045(9)
C9 0.0204(13) 0.0180(11) 0.0246(12) -0.0018(9) -0.0075(10) -0.0049(10)
C10 0.0159(12) 0.0170(11) 0.0262(12) -0.0059(9) -0.0062(9) -0.0049(9)
C11 0.0257(14) 0.0200(12) 0.0247(12) -0.0076(9) -0.0083(10) -0.0025(10)
C12 0.0247(13) 0.0182(11) 0.0263(12) -0.0041(9) -0.0120(10) -0.0022(10)
C13 0.0188(13) 0.0157(11) 0.0264(12) -0.0044(9) -0.0051(10) -0.0026(9)
C14 0.0176(12) 0.0187(11) 0.0184(10) -0.0034(9) -0.0033(9) -0.0064(9)
C15 0.0296(14) 0.0258(13) 0.0213(11) -0.0034(10) -0.0118(10) -0.0068(11)
C16 0.0168(12) 0.0164(11) 0.0289(12) -0.0055(9) -0.0066(10) -0.0050(9)
C17 0.0226(13) 0.0218(12) 0.0227(11) -0.0037(9) -0.0067(10) -0.0050(10)
C18 0.0207(13) 0.0236(12) 0.0233(11) -0.0047(10) -0.0076(10) -0.0053(10)
C19 0.0176(12) 0.0175(11) 0.0249(12) -0.0050(9) -0.0071(9) -0.0043(9)
C20 0.0178(12) 0.0146(10) 0.0252(11) -0.0052(9) -0.0081(9) -0.0026(9)
C21 0.0419(17) 0.0210(12) 0.0233(12) -0.0070(10) -0.0139(11) 0.0040(11)
C22 0.0432(17) 0.0205(12) 0.0281(13) -0.0041(10) -0.0194(12) 0.0045(12)
C23 0.0172(12) 0.0139(10) 0.0263(12) -0.0037(9) -0.0086(9) -0.0026(9)
C24 0.0387(17) 0.0247(13) 0.0237(12) -0.0078(10) -0.0119(11) 0.0070(12)
C25 0.0429(18) 0.0276(14) 0.0243(13) -0.0069(11) -0.0167(12) 0.0105(12)
C26 0.0176(12) 0.0151(11) 0.0293(12) -0.0045(9) -0.0031(10) -0.0021(9)
C27 0.0186(12) 0.0153(11) 0.0244(11) -0.0028(9) -0.0053(9) -0.0021(9)
C28 0.0240(13) 0.0196(11) 0.0210(11) -0.0047(9) -0.0087(9) -0.0046(10)
C29 0.0224(13) 0.0172(11) 0.0191(11) -0.0010(9) -0.0057(9) -0.0035(9)
C30 0.0167(12) 0.0132(10) 0.0247(11) -0.0035(9) -0.0068(9) -0.0013(9)
C31 0.0291(14) 0.0230(12) 0.0201(11) -0.0041(9) -0.0086(10) -0.0063(10)
C32 0.0276(14) 0.0241(12) 0.0184(11) -0.0031(9) -0.0040(10) -0.0066(11)
C33 0.0234(14) 0.0263(13) 0.0368(14) -0.0009(11) -0.0152(11) -0.0009(11)
C34 0.0161(12) 0.0186(11) 0.0195(11) -0.0038(9) -0.0037(9) -0.0009(9)
C35 0.0181(12) 0.0214(12) 0.0247(12) -0.0039(9) -0.0062(9) -0.0045(10)
C36 0.0212(13) 0.0217(12) 0.0232(11) -0.0063(9) -0.0074(10) -0.0047(10)
C37 0.0208(13) 0.0207(12) 0.0204(11) -0.0050(9) -0.0047(9) -0.0020(10)
C38 0.0196(13) 0.0193(11) 0.0250(12) -0.0039(9) -0.0059(10) -0.0032(10)
C39 0.0184(12) 0.0203(12) 0.0239(11) -0.0050(9) -0.0075(9) -0.0015(9)
C40 0.0444(18) 0.0310(14) 0.0218(12) -0.0027(11) -0.0125(12) -0.0127(13)
C41 0.0368(17) 0.0517(18) 0.0252(13) -0.0049(12) -0.0052(12) -0.0245(14)
O14 0.072(2) 0.093(2) 0.0462(14) -0.0193(14) -0.0190(13) -0.0337(16)
C42 0.074(3) 0.077(3) 0.0376(18) -0.0094(18) -0.0066(17) -0.051(2)
C43 0.124(5) 0.157(5) 0.072(3) -0.029(3) 0.015(3) -0.117(5)
N100 0.066(4) 0.081(4) 0.036(2) -0.021(3) 0.005(2) -0.053(3)
C100 0.105(6) 0.126(6) 0.045(3) -0.030(4) -0.005(3) -0.061(5)
N200 0.051(7) 0.050(6) 0.034(5) -0.017(5) -0.003(5) -0.019(5)
C200 0.079(10) 0.077(9) 0.049(7) -0.001(6) -0.029(7) -0.030(8)
O15 0.101(3) 0.084(2) 0.070(2) -0.0158(18) -0.0055(19) 0.008(2)
N11 0.059(2) 0.089(3) 0.068(2) -0.024(2) -0.0045(18) -0.001(2)
C44 0.086(4) 0.080(3) 0.069(3) -0.001(3) -0.013(3) 0.013(3)
C45 0.159(7) 0.212(8) 0.049(3) -0.004(4) -0.003(4) 0.035(6)
C46 0.067(3) 0.071(3) 0.082(3) -0.016(2) -0.016(2) 0.001(2)
 
_geom_special_details
;
 All esds (except the esd in the dihedral angle between two l.s. planes)
 are estimated using the full covariance matrix.  The cell esds are taken
 into account individually in the estimation of esds in distances. angles
 and torsion angles; correlations between esds in cell parameters are only
 used when they are defined by crystal symmetry.  An approximate (isotropic)
 treatment of cell esds is used for estimating esds involving l.s. planes.
;
 
loop_
 _geom_bond_atom_site_label_1
 _geom_bond_atom_site_label_2
 _geom_bond_distance
 _geom_bond_site_symmetry_2
 _geom_bond_publ_flag
Zn1 O2 1.9745(15) . ?
Zn1 O5 2.0058(17) . ?
Zn1 O1 2.0212(17) 1_565 ?
Zn1 O7 2.0353(16) . ?
Zn1 O8 2.0453(17) 1_545 ?
Zn1 Zn2 2.9603(4) 1_545 ?
Zn2 N5 2.0133(19) . ?
Zn2 O10 2.0310(17) . ?
Zn2 O6 2.0441(17) 1_575 ?
Zn2 O9 2.0470(16) 1_565 ?
Zn2 O11 2.0515(17) 1_565 ?
S1 O3 1.4372(18) . ?
S1 O4 1.4377(17) . ?
S1 C1 1.759(2) . ?
S1 C7 1.762(2) . ?
S2 O12 1.4333(18) . ?
S2 O13 1.4374(18) . ?
S2 C23 1.765(2) . ?
S2 C30 1.766(2) . ?
S3 N10 1.602(2) . ?
S3 N4 1.608(2) . ?
O1 C13 1.252(3) . ?
O2 C14 1.245(3) . ?
O5 C16 1.253(3) . ?
O6 C13 1.255(3) . ?
O7 C19 1.251(3) . ?
O8 C26 1.251(3) . ?
O9 C16 1.256(3) . ?
O10 C26 1.255(3) . ?
O11 C19 1.252(3) . ?
N2 C14 1.315(3) . ?
N2 C15 1.452(3) . ?
N2 C33 1.454(3) . ?
N3 C40 1.309(3) . ?
N3 N8 1.367(3) . ?
N4 C38 1.343(3) . ?
N5 C18 1.313(3) . ?
N5 C17 1.369(3) . ?
N6 C17 1.303(3) . ?
N6 N7 1.366(3) . ?
N7 C18 1.339(3) . ?
N7 C34 1.414(3) . ?
N8 C41 1.335(3) . ?
N8 C37 1.410(3) . ?
N9 C41 1.314(3) . ?
N9 C40 1.358(4) . ?
N10 C39 1.344(3) . ?
C1 C2 1.383(3) . ?
C1 C6 1.388(3) . ?
C2 C3 1.379(3) . ?
C3 C4 1.391(3) . ?
C4 C5 1.383(3) . ?
C4 C13 1.502(3) . ?
C5 C6 1.379(3) . ?
C7 C12 1.382(3) . ?
C7 C8 1.385(3) . ?
C8 C9 1.378(3) . ?
C9 C10 1.391(3) . ?
C10 C11 1.390(3) . ?
C10 C16 1.500(3) . ?
C11 C12 1.378(3) . ?
C19 C20 1.502(3) . ?
C20 C21 1.381(3) . ?
C20 C25 1.382(3) . ?
C21 C22 1.377(4) . ?
C22 C23 1.377(3) . ?
C23 C24 1.372(3) . ?
C24 C25 1.379(4) . ?
C26 C27 1.505(3) . ?
C27 C28 1.387(3) . ?
C27 C32 1.388(3) . ?
C28 C29 1.382(3) . ?
C29 C30 1.380(3) . ?
C30 C31 1.384(3) . ?
C31 C32 1.380(3) . ?
C34 C35 1.364(3) . ?
C34 C39 1.413(3) . ?
C35 C36 1.414(3) . ?
C36 C37 1.358(3) . ?
C37 C38 1.420(3) . ?
C38 C39 1.429(3) . ?
O14 C42 1.163(4) . ?
C42 N100 1.324(5) . ?
C42 N200 1.502(12) . ?
C43 N200 1.449(12) . ?
C43 N100 1.504(6) . ?
N100 C100 1.450(7) . ?
N200 C200 1.462(16) . ?
O15 C44 1.222(5) . ?
N11 C44 1.303(6) . ?
N11 C45 1.409(6) . ?
N11 C46 1.444(6) . ?
 
loop_
 _geom_angle_atom_site_label_1
 _geom_angle_atom_site_label_2
 _geom_angle_atom_site_label_3
 _geom_angle
 _geom_angle_site_symmetry_1
 _geom_angle_site_symmetry_3
 _geom_angle_publ_flag
O2 Zn1 O5 99.26(7) . . ?
O2 Zn1 O1 108.11(7) . 1_565 ?
O5 Zn1 O1 89.45(8) . 1_565 ?
O2 Zn1 O7 95.15(7) . . ?
O5 Zn1 O7 165.43(7) . . ?
O1 Zn1 O7 88.14(8) 1_565 . ?
O2 Zn1 O8 99.91(7) . 1_545 ?
O5 Zn1 O8 86.91(8) . 1_545 ?
O1 Zn1 O8 151.97(7) 1_565 1_545 ?
O7 Zn1 O8 88.49(7) . 1_545 ?
O2 Zn1 Zn2 168.36(5) . 1_545 ?
O5 Zn1 Zn2 85.34(5) . 1_545 ?
O1 Zn1 Zn2 82.49(5) 1_565 1_545 ?
O7 Zn1 Zn2 80.10(5) . 1_545 ?
O8 Zn1 Zn2 69.52(5) 1_545 1_545 ?
N5 Zn2 O10 99.06(8) . . ?
N5 Zn2 O6 94.75(8) . 1_575 ?
O10 Zn2 O6 166.17(7) . 1_575 ?
N5 Zn2 O9 104.92(7) . 1_565 ?
O10 Zn2 O9 89.25(7) . 1_565 ?
O6 Zn2 O9 87.90(7) 1_575 1_565 ?
N5 Zn2 O11 101.67(7) . 1_565 ?
O10 Zn2 O11 89.11(8) . 1_565 ?
O6 Zn2 O11 87.38(7) 1_575 1_565 ?
O9 Zn2 O11 153.29(7) 1_565 1_565 ?
N5 Zn2 Zn1 171.43(6) . 1_565 ?
O10 Zn2 Zn1 89.46(5) . 1_565 ?
O6 Zn2 Zn1 76.75(5) 1_575 1_565 ?
O9 Zn2 Zn1 74.08(5) 1_565 1_565 ?
O11 Zn2 Zn1 79.25(5) 1_565 1_565 ?
O3 S1 O4 119.43(11) . . ?
O3 S1 C1 108.39(10) . . ?
O4 S1 C1 107.96(11) . . ?
O3 S1 C7 108.17(11) . . ?
O4 S1 C7 107.99(10) . . ?
C1 S1 C7 103.81(11) . . ?
O12 S2 O13 119.91(12) . . ?
O12 S2 C23 107.91(11) . . ?
O13 S2 C23 107.70(11) . . ?
O12 S2 C30 108.46(11) . . ?
O13 S2 C30 108.30(11) . . ?
C23 S2 C30 103.33(11) . . ?
N10 S3 N4 101.31(11) . . ?
C13 O1 Zn1 123.95(16) . 1_545 ?
C14 O2 Zn1 123.97(15) . . ?
C16 O5 Zn1 120.75(15) . . ?
C13 O6 Zn2 130.54(16) . 1_535 ?
C19 O7 Zn1 126.89(16) . . ?
C26 O8 Zn1 140.45(17) . 1_565 ?
C16 O9 Zn2 133.53(16) . 1_545 ?
C26 O10 Zn2 114.66(16) . . ?
C19 O11 Zn2 127.09(16) . 1_545 ?
C14 N2 C15 121.0(2) . . ?
C14 N2 C33 121.0(2) . . ?
C15 N2 C33 118.06(19) . . ?
C40 N3 N8 101.7(2) . . ?
C38 N4 S3 106.05(17) . . ?
C18 N5 C17 103.83(19) . . ?
C18 N5 Zn2 130.04(17) . . ?
C17 N5 Zn2 125.28(16) . . ?
C17 N6 N7 102.99(19) . . ?
C18 N7 N6 109.71(19) . . ?
C18 N7 C34 130.9(2) . . ?
N6 N7 C34 119.07(18) . . ?
C41 N8 N3 109.2(2) . . ?
C41 N8 C37 129.9(2) . . ?
N3 N8 C37 120.2(2) . . ?
C41 N9 C40 101.7(2) . . ?
C39 N10 S3 106.48(17) . . ?
C2 C1 C6 121.4(2) . . ?
C2 C1 S1 119.57(18) . . ?
C6 C1 S1 119.03(17) . . ?
C3 C2 C1 119.1(2) . . ?
C2 C3 C4 120.3(2) . . ?
C5 C4 C3 119.7(2) . . ?
C5 C4 C13 119.8(2) . . ?
C3 C4 C13 120.5(2) . . ?
C6 C5 C4 120.6(2) . . ?
C5 C6 C1 118.9(2) . . ?
C12 C7 C8 121.8(2) . . ?
C12 C7 S1 119.35(18) . . ?
C8 C7 S1 118.88(17) . . ?
C9 C8 C7 119.3(2) . . ?
C8 C9 C10 119.9(2) . . ?
C11 C10 C9 119.7(2) . . ?
C11 C10 C16 120.3(2) . . ?
C9 C10 C16 120.0(2) . . ?
C12 C11 C10 121.0(2) . . ?
C11 C12 C7 118.4(2) . . ?
O1 C13 O6 125.8(2) . . ?
O1 C13 C4 117.4(2) . . ?
O6 C13 C4 116.8(2) . . ?
O2 C14 N2 123.6(2) . . ?
O5 C16 O9 126.2(2) . . ?
O5 C16 C10 116.9(2) . . ?
O9 C16 C10 116.9(2) . . ?
N6 C17 N5 113.9(2) . . ?
N5 C18 N7 109.6(2) . . ?
O7 C19 O11 126.2(2) . . ?
O7 C19 C20 116.2(2) . . ?
O11 C19 C20 117.6(2) . . ?
C21 C20 C25 119.1(2) . . ?
C21 C20 C19 120.6(2) . . ?
C25 C20 C19 120.3(2) . . ?
C22 C21 C20 120.7(2) . . ?
C21 C22 C23 119.1(2) . . ?
C24 C23 C22 121.2(2) . . ?
C24 C23 S2 118.99(18) . . ?
C22 C23 S2 119.81(18) . . ?
C23 C24 C25 119.1(2) . . ?
C24 C25 C20 120.7(2) . . ?
O8 C26 O10 125.6(2) . . ?
O8 C26 C27 116.1(2) . . ?
O10 C26 C27 118.3(2) . . ?
C28 C27 C32 120.0(2) . . ?
C28 C27 C26 121.0(2) . . ?
C32 C27 C26 119.0(2) . . ?
C29 C28 C27 120.1(2) . . ?
C30 C29 C28 119.2(2) . . ?
C29 C30 C31 121.3(2) . . ?
C29 C30 S2 120.27(18) . . ?
C31 C30 S2 118.33(17) . . ?
C32 C31 C30 119.2(2) . . ?
C31 C32 C27 120.1(2) . . ?
C35 C34 C39 118.9(2) . . ?
C35 C34 N7 119.7(2) . . ?
C39 C34 N7 121.3(2) . . ?
C34 C35 C36 121.0(2) . . ?
C37 C36 C35 121.9(2) . . ?
C36 C37 N8 120.7(2) . . ?
C36 C37 C38 118.5(2) . . ?
N8 C37 C38 120.8(2) . . ?
N4 C38 C37 127.0(2) . . ?
N4 C38 C39 113.3(2) . . ?
C37 C38 C39 119.7(2) . . ?
N10 C39 C34 127.3(2) . . ?
N10 C39 C38 112.8(2) . . ?
C34 C39 C38 119.9(2) . . ?
N3 C40 N9 116.1(2) . . ?
N9 C41 N8 111.3(3) . . ?
O14 C42 N100 125.9(4) . . ?
O14 C42 N200 116.0(5) . . ?
C42 N100 C100 123.0(4) . . ?
C42 N100 C43 118.1(4) . . ?
C100 N100 C43 117.5(4) . . ?
C43 N200 C200 119.5(9) . . ?
C43 N200 C42 110.7(8) . . ?
C200 N200 C42 125.7(10) . . ?
C44 N11 C45 124.3(5) . . ?
C44 N11 C46 117.7(4) . . ?
C45 N11 C46 118.0(4) . . ?
O15 C44 N11 126.9(5) . . ?
 
_refine_diff_density_max    0.506
_refine_diff_density_min   -0.529
_refine_diff_density_rms    0.072

_shelx_res_file
;
TITL pvl615_auto_a.res in P-1
    pvl615_auto_a.res
    created by SHELXL-2018/3 at 18:24:32 on 15-Nov-2021
REM Old TITL pvl615_auto in P-1
REM SHELXT solution in P-1: R1 0.088. Rweak 0.004. Alpha 0.046
REM <I/s>   0.000 for    0 systematic absences.  Orientation as input
REM Formula found by SHELXT:  C51 N7 O15 S3 Zn2
CELL  0.71073  12.7253  12.8791  17.0749   78.809   70.643   75.849
ZERR    4.000   0.0005   0.0002   0.0006    0.002    0.003    0.002
LATT  1
SFAC C H N O S ZN
UNIT 94.03 86.0901 22.03 30 6 4
ACTA
TEMP -132
L.S. 10
BOND
LIST 4
FMAP 2
PLAN 20
REM #####
WGHT    0.037100    2.741700
FVAR       0.22726   0.64726   0.36776   0.66600
ZN1   6    0.260316    0.629122    0.157924    11.00000    0.01687    0.01466 =
         0.01767   -0.00264   -0.00680   -0.00290
ZN2   6    0.294714    1.578554    0.325424    11.00000    0.01705    0.01515 =
         0.01802   -0.00293   -0.00751   -0.00231
S1    5    0.750427    0.029060    0.085915    11.00000    0.01481    0.01514 =
         0.02626   -0.00536   -0.00598   -0.00257
S2    5   -0.198310    1.185389    0.385259    11.00000    0.01681    0.01440 =
         0.02954   -0.00526   -0.00793   -0.00202
S3    5    0.102154    1.299150    0.726258    11.00000    0.03154    0.03599 =
         0.02889   -0.00564   -0.00675   -0.01921
O1    4    0.392760   -0.296344    0.131572    11.00000    0.02654    0.03211 =
         0.02622   -0.00173   -0.00844   -0.01617
O2    4    0.205631    0.658832    0.058732    11.00000    0.01963    0.01949 =
         0.01911   -0.00348   -0.00794   -0.00153
O3    4    0.798530    0.043253   -0.003489    11.00000    0.01945    0.01968 =
         0.02787   -0.00614   -0.00157   -0.00447
O4    4    0.824334    0.001095    0.137930    11.00000    0.01845    0.02251 =
         0.03658   -0.00713   -0.01240   -0.00216
O5    4    0.369877    0.489741    0.133340    11.00000    0.02485    0.02222 =
         0.03004   -0.00979   -0.01164    0.00494
O6    4    0.410075   -0.325829    0.260302    11.00000    0.02748    0.02239 =
         0.02750    0.00019   -0.00861   -0.01094
O7    4    0.157609    0.760858    0.211246    11.00000    0.03118    0.01936 =
         0.02256   -0.00795   -0.00729    0.00146
O8    4    0.147695    1.537886    0.237035    11.00000    0.02580    0.02606 =
         0.03145    0.00416   -0.00598   -0.01135
O9    4    0.399385    0.456979    0.258713    11.00000    0.02477    0.02121 =
         0.02858   -0.01104   -0.00852    0.00050
O10   4    0.169169    1.491745    0.364378    11.00000    0.02616    0.02774 =
         0.03109   -0.00316   -0.00722   -0.01280
O11   4    0.173320    0.717237    0.340527    11.00000    0.02778    0.02010 =
         0.02797   -0.00681   -0.01312    0.00553
O12   4   -0.251841    1.167879    0.473654    11.00000    0.01985    0.02133 =
         0.03276   -0.00692    0.00126   -0.00461
O13   4   -0.266344    1.216891    0.328976    11.00000    0.02454    0.02156 =
         0.04549   -0.00922   -0.02103    0.00141
N2    3    0.089396    0.751927   -0.016827    11.00000    0.01709    0.02029 =
         0.02146   -0.00280   -0.00777   -0.00253
N3    3    0.290964    1.419627    0.954710    11.00000    0.03134    0.02990 =
         0.02378   -0.00574   -0.01263   -0.00404
N4    3    0.127349    1.323679    0.806449    11.00000    0.02643    0.02702 =
         0.02603   -0.00348   -0.00509   -0.01062
N5    3    0.338101    1.555214    0.431609    11.00000    0.02041    0.02078 =
         0.01958   -0.00520   -0.00735   -0.00144
N6    3    0.402766    1.595569    0.526868    11.00000    0.02540    0.02065 =
         0.02337   -0.00240   -0.00707   -0.00778
N7    3    0.339600    1.516973    0.560565    11.00000    0.01947    0.01935 =
         0.01987   -0.00353   -0.00561   -0.00449
N8    3    0.221162    1.409723    0.911694    11.00000    0.02325    0.02304 =
         0.02206   -0.00325   -0.00572   -0.00558
N9    3    0.120348    1.391891    1.043373    11.00000    0.05187    0.05712 =
         0.02163   -0.00462   -0.00903   -0.02847
N10   3    0.182759    1.366710    0.651833    11.00000    0.02614    0.02903 =
         0.02563   -0.00562   -0.00697   -0.01049
C1    1    0.665298   -0.068961    0.112661    11.00000    0.01704    0.01324 =
         0.02687   -0.00482   -0.00680   -0.00361
C2    1    0.623958   -0.090473    0.053336    11.00000    0.02914    0.02848 =
         0.02180   -0.00193   -0.00673   -0.01253
AFIX  43
H2    2    0.644890   -0.055844   -0.002462    11.00000   -1.20000
AFIX   0
C3    1    0.551923   -0.162901    0.076326    11.00000    0.03173    0.02930 =
         0.02541   -0.00545   -0.01094   -0.01326
AFIX  43
H3    2    0.523680   -0.178977    0.035980    11.00000   -1.20000
AFIX   0
C4    1    0.520426   -0.212526    0.158312    11.00000    0.01813    0.01491 =
         0.02677   -0.00385   -0.00687   -0.00275
C5    1    0.564977   -0.192096    0.216171    11.00000    0.02780    0.01921 =
         0.02494    0.00168   -0.00999   -0.00757
AFIX  43
H5    2    0.545533   -0.227977    0.271640    11.00000   -1.20000
AFIX   0
C6    1    0.637355   -0.120141    0.194121    11.00000    0.02772    0.02038 =
         0.02713   -0.00216   -0.01372   -0.00690
AFIX  43
H6    2    0.667582   -0.105836    0.233999    11.00000   -1.20000
AFIX   0
C7    1    0.652833    0.148084    0.115823    11.00000    0.01475    0.01532 =
         0.02642   -0.00522   -0.00547   -0.00492
C8    1    0.606928    0.216457    0.057003    11.00000    0.01878    0.01787 =
         0.02119   -0.00478   -0.00468   -0.00448
AFIX  43
H8    2    0.628080    0.199330    0.001492    11.00000   -1.20000
AFIX   0
C9    1    0.530272    0.309560    0.079848    11.00000    0.02041    0.01801 =
         0.02463   -0.00184   -0.00746   -0.00491
AFIX  43
H9    2    0.497852    0.356794    0.040143    11.00000   -1.20000
AFIX   0
C10   1    0.500426    0.334281    0.161154    11.00000    0.01587    0.01697 =
         0.02620   -0.00588   -0.00622   -0.00490
C11   1    0.549410    0.265498    0.218535    11.00000    0.02568    0.01998 =
         0.02465   -0.00756   -0.00829   -0.00249
AFIX  43
H11   2    0.530251    0.283427    0.273630    11.00000   -1.20000
AFIX   0
C12   1    0.625389    0.171640    0.196671    11.00000    0.02473    0.01823 =
         0.02627   -0.00406   -0.01198   -0.00220
AFIX  43
H12   2    0.658089    0.124307    0.236188    11.00000   -1.20000
AFIX   0
C13   1    0.434885   -0.284621    0.185228    11.00000    0.01882    0.01573 =
         0.02639   -0.00445   -0.00514   -0.00258
C14   1    0.124911    0.732352    0.049617    11.00000    0.01765    0.01865 =
         0.01842   -0.00336   -0.00330   -0.00636
AFIX  43
H14   2    0.086887    0.776749    0.093050    11.00000   -1.20000
AFIX   0
C15   1    0.145182    0.688444   -0.086146    11.00000    0.02962    0.02579 =
         0.02129   -0.00338   -0.01181   -0.00676
AFIX 137
H15A  2    0.172311    0.736192   -0.137516    11.00000   -1.50000
H15B  2    0.091180    0.650851   -0.093136    11.00000   -1.50000
H15C  2    0.209709    0.635443   -0.074571    11.00000   -1.50000
AFIX   0
C16   1    0.416558    0.435275    0.186355    11.00000    0.01683    0.01637 =
         0.02887   -0.00553   -0.00661   -0.00501
C17   1    0.399531    1.615939    0.449801    11.00000    0.02264    0.02184 =
         0.02273   -0.00374   -0.00674   -0.00499
AFIX  43
H17   2    0.436455    1.668190    0.409880    11.00000   -1.20000
AFIX   0
C18   1    0.301811    1.494697    0.502457    11.00000    0.02070    0.02356 =
         0.02335   -0.00471   -0.00759   -0.00532
AFIX  43
H18   2    0.255790    1.443023    0.511153    11.00000   -1.20000
AFIX   0
C19   1    0.134919    0.777724    0.285360    11.00000    0.01762    0.01745 =
         0.02492   -0.00497   -0.00713   -0.00433
C20   1    0.052807    0.880173    0.309701    11.00000    0.01777    0.01461 =
         0.02523   -0.00519   -0.00806   -0.00264
C21   1    0.009653    0.952011    0.251322    11.00000    0.04194    0.02100 =
         0.02327   -0.00698   -0.01392    0.00400
AFIX  43
H21   2    0.033128    0.936976    0.195086    11.00000   -1.20000
AFIX   0
C22   1   -0.067008    1.045171    0.273711    11.00000    0.04319    0.02054 =
         0.02807   -0.00407   -0.01943    0.00452
AFIX  43
H22   2   -0.096799    1.094119    0.233403    11.00000   -1.20000
AFIX   0
C23   1   -0.099931    1.066466    0.355291    11.00000    0.01721    0.01392 =
         0.02625   -0.00370   -0.00857   -0.00257
C24   1   -0.058873    0.995984    0.414529    11.00000    0.03874    0.02470 =
         0.02366   -0.00778   -0.01193    0.00703
AFIX  43
H24   2   -0.082696    1.011243    0.470726    11.00000   -1.20000
AFIX   0
C25   1    0.017448    0.902681    0.391421    11.00000    0.04293    0.02763 =
         0.02433   -0.00693   -0.01672    0.01050
AFIX  43
H25   2    0.046036    0.853330    0.432127    11.00000   -1.20000
AFIX   0
C26   1    0.125132    1.488245    0.309395    11.00000    0.01761    0.01513 =
         0.02931   -0.00454   -0.00306   -0.00209
C27   1    0.038501    1.417840    0.330507    11.00000    0.01860    0.01527 =
         0.02444   -0.00276   -0.00535   -0.00207
C28   1   -0.010142    1.377010    0.412619    11.00000    0.02400    0.01964 =
         0.02102   -0.00467   -0.00869   -0.00461
AFIX  43
H28   2    0.008626    1.395966    0.456711    11.00000   -1.20000
AFIX   0
C29   1   -0.085907    1.308759    0.430400    11.00000    0.02239    0.01719 =
         0.01908   -0.00102   -0.00574   -0.00346
AFIX  43
H29   2   -0.120040    1.281160    0.486594    11.00000   -1.20000
AFIX   0
C30   1   -0.111355    1.281206    0.365517    11.00000    0.01670    0.01321 =
         0.02473   -0.00353   -0.00677   -0.00127
C31   1   -0.065665    1.323489    0.283461    11.00000    0.02906    0.02304 =
         0.02006   -0.00414   -0.00862   -0.00626
AFIX  43
H31   2   -0.085314    1.305091    0.239568    11.00000   -1.20000
AFIX   0
C32   1    0.008756    1.392675    0.266205    11.00000    0.02759    0.02408 =
         0.01844   -0.00307   -0.00403   -0.00657
AFIX  43
H32   2    0.039690    1.423137    0.210247    11.00000   -1.20000
AFIX   0
C33   1   -0.005753    0.838969   -0.023637    11.00000    0.02342    0.02632 =
         0.03679   -0.00093   -0.01516   -0.00090
AFIX 137
H33A  2    0.020703    0.893716   -0.070026    11.00000   -1.50000
H33B  2   -0.038353    0.871689    0.028601    11.00000   -1.50000
H33C  2   -0.063723    0.810151   -0.034076    11.00000   -1.50000
AFIX   0
C34   1    0.315390    1.481067    0.647212    11.00000    0.01608    0.01858 =
         0.01952   -0.00376   -0.00373   -0.00087
C35   1    0.364991    1.516588    0.693922    11.00000    0.01813    0.02144 =
         0.02474   -0.00385   -0.00617   -0.00453
AFIX  43
H35   2    0.421090    1.559451    0.666954    11.00000   -1.20000
AFIX   0
C36   1    0.334202    1.490598    0.781874    11.00000    0.02115    0.02175 =
         0.02318   -0.00628   -0.00740   -0.00471
AFIX  43
H36   2    0.370805    1.515961    0.812627    11.00000   -1.20000
AFIX   0
C37   1    0.253811    1.430422    0.823673    11.00000    0.02077    0.02071 =
         0.02039   -0.00501   -0.00474   -0.00198
C38   1    0.203574    1.388670    0.776679    11.00000    0.01959    0.01926 =
         0.02495   -0.00390   -0.00593   -0.00325
C39   1    0.235686    1.413535    0.687688    11.00000    0.01836    0.02027 =
         0.02394   -0.00499   -0.00754   -0.00149
C40   1    0.226429    1.407198    1.032262    11.00000    0.04439    0.03102 =
         0.02180   -0.00273   -0.01253   -0.01266
AFIX  43
H40   2    0.252345    1.408799    1.078100    11.00000   -1.20000
AFIX   0
C41   1    0.121124    1.394792    0.965848    11.00000    0.03682    0.05166 =
         0.02521   -0.00491   -0.00517   -0.02448
AFIX  43
H41   2    0.058525    1.387233    0.950309    11.00000   -1.20000
AFIX   0
O14   4    0.568444   -0.208661    0.398127    11.00000    0.07221    0.09259 =
         0.04617   -0.01927   -0.01895   -0.03370
C42   1    0.548600   -0.199745    0.468349    11.00000    0.07389    0.07711 =
         0.03765   -0.00936   -0.00663   -0.05105
H1AA  2    0.488518   -0.234075    0.511417    11.00000   -1.50000
C43   1    0.699193   -0.102349    0.445804    11.00000    0.12354    0.15653 =
         0.07172   -0.02917    0.01526   -0.11655
PART 1 10.7000
N100  3    0.588703   -0.135111    0.497992    10.70000    0.06609    0.08125 =
         0.03590   -0.02081    0.00497   -0.05263
C100  1    0.545340   -0.113194    0.584336    10.70000    0.10481    0.12573 =
         0.04530   -0.03028   -0.00475   -0.06116
AFIX 137
H10A  2    0.531428   -0.035278    0.586070    10.70000   -1.50000
H10B  2    0.601143   -0.150068    0.613724    10.70000   -1.50000
H10C  2    0.474152   -0.139429    0.611552    10.70000   -1.50000
AFIX   0
PART 2 10.30000
N200  3    0.647275   -0.191784    0.495062    10.30000    0.05076    0.04967 =
         0.03370   -0.01675   -0.00323   -0.01927
C200  1    0.664596   -0.234709    0.576592    10.30000    0.07871    0.07745 =
         0.04897   -0.00055   -0.02876   -0.03042
AFIX 137
H20A  2    0.607079   -0.277784    0.608973    10.30000   -1.50000
H20B  2    0.657921   -0.174869    0.606797    10.30000   -1.50000
H20C  2    0.740398   -0.280248    0.568659    10.30000   -1.50000
AFIX   0
PART 0
O15   4   -0.153608    0.877958    0.598007    11.00000    0.10051    0.08410 =
         0.06981   -0.01582   -0.00555    0.00817
N11   3   -0.265428    0.949850    0.715713    11.00000    0.05872    0.08869 =
         0.06753   -0.02411   -0.00450   -0.00118
C44   1   -0.189306    0.876323    0.673977    11.00000    0.08585    0.08023 =
         0.06921   -0.00068   -0.01279    0.01275
AFIX  43
H44   2   -0.158291    0.814957    0.706018    11.00000   -1.20000
AFIX   0
C45   1   -0.301640    0.944416    0.803595    11.00000    0.15940    0.21228 =
         0.04923   -0.00389   -0.00276    0.03509
AFIX  93
H45A  2   -0.270104    0.884241    0.836326    11.00000   -1.20000
H45B  2   -0.357590    1.000928    0.830113    11.00000   -1.20000
AFIX   0
C46   1   -0.313710    1.044081    0.668504    11.00000    0.06699    0.07101 =
         0.08194   -0.01620   -0.01618    0.00061
AFIX 137
H46A  2   -0.316486    1.108933    0.691698    11.00000   -1.50000
H46B  2   -0.390764    1.039163    0.671867    11.00000   -1.50000
H46C  2   -0.266654    1.048114    0.609900    11.00000   -1.50000
REM #####
REM #####
REM #####
REM #####
REM #####
AFIX   0
HKLF 4




REM  pvl615_auto_a.res in P-1
REM wR2 = 0.0959. GooF = S = 1.058. Restrained GooF = 1.058 for all data
REM R1 = 0.0365 for 9533 Fo > 4sig(Fo) and 0.0465 for all 11308 data
REM 732 parameters refined using 0 restraints

END

WGHT      0.0375      3.0083

REM Highest difference peak  0.506.  deepest hole -0.529.  1-sigma level  0.072
Q1    1  -0.3868  0.9913  0.6510  11.00000  0.05    0.51
Q2    1   0.0946  0.8264  0.2991  11.00000  0.05    0.46
Q3    1   0.6237 -0.0246  0.4191  11.00000  0.05    0.45
Q4    1   0.7167 -0.1140  0.3880  11.00000  0.05    0.42
Q5    1   0.6946  0.0867  0.0970  11.00000  0.05    0.41
Q6    1   0.2330  1.6265  0.3220  11.00000  0.05    0.39
Q7    1  -0.1330  1.1221  0.3663  11.00000  0.05    0.38
Q8    1   0.7017 -0.0440  0.4808  11.00000  0.05    0.38
Q9    1  -0.2731  0.8279  0.7888  11.00000  0.05    0.37
Q10   1   0.5085  0.3178  0.1220  11.00000  0.05    0.37
Q11   1   0.7118 -0.0285  0.1001  11.00000  0.05    0.37
Q12   1   0.6539 -0.0951  0.1469  11.00000  0.05    0.37
Q13   1   0.3481  1.4618  0.9248  11.00000  0.05    0.37
Q14   1   0.0186  1.4181  0.3010  11.00000  0.05    0.35
Q15   1   0.6715 -0.0203  0.4493  11.00000  0.05    0.34
Q16   1   0.2599  0.6444  0.2072  11.00000  0.05    0.34
Q17   1   0.0495  0.8938  0.3470  11.00000  0.05    0.34
Q18   1   0.5226  0.2972  0.1891  11.00000  0.05    0.34
Q19   1  -0.0918  1.3053  0.3319  11.00000  0.05    0.33
Q20   1  -0.1532  1.2422  0.3724  11.00000  0.05    0.33
;
_shelx_res_checksum   74039

_shelx_hkl_file
;
   0   0  -2  479.02    9.60
   0   0   2  483.16    9.60
   0   0  -2  490.77    9.54
   0   0   2  481.65    9.53
   0   0  -3  204.07    4.43
   0   0   3  204.91    4.13
   0   0   3  204.28    4.42
   0   0  -3  200.79    4.13
   0   0  -3  205.24    4.34
   0   0   3  196.83    4.32
   0   0   3  200.42    4.10
   0   0  -3  196.07    4.10
   0   0  -4   57.34    1.46
   0   0   4   60.33    1.81
   0   0  -4   55.91    1.78
   0   0   4   55.13    1.66
   0   0  -4   55.80    1.70
   0   0  -4   54.94    1.42
   0   0   4   54.05    1.42
   0   0   4   59.93    1.49
   0   0  -5   12.70    0.63
   0   0  -5   11.94    0.88
   0   0   5   14.22    0.94
   0   0  -5   15.88    0.96
   0   0   5   12.37    0.77
   0   0  -5   12.17    0.59
   0   0   5   12.09    0.62
   0   0  -6  142.91    3.65
   0   0   6  139.53    3.74
   0   0   6  142.94    3.56
   0   0  -6  135.86    3.15
   0   0   6  133.47    3.16
   0   0   7    3.19    0.41
   0   0   7    3.07    0.61
   0   0   7    2.46    0.45
   0   0  -7    3.30    0.38
   0   0   8  167.82    4.63
   0   0   8  162.95    4.33
   0   0  -8  162.75    3.82
   0   0   8  166.35    3.89
   0   0   9   28.50    1.64
   0   0   9   27.31    1.44
   0   0  -9   28.21    1.12
   0   0   9   29.38    1.18
   0   0  10   41.30    2.08
   0   0  10   39.17    1.85
   0   0 -10   38.66    1.42
   0   0  10   40.07    1.49
   0   0  11   21.92    1.60
   0   0  11   23.54    1.48
   0   0 -11   24.22    1.10
   0   0  11   25.52    1.17
   0   0  12  109.23    3.97
   0   0  12  104.58    3.63
   0   0 -12  105.07    2.92
   0   0  12  108.59    3.04
   0   0  13    5.19    0.96
   0   0  13    5.64    0.87
   0   0 -13    6.00    0.60
   0   0  13    6.37    0.65
   0   0  14    2.63    0.84
   0   0  14    3.39    0.69
   0   0 -14    2.99    0.48
   0   0  14    3.21    0.50
   0   0  15   19.81    1.80
   0   0 -15   21.07    1.09
   0   0  15   22.17    1.22
   0   0  16   20.40    1.96
   0   0  16   22.71    1.21
   0   0  17  112.37    4.66
   0   0  17  113.98    4.89
   0   0  18   22.64    2.10
   0   0  18   22.78    2.21
   0   0  19   22.75    2.16
   0   0  19   22.47    2.23
   0   0  20    7.41    1.44
   0   0  20    6.16    1.28
   0   0  21   -0.36    0.92
   0  -1  21   -0.42    0.82
   0  -1  20   -0.19    0.84
   0  -1  20   -1.63    1.09
   0  -1  19   22.54    2.25
   0  -1  19   24.25    2.30
   0  -1  18    2.06    0.95
   0  -1  18    1.66    1.03
   0  -1  17  119.75    5.00
   0  -1  16   -0.18    0.73
   0  -1  16    0.68    0.45
   0  -1  15   12.70    1.50
   0  -1  15   11.42    1.21
   0   1 -15   12.83    0.95
   0  -1  15   12.71    1.03
   0  -1  14   34.11    2.23
   0  -1  14   35.65    2.01
   0   1 -14   35.85    1.61
   0  -1  14   36.72    1.73
   0  -1  13    2.07    0.66
   0  -1  13    1.56    0.53
   0   1 -13    2.25    0.46
   0  -1  13    2.56    0.51
   0  -1  12    4.38    0.81
   0  -1  12    9.56    0.96
   0   1 -12    8.41    0.75
   0  -1  12    8.52    0.80
   0  -1  11  388.06    9.42
   0  -1  11  378.68    8.91
   0   1 -11  381.97    8.45
   0  -1  11  383.96    8.61
   0  -1  10  299.60    7.49
   0  -1  10  297.43    7.06
   0   1 -10  288.98    6.67
   0  -1  10  295.35    6.82
   0  -1   9    4.53    0.73
   0  -1   9    6.11    0.63
   0   1  -9    4.60    0.52
   0  -1   9    4.72    0.54
   0  -1   8   93.55    3.01
   0   1  -8   91.43    2.66
   0  -1   8   87.62    2.67
   0   1  -8   87.13    2.51
   0  -1   8   91.05    2.63
   0   1  -7  173.88    4.22
   0  -1   7  176.83    4.55
   0   1  -7  172.67    4.57
   0  -1   7  170.42    4.21
   0   1  -7  172.96    4.11
   0  -1   7  171.97    4.20
   0   1  -6  135.09    3.31
   0  -1   6  135.43    3.55
   0   1  -6  129.86    3.52
   0  -1   6  126.77    3.22
   0   1  -6  127.79    3.18
   0  -1   6  128.51    3.28
   0   1  -5  240.53    5.48
   0  -1   5  266.15    5.78
   0   1  -5  259.48    5.58
   0   1  -5  253.71    5.75
   0  -1   5  251.93    5.46
   0   1  -5  254.03    5.49
   0  -1   5  247.03    5.53
   0   1  -4    0.14    0.33
   0  -1   4   -0.17    0.42
   0   1  -4    0.44    0.33
   0  -1   4    0.56    0.38
   0   1  -4    0.29    0.29
   0  -1   4    0.43    0.27
   0   1  -4    0.54    0.30
   0   1  -3  171.76    3.72
   0  -1   3  173.48    3.70
   0   1  -3  184.28    3.95
   0   1  -3  177.96    3.91
   0  -1   3  182.91    3.92
   0  -1   3  179.63    3.94
   0   1  -2   18.75    0.67
   0  -1   2   20.57    0.69
   0   1  -2   19.22    0.74
   0  -1   2   19.96    0.76
   0  -1   1  421.54    5.68
   0   1  -1  191.60    5.41
   0  -1  -1  741.11   14.42
   0   1   2 1314.64   25.70
   0  -1  -2 1338.11   25.71
   0   1   3  350.23    7.25
   0   1   3  341.00    7.21
   0  -1  -3  342.59    7.22
   0   1   4   31.93    1.31
   0  -1  -4   28.34    1.27
   0   1   4   30.58    1.21
   0   1   4   29.32    0.85
   0  -1  -4   29.59    0.84
   0   1   5    0.17    0.18
   0   1   5   -0.24    0.56
   0   1   5    0.26    0.37
   0  -1  -5   -0.20    0.49
   0   1   5    0.28    0.21
   0  -1  -5    0.49    0.23
   0   1   6  613.10   12.60
   0   1   6  616.83   12.49
   0  -1  -6  557.85   11.71
   0   1   6  606.45   11.70
   0   1   6  598.77   11.62
   0   1   7  125.92    3.64
   0   1   7  124.51    3.50
   0  -1  -7  114.15    2.80
   0   1   7  122.40    2.77
   0   1   7  125.33    2.73
   0   1   8  338.12    7.82
   0   1   8  329.54    7.59
   0  -1  -8  304.92    6.69
   0   1   8  320.32    6.65
   0   1   8  331.67    6.64
   0   1   9    4.52    0.78
   0   1   9    3.87    0.64
   0  -1  -9    4.14    0.41
   0   1   9    4.94    0.41
   0   1  10  398.35    9.33
   0   1  10  390.89    9.04
   0  -1 -10  356.55    7.88
   0   1  10  388.11    7.86
   0   1  11    3.24    0.67
   0   1  11    2.64    0.77
   0   1  11    3.49    0.41
   0  -1 -11    3.87    0.43
   0   1  12   98.87    3.77
   0   1  12   92.45    3.45
   0  -1 -12   88.31    2.44
   0   1  12   97.83    2.51
   0   1  13    0.75    0.46
   0   1  13    1.75    0.75
   0   1  13    0.32    0.29
   0  -1 -13    0.77    0.27
   0   1  14    1.60    0.62
   0   1  14    1.43    0.75
   0   1  14    2.54    0.38
   0  -1 -14    1.79    0.33
   0   1  15   18.40    1.78
   0   1  15   18.10    0.87
   0   1  16    5.25    0.95
   0   1  16    5.77    1.15
   0   1  16    5.11    0.48
   0   1  17    1.31    0.72
   0   1  17    0.73    0.76
   0   1  18   46.53    2.85
   0   1  18   47.03    3.14
   0   1  19   16.07    1.72
   0   1  19   14.06    1.91
   0   1  20   30.50    2.50
   0   1  20   28.61    2.65
   0   1  21    4.03    1.19
   0  -2  21    0.14    1.02
   0  -2  20    1.93    1.11
   0  -2  20    1.20    0.98
   0  -2  19    7.75    1.57
   0  -2  19   10.68    1.55
   0  -2  18   73.03    3.94
   0  -2  18   64.22    3.68
   0  -2  17   42.89    2.84
   0  -2  17   49.57    2.34
   0  -2  16   56.87    3.16
   0  -2  16   61.74    2.63
   0  -2  15   10.18    1.37
   0  -2  15    9.90    1.05
   0   2 -15    9.58    0.90
   0  -2  15   11.43    1.05
   0  -2  14    1.33    0.83
   0  -2  14    1.16    0.48
   0   2 -14    1.47    0.48
   0  -2  14    0.60    0.44
   0  -2  13   45.85    2.46
   0  -2  13   44.07    2.08
   0   2 -13   46.58    1.98
   0  -2  13   45.98    2.11
   0  -2  12   12.41    1.25
   0  -2  12   13.68    1.08
   0   2 -12   13.33    0.99
   0  -2  12   11.59    1.01
   0  -2  11  177.74    5.21
   0  -2  11  173.62    4.68
   0   2 -11  170.19    4.60
   0  -2  11  179.31    4.82
   0  -2  10   -0.43    0.50
   0   2 -10   -0.59    0.45
   0  -2  10   -0.02    0.30
   0   2 -10   -0.39    0.40
   0  -2  10   -0.15    0.41
   0   2  -9  281.57    6.63
   0   2  -9  266.32    6.81
   0  -2   9  275.20    6.81
   0  -2   9  269.78    6.29
   0   2  -9  267.96    6.37
   0  -2   9  274.09    6.55
   0  -2   8    0.19    0.51
   0   2  -8    0.44    0.40
   0   2  -8   -0.04    0.39
   0  -2   8    0.29    0.28
   0   2  -8    0.06    0.31
   0  -2   8    0.37    0.44
   0   2  -7  190.45    4.77
   0  -2   7  193.43    4.83
   0   2  -7  187.05    4.80
   0  -2   7  186.03    4.38
   0   2  -7  189.19    4.64
   0  -2   7  191.82    4.76
   0   2  -6   15.49    0.96
   0   2  -6   14.80    0.92
   0  -2   6   14.26    0.92
   0  -2   6   14.69    0.72
   0   2  -6   15.08    0.90
   0  -2   6   14.02    0.95
   0  -2   5  920.60   18.21
   0   2  -5  944.61   18.79
   0   2  -5  922.97   18.61
   0  -2   5  943.61   18.64
   0  -2   5  940.95   18.77
   0  -2   4    0.30    0.20
   0   2  -4    0.57    0.24
   0   2  -4    0.50    0.33
   0  -2   4   -0.27    0.40
   0  -2   4    0.46    0.47
   0   2  -4    0.62    0.42
   0   2  -3   74.53    1.93
   0  -2   3   77.76    1.96
   0   2  -3   76.69    2.20
   0  -2   3   75.72    2.18
   0  -2   2   11.14    0.73
   0   2  -2    9.97    0.48
   0   2  -2   10.40    0.68
   0   2  -1  592.82   12.01
   0  -2   1  602.58   12.00
   0   2   0  123.55    2.70
   0  -2   0  129.73    2.90
   0   2   0  120.93    2.84
   0   2   1 1362.51   26.40
   0   2   1 1351.58   26.33
   0  -2  -1 1375.57   26.34
   0   2   2   12.09    0.68
   0  -2  -2   12.99    0.76
   0  -2  -2   13.08    0.53
   0   2   2   11.98    0.51
   0   2   3   43.55    1.49
   0  -2  -3   42.58    1.57
   0  -2  -3   46.09    1.10
   0   2   3   42.23    1.07
   0  -2  -4   73.35    2.34
   0   2   4   73.81    2.27
   0   2   5   69.36    2.29
   0  -2  -5   64.92    2.27
   0   2   5   65.20    1.69
   0   2   5   63.85    2.20
   0   2   6   13.39    1.10
   0   2   6   13.19    0.61
   0   2   6   13.19    0.97
   0   2   7   78.73    2.75
   0   2   7   76.29    1.93
   0   2   7   77.85    2.67
   0   2   8   23.70    1.50
   0   2   8   23.24    0.84
   0   2   8   24.53    1.44
   0   2   9  106.45    3.61
   0   2   9  104.47    3.50
   0   2   9  108.13    2.57
   0   2  10   17.42    1.42
   0   2  10   14.28    1.21
   0   2  10   17.12    0.71
   0   2  10   16.75    0.55
   0   2  11   35.10    1.96
   0   2  11   35.90    2.10
   0   2  11   34.22    0.94
   0   2  12  188.98    5.57
   0   2  12  184.41    5.76
   0   2  12  181.59    3.79
   0   2  13   25.39    1.83
   0   2  13   29.08    2.08
   0   2  14   31.60    2.26
   0   2  15   11.23    1.24
   0   2  15   11.36    1.47
   0   2  16    0.34    0.72
   0   2  16    0.30    0.89
   0   2  17   17.30    1.63
   0   2  17   14.90    1.77
   0   2  18    2.17    0.89
   0   2  18    2.71    1.03
   0   2  19   16.53    1.75
   0   2  19   20.55    2.28
   0   2  20    0.12    0.71
   0   2  20    0.50    0.96
   0  -3  19    6.03    1.43
   0  -3  18   15.28    1.92
   0  -3  18   14.56    1.84
   0  -3  17   -0.75    0.75
   0  -3  17   -0.25    0.61
   0  -3  16   97.28    4.25
   0  -3  16   94.89    3.67
   0  -3  15   29.68    2.15
   0  -3  15   29.93    1.70
   0   3 -15   28.58    1.70
   0  -3  15   30.44    1.87
   0  -3  14   10.89    1.29
   0  -3  14    8.51    0.90
   0   3 -14    9.07    0.97
   0  -3  14   10.35    1.11
   0  -3  13   53.05    2.68
   0  -3  13   56.52    2.26
   0   3 -13   56.48    2.39
   0  -3  13   59.10    2.57
   0  -3  12  359.64    8.83
   0  -3  12  336.29    7.95
   0   3 -12  338.59    8.25
   0  -3  12  348.45    8.51
   0  -3  11  293.30    7.53
   0   3 -11  290.85    7.43
   0  -3  11  292.28    6.84
   0   3 -11  290.97    7.20
   0  -3  11  297.30    7.40
   0  -3  10  455.32   10.44
   0   3 -10  464.43   10.48
   0  -3  10  445.98    9.70
   0   3 -10  438.28   10.14
   0  -3  10  458.81   10.39
   0   3  -9   46.07    2.06
   0   3  -9   45.27    2.03
   0  -3   9   47.73    2.06
   0  -3   9   45.92    1.62
   0   3  -9   46.91    1.98
   0  -3   9   45.71    2.05
   0  -3   8    0.96    0.45
   0   3  -8    1.14    0.49
   0   3  -8    1.26    0.48
   0  -3   8    1.36    0.31
   0   3  -8    1.25    0.43
   0  -3   8    1.66    0.59
   0  -3   7    1.55    0.28
   0  -3   7    1.85    0.48
   0   3  -7    1.71    0.49
   0   3  -7    1.33    0.42
   0  -3   7    0.82    0.53
   0   3  -6   52.29    2.04
   0  -3   6   53.18    1.85
   0   3  -6   50.62    1.79
   0  -3   6   52.82    2.06
   0   3  -5   24.49    1.09
   0   3  -5   25.17    1.32
   0  -3   5   25.39    1.34
   0   3  -4  113.34    2.83
   0   3  -4  117.40    3.26
   0  -3   4  117.78    3.29
   0   3  -3  253.21    5.76
   0   3  -3  240.89    5.20
   0  -3   3  252.48    5.78
   0  -3   2   11.26    0.87
   0   3  -2   12.79    0.84
   0   3  -1  409.21    8.27
   0   3  -1  439.13    8.92
   0  -3   1  425.96    8.87
   0   3   0   21.34    0.83
   0  -3   0   22.57    1.04
   0   3   0   21.57    0.98
   0   3   1 1568.36   29.99
   0   3   1 1498.92   29.97
   0  -3  -1 1563.21   30.03
   0   3   2  125.75    3.11
   0  -3  -2  122.43    2.92
   0   3   2  119.67    2.89
   0   3   3   46.69    1.68
   0  -3  -3   50.99    1.40
   0   3   3   46.32    1.36
   0   3   4    6.02    0.71
   0  -3  -4    7.00    0.45
   0   3   4    7.05    0.42
   0   3   5  396.47    7.99
   0   3   5  409.10    9.02
   0  -3  -5  411.06    8.01
   0   3   5  399.30    7.98
   0   3   6    4.36    0.69
   0   3   6    3.72    0.71
   0   3   6    4.78    0.46
   0   3   7  943.17   19.32
   0   3   7  911.11   18.28
   0   3   7  938.67   19.29
   0   3   8   96.60    3.27
   0   3   8   88.70    2.35
   0   3   8   92.60    3.19
   0   3   9  112.67    3.79
   0   3   9  109.42    2.72
   0   3   9  118.95    3.81
   0   3  10    0.15    0.58
   0   3  10    1.46    0.28
   0   3  10    1.50    0.59
   0   3  11    0.15    0.63
   0   3  11    0.61    0.22
   0   3  11    1.36    0.58
   0   3  12    0.99    0.69
   0   3  12    0.29    0.19
   0   3  12    0.48    0.52
   0   3  13   34.60    1.80
   0   3  13   32.29    2.20
   0   3  14  252.17    6.68
   0   3  14  241.10    7.50
   0   3  15   25.68    1.73
   0   3  15   28.20    2.22
   0   3  16   55.21    2.69
   0   3  16   58.43    3.35
   0   3  17    5.24    0.92
   0   3  17    3.74    1.04
   0   3  18   27.29    2.00
   0   3  18   25.52    2.41
   0   3  19   64.79    3.27
   0   3  19   62.76    3.92
   0   3  20    3.67    1.21
   0  -4  18   28.67    2.62
   0  -4  17    0.87    0.63
   0  -4  16   14.80    1.50
   0  -4  15   49.96    2.59
   0   4 -14  249.92    6.88
   0  -4  14  261.78    7.23
   0  -4  13    0.54    0.65
   0   4 -13    0.46    0.49
   0  -4  13    0.77    0.60
   0  -4  12   78.37    3.16
   0   4 -12   78.64    3.22
   0   4 -12   76.28    2.99
   0  -4  12   76.51    3.16
   0  -4  11    5.03    0.80
   0   4 -11    6.55    0.90
   0   4 -11    5.71    0.81
   0  -4  11    5.17    0.87
   0   4 -10  188.28    5.39
   0   4 -10  179.61    5.12
   0   4 -10  182.81    5.18
   0  -4  10  180.70    5.30
   0   4  -9   22.28    1.48
   0   4  -9   22.40    1.36
   0   4  -9   23.97    1.48
   0  -4   9   24.01    1.54
   0   4  -8    1.50    0.52
   0   4  -8    1.73    0.44
   0  -4   8    3.22    0.72
   0   4  -7    0.51    0.32
   0   4  -7    1.05    0.53
   0  -4   7    0.81    0.55
   0   4  -6  165.35    4.61
   0   4  -6  160.72    4.02
   0  -4   6  158.09    4.53
   0   4  -5   10.64    0.69
   0   4  -5   13.88    1.07
   0  -4   5   12.47    1.04
   0   4  -4  130.87    3.68
   0   4  -4  120.55    2.98
   0  -4   4  125.44    3.66
   0   4  -3   63.52    2.26
   0   4  -3   59.01    1.65
   0  -4   3   60.57    2.25
   0   4  -2   64.41    1.52
   0   4  -2   67.76    2.30
   0  -4   2   64.32    2.30
   0   4  -1   12.04    0.58
   0   4  -1   11.53    0.90
   0  -4   1   11.94    0.97
   0   4   0   27.45    1.05
   0   4   0   30.07    1.33
   0  -4   0   27.68    1.34
   0   4   1    7.82    0.64
   0   4   1    7.52    0.67
   0  -4  -1    9.20    0.79
   0   4   2   45.44    1.65
   0  -4  -2   46.05    1.61
   0   4   2   45.51    1.56
   0   4   3    9.64    0.79
   0  -4  -3   10.44    0.72
   0   4   3    9.50    0.66
   0   4   4    6.20    0.72
   0   4   4    4.87    0.47
   0  -4  -4    5.86    0.52
   0   4   5    1.42    0.54
   0   4   5    0.45    0.25
   0  -4  -5    0.51    0.28
   0   4   6   38.54    0.99
   0   4   6   39.63    1.85
   0   4   6   37.32    1.83
   0  -4  -6   39.24    1.16
   0   4   6   35.88    1.14
   0   4   7   67.57    2.64
   0   4   7   69.12    1.74
   0   4   7   71.86    2.69
   0   4   7   65.42    1.62
   0   4   8  553.98   12.49
   0   4   8  543.59   11.42
   0   4   8  555.60   11.22
   0   4   8  571.58   12.57
   0   4   9  667.98   14.80
   0   4   9  644.30   13.49
   0   4   9  696.17   14.90
   0   4   9  666.53   13.49
   0   4  10    0.34    0.59
   0   4  10    0.12    0.24
   0   4  10    0.22    0.28
   0   4  10    0.42    0.50
   0   4  11  165.88    5.38
   0   4  11  169.49    3.97
   0   4  11  174.68    5.43
   0   4  11  171.11    4.39
   0   4  12    5.78    1.04
   0   4  12    4.95    0.42
   0   4  12    5.37    0.68
   0   4  13   56.90    2.98
   0   4  13   50.05    1.43
   0   4  13   57.82    2.25
   0   4  14    0.29    0.49
   0   4  14    0.96    0.87
   0   4  15   35.21    1.90
   0   4  15   34.75    2.51
   0   4  16   26.43    1.74
   0   4  16   28.36    2.37
   0   4  17    8.26    1.06
   0   4  17    9.16    1.59
   0   4  18    2.60    0.73
   0   4  18    3.99    1.19
   0   4  19   26.21    2.58
   0  -5  18    3.11    1.14
   0  -5  17   23.22    1.96
   0  -5  16   32.06    2.26
   0  -5  15   43.77    2.59
   0   5 -14    7.06    1.06
   0  -5  14    5.92    1.02
   0   5 -13   24.64    1.75
   0  -5  13   27.55    1.93
   0   5 -12   62.11    2.81
   0  -5  12   63.43    2.99
   0   5 -11  175.57    5.45
   0   5 -11  166.93    5.16
   0  -5  11  165.32    5.31
   0   5 -10  141.83    4.61
   0   5 -10  128.49    4.04
   0   5 -10  134.99    4.38
   0  -5  10  134.57    4.52
   0   5  -9    8.17    1.03
   0   5  -9    9.29    0.88
   0   5  -9    8.95    0.99
   0  -5   9    8.71    1.06
   0   5  -8    7.79    0.77
   0   5  -8    7.93    0.97
   0  -5   8    9.65    1.08
   0   5  -7    0.25    0.29
   0   5  -7    0.01    0.49
   0  -5   7   -0.28    0.53
   0   5  -6  113.81    3.09
   0   5  -6  121.84    3.89
   0  -5   6  114.00    3.78
   0   5  -5   -0.33    0.25
   0   5  -5    0.53    0.45
   0  -5   5    1.02    0.64
   0   5  -4   38.36    1.31
   0   5  -4   41.37    1.94
   0  -5   4   40.79    1.95
   0   5  -3    0.53    0.48
   0  -5   3    0.87    0.61
   0   5  -2  472.65    9.57
   0   5  -2  498.71   10.72
   0  -5   2  493.54   10.70
   0   5  -1   28.64    1.05
   0   5  -1   31.96    1.54
   0  -5   1   30.14    1.55
   0   5   0  203.72    4.70
   0   5   0  209.73    5.27
   0  -5   0  208.57    5.20
   0   5   1   14.72    0.89
   0   5   1   14.78    1.01
   0  -5  -1   15.53    1.04
   0   5   2   14.52    0.96
   0   5   2   13.36    0.95
   0  -5  -2   12.77    0.96
   0   5   3   24.68    1.32
   0  -5  -3   27.16    0.78
   0   5   3   26.75    1.26
   0  -5  -3   27.87    1.26
   0   5   4   11.19    0.93
   0  -5  -4   13.11    0.85
   0   5   4   11.75    0.79
   0   5   5   12.14    1.00
   0   5   5   10.91    0.73
   0  -5  -5   10.33    0.73
   0   5   6  227.33    5.88
   0  -5  -6  221.40    4.92
   0   5   6  213.47    4.91
   0   5   7    5.13    0.85
   0   5   7    4.56    0.84
   0   5   7    2.92    0.38
   0  -5  -7    4.10    0.41
   0   5   8  218.42    5.79
   0   5   8  191.84    4.26
   0   5   8  219.16    5.86
   0   5   9    9.12    1.08
   0   5   9   10.79    0.78
   0   5   9   10.84    1.13
   0   5   9    9.33    0.55
   0   5  10   97.02    3.78
   0   5  10  103.57    2.94
   0   5  10  104.33    3.89
   0   5  10  102.82    2.67
   0   5  11    1.69    0.69
   0   5  11    1.64    0.37
   0   5  11    2.14    0.39
   0   5  12   32.20    2.21
   0   5  12   31.88    1.30
   0   5  12   32.52    1.43
   0   5  13  222.95    7.01
   0   5  13  227.67    5.09
   0   5  13  227.24    5.63
   0   5  14  266.32    8.18
   0   5  14  271.40    5.79
   0   5  14  282.77    6.76
   0   5  15   29.75    1.62
   0   5  15   28.67    2.31
   0   5  16   61.08    2.54
   0   5  16   59.56    3.53
   0   5  17   48.41    2.32
   0   5  17   45.23    3.15
   0   5  18    7.53    1.59
   0   5  19   61.01    3.87
   0  -6  17   20.74    2.31
   0  -6  17   13.92    1.82
   0  -6  16    9.82    1.46
   0  -6  15   37.89    2.53
   0  -6  14    0.94    0.67
   0  -6  13    5.90    1.04
   0  -6  12    1.75    0.79
   0   6 -11  154.73    5.07
   0  -6  11  148.21    5.15
   0   6 -10    0.72    0.48
   0   6 -10    1.54    0.67
   0  -6  10    1.08    0.69
   0   6  -9  234.33    6.56
   0   6  -9  207.12    5.50
   0  -6   9  219.30    6.41
   0   6  -8   38.58    2.17
   0   6  -8   34.13    1.55
   0  -6   8   33.85    2.05
   0   6  -7    0.10    0.52
   0   6  -7    0.16    0.29
   0  -6   7   -0.14    0.59
   0   6  -6   41.74    1.56
   0   6  -6   48.23    2.33
   0  -6   6   43.42    2.23
   0   6  -5  105.46    3.65
   0   6  -5   96.15    2.62
   0  -6   5  101.28    3.57
   0   6  -4   65.56    1.93
   0   6  -4   76.04    2.90
   0  -6   4   70.55    2.81
   0   6  -3  337.07    6.86
   0   6  -3  365.49    8.47
   0  -6   3  355.43    8.40
   0   6  -2   24.02    0.91
   0   6  -2   26.07    1.55
   0  -6   2   24.82    1.53
   0   6  -1    0.96    0.32
   0   6  -1    1.66    0.56
   0  -6   1    0.94    0.59
   0   6   0    0.96    0.38
   0   6   0    0.58    0.45
   0  -6   0    0.77    0.54
   0   6   1    1.93    0.44
   0   6   1    3.11    0.63
   0  -6  -1    2.89    0.59
   0   6   2  209.51    5.21
   0   6   2  207.66    5.33
   0  -6  -2  209.31    5.30
   0   6   3  307.52    7.32
   0  -6  -3  311.96    6.37
   0  -6  -3  308.54    7.17
   0   6   3  309.10    7.24
   0   6   4  484.35   10.63
   0  -6  -4  464.38   10.18
   0   6   4  469.59   10.24
   0   6   5   66.56    2.60
   0  -6  -5   64.36    2.15
   0   6   5   63.04    2.14
   0   6   6  253.44    6.44
   0   6   6  230.95    5.50
   0  -6  -6  237.31    5.53
   0   6   7   45.32    2.21
   0   6   7   41.95    2.11
   0   6   7   37.51    1.43
   0  -6  -7   40.11    1.48
   0   6   8  360.73    8.64
   0   6   8  339.96    8.40
   0   6   8  310.12    6.99
   0  -6  -8  335.51    7.06
   0   6   9   36.24    1.20
   0   6   9   42.22    2.26
   0   6   9   43.84    2.33
   0   6  10   10.05    1.20
   0   6  10   12.10    0.89
   0   6  11    4.58    0.91
   0   6  11    6.04    0.66
   0   6  12   72.85    3.45
   0   6  12   76.08    2.47
   0   6  13   17.96    1.77
   0   6  13   17.93    0.99
   0   6  13   19.07    1.01
   0   6  14  410.53   11.21
   0   6  14  407.78    8.76
   0   6  14  422.05    9.13
   0   6  15    3.62    0.58
   0   6  15    4.14    1.22
   0   6  16   12.32    1.72
   0   6  17    1.62    0.94
   0   6  18   34.09    2.88
   0   6  19   18.02    2.15
   0  -7  17   28.77    2.43
   0  -7  16   36.54    2.68
   0  -7  15   32.54    2.51
   0  -7  14    1.93    0.94
   0  -7  13   27.36    2.18
   0  -7  12    1.05    0.89
   0  -7  11    6.27    1.22
   0   7 -10    0.83    0.51
   0  -7  10    0.06    0.67
   0   7  -9   16.03    1.09
   0  -7   9   17.15    1.64
   0   7  -8   50.75    1.92
   0  -7   8   51.04    2.68
   0   7  -7    1.86    0.41
   0  -7   7    1.72    0.80
   0   7  -6    8.62    1.08
   0   7  -6    8.83    0.67
   0  -7   6    8.68    1.10
   0   7  -5  348.75    8.44
   0   7  -5  302.44    6.75
   0  -7   5  308.25    8.15
   0   7  -4   21.26    0.94
   0   7  -4   22.48    1.60
   0  -7   4   21.28    1.59
   0   7  -3  341.78    7.08
   0   7  -3  375.03    8.84
   0  -7   3  350.49    8.71
   0   7  -2    8.51    0.57
   0   7  -2   10.97    1.10
   0  -7   2    8.96    1.04
   0   7  -1  103.25    2.85
   0   7  -1  110.90    3.71
   0  -7   1  107.54    3.62
   0   7   0    9.45    0.77
   0   7   0    9.77    1.00
   0  -7   0   10.20    1.04
   0   7   1  275.45    6.53
   0   7   1  278.67    7.01
   0  -7  -1  279.71    6.99
   0   7   2   21.45    1.24
   0   7   2   19.21    1.32
   0  -7  -2   19.88    1.32
   0   7   3    0.38    0.42
   0  -7  -3    1.35    0.30
   0   7   3    0.76    0.46
   0  -7  -3    0.53    0.45
   0   7   4    0.68    0.44
   0   7   4    0.92    0.43
   0  -7  -4    1.26    0.52
   0   7   5    2.92    0.67
   0   7   5    1.69    0.47
   0  -7  -5    2.20    0.50
   0   7   6    7.45    0.92
   0   7   6    7.19    0.70
   0  -7  -6    8.38    0.77
   0   7   7   89.22    3.43
   0   7   7   83.20    2.62
   0   7   7   89.44    3.32
   0  -7  -7   87.15    2.68
   0   7   8   71.31    3.03
   0   7   8   62.00    2.79
   0   7   8   61.09    2.05
   0  -7  -8   63.48    2.08
   0   7   9  276.57    6.45
   0   7   9  302.46    7.99
   0  -7  -9  312.55    6.57
   0   7  10  127.65    3.16
   0   7  10  157.08    5.00
   0   7  11    4.26    0.96
   0   7  11    4.88    0.67
   0   7  12   62.55    3.20
   0   7  12   63.93    2.40
   0   7  13   73.81    3.65
   0   7  13   72.77    2.54
   0   7  14  321.11    9.38
   0   7  14  316.93    7.28
   0   7  15   59.91    3.49
   0   7  16   -0.37    0.83
   0   7  17    1.76    1.08
   0   7  18    1.46    0.85
   0  -8  17    1.30    0.98
   0  -8  16   45.37    3.12
   0  -8  15    2.32    0.88
   0  -8  14   53.72    3.27
   0  -8  13    2.69    0.91
   0  -8  12   -0.72    0.82
   0  -8  11    0.95    0.82
   0  -8  10  145.47    5.38
   0   8  -9    0.54    0.40
   0  -8   9    1.29    0.83
   0   8  -8    1.20    0.40
   0  -8   8    1.31    0.81
   0   8  -7    3.10    0.46
   0  -8   7    3.18    0.92
   0   8  -6  117.36    3.11
   0  -8   6  119.04    4.44
   0   8  -5  149.52    3.64
   0  -8   5  146.06    5.01
   0   8  -4  177.62    4.27
   0   8  -4  208.06    5.99
   0  -8   4  190.86    5.79
   0   8  -3   69.31    1.87
   0   8  -3   74.91    3.16
   0  -8   3   71.71    3.09
   0   8  -2  154.15    3.79
   0   8  -2  166.93    5.12
   0  -8   2  157.27    4.99
   0   8  -1   15.20    0.92
   0   8  -1   17.45    1.44
   0  -8   1   18.15    1.46
   0   8   0   11.93    0.90
   0   8   0   10.60    1.12
   0  -8   0   12.49    1.21
   0   8   1   43.62    1.90
   0   8   1   46.93    2.25
   0  -8  -1   45.58    2.22
   0  -8  -2   18.97    1.01
   0   8   2   19.63    1.28
   0   8   2   19.25    1.42
   0  -8  -2   18.58    1.38
   0   8   3  372.27    8.78
   0  -8  -3  369.18    7.79
   0   8   3  360.61    8.80
   0  -8  -3  365.42    8.79
   0  -8  -4   24.40    0.88
   0   8   4   26.68    1.61
   0   8   4   23.40    1.44
   0  -8  -4   24.64    1.48
   0   8   5    2.31    0.65
   0   8   5    2.33    0.53
   0  -8  -5    2.76    0.59
   0   8   6    2.13    0.72
   0   8   6    1.58    0.47
   0  -8  -6    1.79    0.51
   0   8   7  181.18    5.48
   0   8   7  160.10    4.51
   0   8   7  166.88    5.14
   0  -8  -7  172.44    4.58
   0   8   8    3.26    1.09
   0   8   8    2.92    0.51
   0  -8  -8    3.52    0.56
   0   8   9   27.78    1.33
   0   8   9   29.53    2.04
   0  -8  -9   29.56    1.38
   0   8  10   15.40    1.58
   0   8  10   12.99    0.83
   0  -8 -10   15.34    0.90
   0   8  11  166.99    5.70
   0   8  11  166.87    4.82
   0   8  12    2.98    1.04
   0   8  12    2.62    0.58
   0   8  13   62.61    3.37
   0   8  13   62.46    2.50
   0   8  14   26.84    2.29
   0   8  14   26.72    1.49
   0   8  15  214.10    7.46
   0   8  16   13.68    1.89
   0   8  17   13.40    1.88
   0   8  18    9.16    1.84
   0  -9  16   40.48    3.09
   0  -9  15   -0.67    0.89
   0  -9  14   29.09    2.50
   0  -9  13    4.36    1.07
   0  -9  12   26.51    2.36
   0  -9  11   -0.36    0.84
   0  -9  10   65.40    3.51
   0  -9   9   32.83    2.41
   0   9  -8  122.62    3.40
   0  -9   8  127.29    4.97
   0   9  -7    2.91    0.44
   0  -9   7    3.13    0.91
   0   9  -6  115.91    3.07
   0  -9   6  126.36    4.73
   0   9  -5    5.09    0.48
   0  -9   5    3.88    0.96
   0   9  -4  192.20    4.47
   0  -9   4  195.44    6.15
   0   9  -3    0.35    0.23
   0  -9   3    0.19    0.63
   0   9  -2   48.35    1.69
   0  -9   2   50.59    2.64
   0   9  -1   22.71    1.18
   0   9  -1   20.77    1.64
   0  -9   1   21.26    1.65
   0   9   0   85.88    2.84
   0   9   0   98.56    3.71
   0  -9   0   91.42    3.57
   0   9   1   42.82    1.93
   0   9   1   45.54    2.34
   0  -9  -1   46.45    2.38
   0  -9  -2    0.46    0.35
   0   9   2    1.37    0.56
   0   9   2    1.31    0.61
   0  -9  -2    0.94    0.53
   0  -9  -3    9.16    0.69
   0   9   3    7.40    0.89
   0   9   3    7.46    0.96
   0  -9  -3    8.07    0.94
   0  -9  -4  206.34    4.57
   0   9   4  208.59    5.85
   0   9   4  198.84    5.72
   0  -9  -4  203.04    5.73
   0   9   5   21.12    1.56
   0   9   5   18.48    1.37
   0  -9  -5   21.70    1.45
   0   9   6   14.45    1.36
   0   9   6   12.32    1.10
   0  -9  -6   14.21    1.16
   0   9   7    3.61    0.89
   0   9   7    2.59    0.51
   0  -9  -7    2.67    0.61
   0   9   8   15.46    1.44
   0   9   8   13.74    1.10
   0  -9  -8   14.81    1.13
   0   9   9   53.69    2.81
   0   9   9   51.40    2.11
   0  -9  -9   59.23    2.20
   0   9  10   19.42    1.74
   0   9  10   16.60    1.05
   0  -9 -10   21.64    1.20
   0   9  11   38.24    1.53
   0   9  11   48.15    2.77
   0   9  12    0.37    0.72
   0   9  12    2.13    0.60
   0   9  13   36.15    2.62
   0   9  13   38.25    1.98
   0   9  14    6.22    1.21
   0   9  14    6.39    0.84
   0   9  15   61.84    3.66
   0   9  16    4.72    1.36
   0   9  17    1.93    1.05
   0 -10  15   69.65    4.19
   0 -10  14    9.75    1.59
   0 -10  13    0.06    0.80
   0 -10  12    9.02    1.51
   0 -10  11   91.74    4.53
   0 -10  10   15.83    1.89
   0 -10   9    2.80    0.94
   0 -10   8    1.65    0.87
   0 -10   7    6.28    1.26
   0  10  -6    2.09    0.34
   0 -10   6    3.65    1.04
   0  10  -5   16.19    0.82
   0 -10   5   16.14    1.68
   0  10  -4   65.91    1.95
   0 -10   4   69.47    3.42
   0  10  -3   67.35    1.96
   0 -10   3   70.34    3.39
   0  10  -2  240.15    5.66
   0 -10   2  247.53    7.28
   0  10  -1   97.43    2.99
   0 -10   1   99.15    4.02
   0  10   0   99.99    3.22
   0 -10   0  106.89    4.10
   0  10   1   24.73    1.51
   0 -10  -1   25.45    1.45
   0 -10  -1   28.07    1.97
   0 -10  -2  308.23    7.13
   0  10   2  299.55    7.62
   0  10   2  306.47    8.21
   0 -10  -2  295.49    8.08
   0 -10  -3    4.59    0.58
   0  10   3    3.42    0.75
   0  10   3    4.48    0.88
   0 -10  -3    5.00    0.86
   0  10   4    1.19    0.57
   0 -10  -4    2.07    0.35
   0  10   4    1.10    0.55
   0 -10  -4    1.96    0.68
   0  10   5    4.62    0.82
   0  10   5    4.76    0.83
   0 -10  -5    6.04    0.90
   0  10   6    1.37    0.55
   0 -10  -6    1.05    0.63
   0  10   7    2.16    0.79
   0  10   7    1.73    0.58
   0 -10  -7    3.43    0.78
   0  10   8    8.14    0.93
   0  10   8    9.90    1.28
   0 -10  -8    8.02    0.99
   0  10   9   24.15    1.48
   0  10   9   24.93    1.93
   0 -10  -9   25.01    1.50
   0  10  10   48.71    2.11
   0  10  10   59.29    3.09
   0 -10 -10   60.95    2.32
   0  10  11   15.40    1.66
   0 -10 -11   18.96    1.19
   0  10  12   31.82    2.40
   0  10  13    0.25    0.88
   0  10  13   -0.50    0.54
   0  10  14   41.89    2.96
   0  10  15   61.10    3.77
   0  10  16   10.32    1.69
   0 -11  12   14.77    1.93
   0 -11  12   15.37    2.01
   0 -11  11   10.00    1.66
   0 -11  10    4.99    1.26
   0 -11   9  192.50    7.03
   0 -11   8    0.39    0.80
   0 -11   7    0.40    0.77
   0 -11   6   -0.46    0.85
   0 -11   5  220.57    7.30
   0  11  -4   13.17    0.70
   0 -11   4   15.92    1.73
   0  11  -3    7.30    0.57
   0 -11   3    9.58    1.39
   0  11  -2    7.84    0.71
   0 -11   2    7.66    1.23
   0  11  -1    0.47    0.38
   0 -11   1    0.19    0.49
   0 -11   1    1.49    0.79
   0  11   0   30.81    1.63
   0 -11   0   31.44    1.78
   0 -11   0   33.00    2.25
   0  11   1    0.46    0.48
   0 -11  -1    0.00    0.42
   0 -11  -1    0.37    0.64
   0  11   2   39.58    2.09
   0 -11  -2   43.23    1.90
   0 -11  -2   39.34    2.39
   0  11   3  339.64    8.80
   0 -11  -3  354.29    7.90
   0 -11  -3  345.35    9.21
   0  11   4  352.46    9.11
   0 -11  -4  358.21    9.30
   0  11   5   97.81    3.88
   0 -11  -5  105.11    3.94
   0  11   6    1.73    0.77
   0  11   6    0.32    0.55
   0 -11  -6    0.17    0.54
   0  11   7    9.87    1.12
   0  11   7   10.87    1.29
   0 -11  -7   10.36    1.17
   0  11   8  133.14    4.79
   0  11   8  122.24    4.25
   0 -11  -8  137.30    4.41
   0  11   9    0.32    0.46
   0  11   9    0.57    0.77
   0 -11  -9    0.29    0.49
   0  11  10   92.22    4.13
   0 -11 -10  100.22    3.44
   0  11  11    9.70    1.33
   0 -11 -11    9.98    0.95
   0  11  12    0.42    0.94
   0  11  13   -0.29    0.88
   0  11  13    2.14    0.69
   0  11  14    5.42    1.26
   0  11  15    8.26    1.74
   0  11  16   27.27    2.59
   0 -12  11    2.98    1.23
   0 -12  10   -0.55    0.83
   0 -12  10    2.38    1.07
   0 -12   9   29.31    2.56
   0 -12   9   29.40    2.65
   0 -12   8   24.51    2.67
   0 -12   8   30.41    2.60
   0 -12   7  193.47    6.83
   0 -12   7  191.64    7.09
   0 -12   6   37.69    2.79
   0 -12   5    2.80    0.96
   0 -12   5    0.70    0.80
   0 -12   4    1.76    0.69
   0 -12   4    2.01    0.96
   0 -12   3   21.72    1.80
   0 -12   3   24.90    2.17
   0 -12   2   20.23    1.67
   0 -12   2   21.51    1.99
   0 -12   1   17.04    1.47
   0  12  -1   17.69    1.19
   0 -12   1   17.74    1.78
   0 -12   0   -0.50    0.56
   0  12   0    0.46    0.43
   0 -12   0    0.60    0.75
   0  12   1    2.79    0.66
   0 -12  -1    2.84    0.62
   0 -12  -1    1.66    0.74
   0 -12  -2    4.75    0.73
   0  12   2    3.76    0.73
   0 -12  -2    4.74    1.01
   0 -12  -3   96.16    2.98
   0  12   3   93.76    3.66
   0 -12  -3   86.21    3.88
   0 -12  -4   13.33    1.43
   0  12   5   27.76    1.91
   0 -12  -5   31.07    2.11
   0  12   6    2.22    0.73
   0 -12  -6   -0.11    0.62
   0  12   7    5.47    1.04
   0 -12  -7    6.01    0.96
   0  12   8    2.48    0.79
   0 -12  -8    2.87    0.89
   0  12   9   55.38    3.04
   0 -12  -9   59.36    2.72
   0  12  10   77.97    3.81
   0 -12 -10   84.96    3.26
   0  12  11  162.27    5.99
   0  12  12   30.10    2.46
   0  12  13    2.11    0.90
   0  12  14   41.92    3.05
   0  12  15    1.36    1.02
   0 -13   9    1.08    0.90
   0 -13   8   73.18    4.09
   0 -13   8   78.59    4.42
   0 -13   7   83.07    4.26
   0 -13   7   86.40    4.60
   0 -13   6  105.96    4.78
   0 -13   6  116.61    5.32
   0 -13   5    3.08    0.97
   0 -13   5    3.28    1.09
   0 -13   4    2.32    0.83
   0 -13   4    1.57    1.03
   0 -13   3   34.85    2.40
   0 -13   3   34.26    2.67
   0 -13   2   32.14    2.17
   0 -13   2   29.15    2.45
   0 -13   1  103.80    4.00
   0 -13   1  105.36    4.71
   0 -13   0   32.72    1.98
   0 -13   0   31.76    2.49
   0 -13  -1   13.23    1.28
   0 -13  -1   14.71    1.69
   0 -13  -2   15.10    1.21
   0  13   2   12.56    1.12
   0 -13  -2   14.48    1.77
   0 -13  -3  164.08    4.47
   0  13   3  158.41    4.84
   0 -13  -3  154.86    5.74
   0  13   4   54.51    2.57
   0 -13  -4   57.77    3.14
   0  13   5   30.84    1.98
   0 -13  -5   31.22    2.24
   0  13   6    0.25    0.58
   0 -13  -6    1.38    0.79
   0  13   7   19.52    1.77
   0 -13  -7   19.44    1.74
   0  13   8    0.88    0.68
   0 -13  -8    1.59    0.82
   0  13   9   36.98    2.53
   0 -13  -9   36.12    2.23
   0  13  10    1.60    0.86
   0  13  11   30.29    2.43
   0  13  12    1.67    0.97
   0  13  13   37.11    2.84
   0  13  14   -2.14    0.99
   0 -14   8   96.71    4.90
   0 -14   7    6.57    1.51
   0 -14   6  130.21    5.51
   0 -14   5   -0.65    0.89
   0 -14   5    2.23    1.15
   0 -14   4    0.40    1.09
   0 -14   4    0.02    0.94
   0 -14   3    4.13    1.11
   0 -14   3    3.59    1.23
   0 -14   2   17.83    1.72
   0 -14   2   16.16    1.93
   0 -14   1   15.37    1.54
   0 -14   1   17.72    1.98
   0 -14   0    8.60    1.15
   0 -14   0    6.15    1.40
   0 -14  -1    1.60    0.63
   0 -14  -1    2.82    1.16
   0 -14  -2   11.85    1.70
   0 -14  -3   -0.86    0.85
   0 -14  -4  206.32    7.06
   0  14   5   77.61    3.31
   0 -14  -5   77.67    3.83
   0  14   6   77.67    3.45
   0 -14  -6   77.93    3.79
   0  14   7    0.95    0.66
   0 -14  -7   -0.07    0.70
   0  14   8   23.09    2.00
   0 -14  -8   24.16    1.98
   0  14   9   56.07    3.19
   0 -14  -9   58.17    3.02
   0  14  10   70.14    3.75
   0  14  11   40.67    2.89
   0  14  12    1.94    0.94
   0  14  13   66.07    3.96
   0 -15   7    2.97    1.19
   0 -15   6   22.59    2.24
   0 -15   5    6.83    1.41
   0 -15   4    0.73    0.75
   0 -15   3    0.41    0.80
   0 -15   2   33.07    2.39
   0 -15   2   34.56    2.94
   0 -15   1   17.13    2.11
   0 -15   0   51.18    3.46
   0 -15  -1   -0.58    0.97
   0 -15  -2   17.02    2.01
   0 -15  -3    9.37    1.58
   0 -15  -4   55.23    3.40
   0 -15  -5   -0.22    0.87
   0 -15  -6    1.36    0.75
   0 -15  -7    6.40    1.24
   0 -15  -8   18.96    1.87
   0  15  10    2.39    0.97
   0  15  11    4.03    1.19
   0  15  12   31.01    2.64
   0 -16  -1   61.42    3.97
   0 -16  -2    4.71    1.39
   0 -16  -3    4.58    1.29
   0 -16  -4   59.17    3.65
   0 -16  -5   95.56    4.67
   0 -16  -6   14.36    1.92
   0 -16  -7    6.89    1.35
   1 -16  -6    5.85    1.31
   1 -16  -5    6.66    1.33
   1 -16  -4    1.79    1.02
   1 -16  -3   14.14    1.93
   1 -16  -2    9.82    1.68
  -1  15  11    7.02    1.39
  -1  15  10   13.54    1.74
  -1  15   9   31.74    2.55
   1 -15  -7   12.07    1.55
   1 -15  -6    0.23    0.84
   1 -15  -5  226.30    7.70
   1 -15  -4    0.33    0.85
   1 -15  -3    0.85    0.95
   1 -15  -2    5.16    1.19
   1 -15  -1    6.62    1.41
   1 -15   0   -0.67    0.96
   1 -15   1   41.11    3.15
   1 -15   2   17.53    2.22
   1 -15   4   16.86    1.84
   1 -15   5   28.38    2.39
   1 -15   6    1.32    0.91
   1 -15   7   27.20    2.57
  -1  14  12    2.65    1.16
  -1  14  11    3.54    1.29
  -1  14  10   19.43    2.02
  -1  14   9    1.94    1.03
  -1  14   8    6.41    1.38
   1 -14  -8    4.77    1.06
  -1  14   7    2.68    0.95
   1 -14  -7    2.06    0.90
  -1  14   6    0.90    0.78
   1 -14  -6   -0.70    0.76
  -1  14   5   39.10    2.48
   1 -14  -5   38.94    2.73
   1 -14  -4   36.54    2.68
   1 -14  -3   64.40    3.79
   1 -14  -2   18.73    2.05
   1 -14  -1   -2.14    1.08
   1 -14   0   52.28    3.42
   1 -14   1  190.92    6.02
   1 -14   1  191.34    7.13
   1 -14   2   15.40    1.59
   1 -14   2   16.85    2.08
   1 -14   3   86.30    3.94
   1 -14   3   90.78    4.70
   1 -14   4    0.81    0.83
   1 -14   4   -1.47    0.81
   1 -14   5   14.77    1.78
   1 -14   5   12.26    1.90
   1 -14   6   11.03    1.63
   1 -14   7   12.66    1.79
   1 -14   8   11.07    1.78
  -1  13  13   11.90    1.86
  -1  13  12    1.40    1.04
  -1  13  11    3.70    1.12
  -1  13  10  125.09    5.26
  -1  13   9    0.34    0.72
   1 -13  -9   -0.02    0.59
  -1  13   8    1.07    0.73
   1 -13  -8    1.67    0.72
  -1  13   7    0.60    0.82
   1 -13  -7   -0.75    0.79
  -1  13   6  107.47    4.37
   1 -13  -6  103.59    4.35
   1 -13  -5   10.82    1.45
   1 -13  -4  215.71    7.07
   1 -13  -3   -0.80    0.76
   1 -13  -2    4.03    1.04
   1 -13  -1   -0.71    0.49
   1 -13  -1   -0.09    0.80
   1 -13   0   25.87    1.74
   1 -13   0   22.95    2.19
   1 -13   1   13.85    1.41
   1 -13   1   15.66    1.87
   1 -13   2  107.61    4.22
   1 -13   2  112.61    5.01
   1 -13   3   41.92    2.58
   1 -13   3   48.22    3.23
   1 -13   4  131.53    5.09
   1 -13   4  136.83    5.77
   1 -13   5   15.84    1.78
   1 -13   5   17.42    2.06
   1 -13   6   11.83    1.59
   1 -13   6   16.40    2.01
   1 -13   7   47.61    3.14
   1 -13   7   50.43    3.53
   1 -13   8   15.08    1.88
   1 -13   8   14.08    2.04
   1 -13   9    0.33    0.91
  -1  12  14   12.74    1.82
  -1  12  13   -0.10    0.99
  -1  12  12   -0.21    0.81
  -1  12  12   -0.18    0.63
  -1  12  11   -0.68    1.02
  -1  12  10   20.63    2.04
   1 -12 -10   20.98    1.62
  -1  12   9    5.97    1.23
   1 -12  -9    4.69    0.95
  -1  12   8   72.17    3.60
   1 -12  -8   71.06    3.20
   1 -12  -7    6.12    1.03
   1 -12  -6   16.84    1.64
   1 -12  -5   24.14    1.91
   1 -12  -4  236.99    7.25
   1 -12  -3   43.20    2.67
   1 -12  -2   28.59    1.56
  -1  12   2   27.38    1.88
   1 -12  -2   29.84    2.26
  -1  12   1    0.27    0.51
   1 -12  -1    1.56    0.54
   1 -12  -1    2.96    0.92
  -1  12   0   83.65    3.21
   1 -12   0   93.48    3.42
   1 -12   0   87.88    4.10
   1 -12   1    3.57    0.78
  -1  12  -1    5.74    0.76
   1 -12   1    4.79    1.09
   1 -12   2  129.24    4.59
   1 -12   2  128.54    5.22
   1 -12   3   10.29    1.30
   1 -12   3    7.94    1.32
   1 -12   4   45.51    2.71
   1 -12   4   51.32    3.19
   1 -12   5    5.21    1.14
   1 -12   5    3.61    1.06
   1 -12   6    1.23    0.71
   1 -12   6    2.63    0.99
   1 -12   7    8.02    1.38
   1 -12   7    7.74    1.49
   1 -12   8   16.72    1.88
   1 -12   8   15.13    1.88
   1 -12   9   22.79    2.28
   1 -12   9   25.43    2.47
   1 -12  10   12.31    1.76
   1 -12  10   10.53    1.70
   1 -12  11    2.68    1.07
  -1  11  15  108.48    5.27
  -1  11  14    3.13    1.35
  -1  11  13    1.19    0.94
  -1  11  13   -0.38    0.71
  -1  11  12    0.49    0.81
  -1  11  12   -0.92    0.67
  -1  11  11  255.43    8.12
  -1  11  10   12.41    1.60
   1 -11 -10   11.91    1.14
  -1  11   9   17.81    1.81
   1 -11  -9   16.03    1.37
  -1  11   8   28.13    1.85
  -1  11   8   27.87    2.16
   1 -11  -8   30.21    1.89
  -1  11   7    4.42    0.84
   1 -11  -7    6.28    0.98
  -1  11   6    2.64    0.71
   1 -11  -6    4.23    0.88
   1 -11  -5   12.27    1.34
   1 -11  -4    8.95    1.18
  -1  11   3   43.99    2.38
   1 -11  -3   47.99    2.66
   1 -11  -2   81.40    2.78
  -1  11   2   80.36    3.26
   1 -11  -2   84.35    3.71
   1 -11  -1   40.76    1.95
  -1  11   1   37.61    2.06
   1 -11  -1   42.14    2.57
  -1  11   0    1.40    0.55
   1 -11   0    0.62    0.45
   1 -11   0    1.09    0.85
  -1  11  -1   62.23    2.44
   1 -11   1   63.11    2.75
   1 -11   1   61.68    3.22
   1 -11   2   48.36    2.51
  -1  11  -2   51.45    2.03
   1 -11   2   48.91    2.95
   1 -11   3   48.10    2.58
  -1  11  -3   48.12    1.80
   1 -11   3   50.13    2.97
  -1  11  -4   11.15    0.67
   1 -11   4    9.37    1.20
   1 -11   4   13.06    1.67
   1 -11   5   21.73    1.88
   1 -11   5   20.15    1.98
   1 -11   6   78.05    3.77
   1 -11   6   80.71    4.01
   1 -11   7   22.68    2.05
   1 -11   7   27.79    2.40
   1 -11   8    2.35    0.77
   1 -11   8    2.81    1.03
   1 -11   9    9.89    1.50
   1 -11   9   10.58    1.65
   1 -11  10    2.50    1.01
   1 -11  10    4.19    1.23
   1 -11  11    0.50    0.98
   1 -11  11    0.54    0.82
   1 -11  12    3.43    1.05
   1 -11  12    4.00    1.23
  -1  10  16   26.13    2.61
  -1  10  15   42.56    3.21
  -1  10  14   -0.05    0.78
  -1  10  13    0.91    0.84
  -1  10  13    3.56    0.83
  -1  10  12    0.13    0.92
  -1  10  12    0.16    0.56
  -1  10  11   49.12    3.01
  -1  10  11   49.39    2.64
  -1  10  10   16.34    1.70
   1 -10 -10   18.85    1.31
  -1  10   9  220.25    6.87
  -1  10   9  199.67    5.74
   1 -10  -9  223.26    5.89
  -1  10   8    0.10    0.44
   1 -10  -8   -0.08    0.50
  -1  10   7   86.76    3.33
   1 -10  -7   95.56    3.46
  -1  10   6    1.08    0.49
   1 -10  -6    2.23    0.71
  -1  10   5   48.78    2.46
   1 -10  -5   49.16    2.45
  -1  10   4   17.49    1.48
  -1  10   4   16.61    1.43
   1 -10  -4   16.66    1.45
  -1  10   3   48.77    2.43
  -1  10   3   48.24    2.55
   1 -10  -3   47.50    2.53
   1 -10  -2    0.04    0.36
  -1  10   2    0.92    0.53
   1 -10  -2    0.95    0.69
  -1  10   1   91.93    3.30
   1 -10  -1   93.17    3.06
   1 -10  -1   91.87    3.76
   1 -10   0    0.35    0.42
  -1  10   0    0.30    0.42
   1 -10   0   -0.47    0.67
  -1  10  -1   14.10    1.04
   1 -10   1   11.70    1.12
   1 -10   1   12.14    1.43
   1 -10   2   10.04    1.10
  -1  10  -2   10.34    0.83
   1 -10   2    9.49    1.28
  -1  10  -3  217.32    5.20
   1 -10   3  226.82    6.40
   1 -10   3  215.37    6.83
   1 -10   4   47.57    2.55
  -1  10  -4   47.60    1.53
   1 -10   4   48.02    2.83
   1 -10   5  245.27    7.14
  -1  10  -5  234.65    5.74
   1 -10   5  245.82    7.52
   1 -10   6    0.64    0.70
  -1  10  -6    0.06    0.32
   1 -10   6   -0.73    0.88
   1 -10   7   48.28    2.89
   1 -10   7   53.80    3.12
   1 -10   8   18.69    1.86
   1 -10   8   18.51    1.91
   1 -10   9  152.11    5.79
   1 -10   9  149.37    5.86
   1 -10  10    3.35    1.21
   1 -10  10    2.59    1.06
   1 -10  11    0.16    0.78
   1 -10  11    0.44    0.86
   1 -10  12   17.19    2.00
   1 -10  12   16.97    2.01
   1 -10  13    0.16    0.95
   1 -10  13    1.57    1.04
   1 -10  14    0.10    0.83
  -1   9  16   30.93    2.72
  -1   9  15   10.83    1.73
  -1   9  14   13.24    1.72
  -1   9  13    0.74    0.76
  -1   9  13    1.23    0.52
  -1   9  12   50.95    3.11
  -1   9  12   49.05    2.45
  -1   9  11   18.11    1.80
  -1   9  11   18.93    1.50
  -1   9  10  176.11    5.89
  -1   9  10  157.27    4.39
  -1   9   9   91.66    3.93
  -1   9   9   81.42    2.96
   1  -9  -9   98.23    3.14
  -1   9   8   97.42    3.37
   1  -9  -8  109.96    3.48
  -1   9   7  120.81    3.92
   1  -9  -7  129.43    3.99
  -1   9   6   38.24    1.99
   1  -9  -6   39.30    2.02
  -1   9   5   12.99    1.28
  -1   9   5   12.46    1.14
   1  -9  -5   12.20    1.14
  -1   9   4   11.11    1.17
  -1   9   4   12.67    1.19
   1  -9  -4   11.97    1.18
  -1   9   3   31.88    1.89
   1  -9  -3   29.48    1.89
  -1   9   3   31.93    1.92
   1  -9  -2  133.41    3.58
  -1   9   2  124.97    4.12
  -1   9   2  136.20    4.52
   1  -9  -2  130.46    4.40
  -1   9   1  110.89    3.64
   1  -9  -1  112.58    3.36
  -1   9   1  114.91    4.15
   1  -9  -1  113.28    4.06
   1  -9   0   69.88    2.54
  -1   9   0   66.27    2.51
   1  -9   0   62.61    2.94
  -1   9   0   69.10    3.10
   1  -9   1  550.16   12.17
  -1   9  -1  538.96   11.75
   1  -9   1  538.05   12.87
   1  -9   2   34.89    1.91
  -1   9  -2   36.87    1.56
   1  -9   2   36.51    2.25
   1  -9   3   63.43    2.78
  -1   9  -3   62.96    2.02
   1  -9   3   63.15    3.09
   1  -9   4   65.72    2.92
  -1   9  -4   63.99    1.84
   1  -9   4   67.86    3.21
   1  -9   5   76.71    3.53
  -1   9  -6    8.80    0.75
   1  -9   6   10.17    1.41
  -1   9  -7    1.52    0.41
   1  -9   7    1.72    0.73
  -1   9  -8   54.14    2.09
   1  -9   8   52.04    3.04
  -1   9  -9  122.13    3.68
   1  -9   9  126.82    5.04
   1  -9  10    0.54    0.73
   1  -9  10    1.30    0.84
   1  -9  11   60.47    3.55
   1  -9  11   64.24    3.54
   1  -9  12    1.82    1.02
   1  -9  12    0.19    0.78
   1  -9  13   -0.14    1.01
   1  -9  13    0.44    0.94
   1  -9  14    1.53    1.08
   1  -9  14    0.57    0.89
   1  -9  15   82.95    4.42
   1  -9  16   22.02    2.33
   1  -9  17    0.29    0.94
  -1   8  17   12.39    1.94
  -1   8  16   24.22    2.36
  -1   8  15    1.55    0.98
  -1   8  14   22.74    2.18
  -1   8  14   24.00    1.54
  -1   8  13    6.85    1.23
  -1   8  13    5.36    0.83
  -1   8  12   24.96    2.14
  -1   8  12   23.26    1.54
  -1   8  11   10.56    1.41
  -1   8  11    8.24    0.64
  -1   8  11    9.59    1.06
  -1   8  10  224.12    5.59
  -1   8  10  250.19    7.33
  -1   8  10  257.44    6.62
  -1   8   9    5.13    0.61
   1  -8  -9    5.77    0.73
   1  -8  -8   29.04    1.53
  -1   8   8   28.94    1.51
  -1   8   7    0.93    0.48
   1  -8  -7    0.97    0.42
  -1   8   6   14.77    1.35
  -1   8   6   11.13    0.98
   1  -8  -6   11.73    1.06
  -1   8   5    7.21    1.00
  -1   8   5    6.56    0.81
   1  -8  -5    6.21    0.81
  -1   8   4   43.79    2.19
   1  -8  -4   42.86    2.05
  -1   8   4   40.52    1.99
  -1   8   3   20.66    1.43
  -1   8   3   21.45    1.44
   1  -8  -3   21.98    1.46
   1  -8  -2   74.19    2.29
  -1   8   2   74.40    2.83
  -1   8   2   75.65    2.96
   1  -8  -2   77.07    2.98
   1  -8  -1   91.99    2.81
  -1   8   1   90.83    3.10
  -1   8   1   95.43    3.47
   1  -8  -1   91.22    3.39
   1  -8   0    2.57    0.55
  -1   8   0    2.52    0.50
  -1   8   0    4.02    0.82
   1  -8   0    3.85    0.75
  -1   8  -1   24.21    1.29
   1  -8   1   24.99    1.44
   1  -8   1   26.15    1.75
  -1   8  -1   26.45    1.77
  -1   8  -2   63.79    2.10
   1  -8   2   60.55    2.50
  -1   8  -2   64.97    2.93
   1  -8   2   60.41    2.82
  -1   8  -3   28.19    1.19
  -1   8  -3   30.83    2.01
   1  -8   3   27.26    1.87
  -1   8  -4  226.20    4.94
   1  -8   4  228.60    6.66
   1  -8   5   62.27    3.02
  -1   8  -6   25.07    1.28
   1  -8   6   27.36    1.97
  -1   8  -7   57.08    2.10
   1  -8   7   58.88    3.01
  -1   8  -8  155.29    4.28
   1  -8   8  160.02    5.50
  -1   8  -9   99.75    3.22
   1  -8   9  100.41    4.23
  -1   8 -10  107.75    3.50
   1  -8  10  110.11    4.53
  -1   8 -11   35.33    1.90
   1  -8  11   41.17    2.69
   1  -8  12   -0.54    0.83
   1  -8  12    0.53    0.73
   1  -8  13    6.55    1.42
   1  -8  13    4.62    0.99
   1  -8  14   17.00    2.09
   1  -8  14   12.95    1.74
   1  -8  15   45.03    3.29
   1  -8  15   45.08    3.10
   1  -8  16    7.59    1.47
   1  -8  17   41.09    3.05
   1  -8  18    3.89    1.06
  -1   7  17    6.81    1.55
  -1   7  16    0.92    1.12
  -1   7  15   93.87    4.57
  -1   7  14   23.34    2.15
  -1   7  14   25.34    1.44
  -1   7  13   32.67    2.47
  -1   7  13   35.46    1.82
  -1   7  12   12.96    1.55
  -1   7  12   14.57    1.18
  -1   7  11   81.24    3.62
  -1   7  11   78.22    2.82
  -1   7  10   18.04    0.92
  -1   7  10   22.16    1.85
  -1   7  10   19.13    1.33
  -1   7   9   50.87    1.81
  -1   7   8   84.25    2.66
   1  -7  -8   92.03    2.77
  -1   7   7  319.24    8.18
  -1   7   7  285.96    6.90
   1  -7  -7  305.93    7.03
  -1   7   6  267.94    7.05
   1  -7  -6  254.31    6.16
  -1   7   6  238.08    6.02
  -1   7   5    7.74    1.00
  -1   7   5    7.70    0.78
   1  -7  -5    7.92    0.83
  -1   7   4  101.43    3.53
   1  -7  -4  102.51    3.24
  -1   7   4   97.03    3.17
  -1   7   3  141.27    4.25
   1  -7  -3  138.65    4.13
  -1   7   3  139.43    4.10
  -1   7   2  687.43   14.49
   1  -7  -2  670.15   13.65
  -1   7   2  651.22   14.50
   1  -7  -2  681.40   14.61
  -1   7   1    0.74    0.42
   1  -7  -1    0.61    0.35
  -1   7   1    0.19    0.46
   1  -7  -1    0.83    0.59
   1  -7   0   22.53    1.23
  -1   7   0   23.41    1.29
   1  -7   0   23.62    1.54
  -1   7   0   23.94    1.50
   1  -7   1    4.63    0.64
  -1   7  -1    4.63    0.60
  -1   7  -1    4.78    0.78
   1  -7   1    4.50    0.78
  -1   7  -2   67.45    2.16
  -1   7  -2   77.69    3.01
   1  -7   2   71.81    2.90
  -1   7  -3    3.58    0.43
  -1   7  -3    3.54    0.78
   1  -7   3    4.05    0.82
  -1   7  -4   95.12    2.37
   1  -7   4   98.33    3.67
  -1   7  -4  103.89    3.75
  -1   7  -5    0.70    0.50
   1  -7   5    1.34    0.68
  -1   7  -6   74.79    3.18
  -1   7  -6   67.87    2.29
   1  -7   6   72.61    3.18
  -1   7  -7    9.65    0.81
   1  -7   7   10.51    1.24
  -1   7  -8   86.02    2.83
   1  -7   8   87.92    3.67
  -1   7  -9   -0.27    0.41
   1  -7   9    0.60    0.67
  -1   7 -10  344.25    8.40
   1  -7  10  365.96    9.61
  -1   7 -11   -0.10    0.44
   1  -7  11    0.90    0.80
  -1   7 -12    2.32    0.65
   1  -7  12    3.06    0.86
   1  -7  13   38.90    2.56
   1  -7  14   93.29    4.62
   1  -7  14   87.37    4.13
   1  -7  15   54.54    3.56
   1  -7  15   46.72    2.98
   1  -7  16   67.81    4.11
   1  -7  16   61.35    3.52
   1  -7  17    2.56    1.04
   1  -7  18    6.54    1.49
  -1   6  18    5.20    1.58
  -1   6  17   82.94    4.49
  -1   6  16   22.60    2.27
  -1   6  15   -0.50    0.76
  -1   6  15    0.50    0.41
  -1   6  14    2.13    0.93
  -1   6  14    0.90    0.39
  -1   6  14    1.20    0.45
  -1   6  13  197.38    6.60
  -1   6  13  191.23    5.07
  -1   6  13  197.58    4.71
  -1   6  12   25.61    2.02
  -1   6  12   25.08    1.41
  -1   6  12   23.64    1.04
  -1   6  11   78.22    3.42
  -1   6  11   74.21    1.73
  -1   6  11   76.67    2.52
  -1   6  10    0.63    0.19
  -1   6  10    0.82    0.26
  -1   6  10   -0.18    0.67
  -1   6  10    0.76    0.43
  -1   6   9  353.41    8.99
  -1   6   9  348.25    8.06
  -1   6   9  330.26    7.21
  -1   6   8    7.27    1.03
  -1   6   8    6.49    0.58
  -1   6   7   19.96    1.54
  -1   6   7   17.62    0.99
   1  -6  -7   17.54    1.02
  -1   6   6    0.78    0.56
  -1   6   6    0.18    0.29
   1  -6  -6    1.79    0.49
  -1   6   5    7.19    0.90
  -1   6   5    4.78    0.59
   1  -6  -5    5.73    0.65
  -1   6   4   12.24    1.09
  -1   6   4   12.09    0.93
   1  -6  -4   12.14    0.93
  -1   6   3  103.30    3.26
  -1   6   3   93.41    3.01
   1  -6  -3   97.03    3.06
  -1   6   2  341.80    7.79
   1  -6  -2  330.05    7.00
  -1   6   2  326.54    7.74
   1  -6  -2  325.59    7.74
   1  -6  -1  965.98   19.33
  -1   6   1  966.06   19.79
   1  -6  -1  974.38   20.06
  -1   6   1  971.97   20.07
  -1   6   0  308.10    7.14
   1  -6   0  318.83    7.08
   1  -6   0  317.02    7.60
  -1   6   0  319.38    7.62
   1  -6   1   66.41    2.29
  -1   6  -1   66.19    2.12
   1  -6   1   63.40    2.55
  -1   6  -1   68.89    2.58
  -1   6  -2  119.43    3.77
   1  -6   2  116.92    3.79
   1  -6   3   22.28    1.53
  -1   6  -3   24.37    1.55
  -1   6  -4   26.84    0.92
   1  -6   4   28.11    1.72
  -1   6  -4   29.08    1.78
  -1   6  -5    6.49    0.90
  -1   6  -5    6.30    0.61
   1  -6   5    5.55    0.92
  -1   6  -6  115.85    3.94
  -1   6  -6  104.58    3.07
   1  -6   6  112.54    3.90
  -1   6  -7    2.74    0.50
  -1   6  -7    2.40    0.67
   1  -6   7    2.49    0.80
  -1   6  -8   55.39    2.16
  -1   6  -8   61.65    2.81
   1  -6   8   59.98    2.82
  -1   6  -9   44.00    1.94
   1  -6   9   43.64    2.41
  -1   6 -10   28.26    1.61
   1  -6  10   33.41    2.13
  -1   6 -11   22.87    1.54
   1  -6  11   26.38    1.93
  -1   6 -12   46.56    2.40
   1  -6  12   54.28    2.84
  -1   6 -13    4.86    0.90
   1  -6  13    3.96    0.96
   1  -6  14   30.19    2.47
   1  -6  14   26.98    2.11
   1  -6  15   -0.68    1.04
   1  -6  15    0.08    0.71
   1  -6  16  162.65    6.51
   1  -6  16  150.15    5.69
   1  -6  17    2.38    1.25
   1  -6  17   -1.66    1.02
   1  -6  18   26.49    2.27
  -1   5  18   27.49    2.52
  -1   5  17    0.10    0.88
  -1   5  16   -0.33    0.78
  -1   5  16    0.64    0.51
  -1   5  15   10.90    1.63
  -1   5  15   12.51    1.04
  -1   5  14    0.85    0.77
  -1   5  14    1.56    0.38
  -1   5  14    1.18    0.40
  -1   5  13   -0.57    0.83
  -1   5  13    0.27    0.33
  -1   5  13    0.37    0.36
  -1   5  12    1.36    0.75
  -1   5  12    1.98    0.43
  -1   5  12    3.00    0.49
  -1   5  11   74.13    3.41
  -1   5  11   75.72    2.29
  -1   5  11   72.45    2.48
  -1   5  10   16.47    1.55
  -1   5  10   20.73    1.19
  -1   5  10   16.70    0.63
  -1   5   9  347.31    8.86
  -1   5   9  357.89    8.94
  -1   5   9  343.76    7.87
  -1   5   9  332.93    7.04
  -1   5   8  213.80    6.00
  -1   5   8  210.97    5.21
  -1   5   8  195.84    4.54
  -1   5   7  345.69    8.42
  -1   5   7  323.79    7.06
  -1   5   6   84.14    3.10
   1  -5  -6   82.98    2.38
  -1   5   6   78.32    2.30
  -1   5   5  204.03    5.40
   1  -5  -5  196.66    4.68
  -1   5   5  189.60    4.63
  -1   5   4  122.48    3.72
  -1   5   4  116.75    3.23
   1  -5  -4  123.85    3.31
  -1   5   3 1862.29   36.60
   1  -5  -3 1859.21   36.22
  -1   5   3 1811.47   36.19
  -1   5   2   22.40    1.29
  -1   5   2   24.41    1.24
   1  -5  -2   24.62    1.28
   1  -5  -1  489.67   10.06
  -1   5   1  487.86   10.63
   1  -5  -1  491.33   10.65
   1  -5   0   25.28    1.13
   1  -5   0   23.27    1.34
  -1   5   0   25.12    1.34
   1  -5   1  124.70    3.39
  -1   5  -1  128.21    3.72
   1  -5   1  124.81    3.70
  -1   5  -2    0.02    0.45
   1  -5   2   -0.43    0.59
   1  -5   3   70.56    2.63
  -1   5  -3   67.03    2.49
  -1   5  -4    0.25    0.50
   1  -5   4    0.46    0.57
  -1   5  -5   38.09    1.51
  -1   5  -5   44.45    2.09
   1  -5   5   37.79    1.96
  -1   5  -6    0.87    0.52
  -1   5  -6    0.58    0.34
   1  -5   6    1.22    0.64
  -1   5  -7   33.61    1.87
  -1   5  -7   29.96    1.44
   1  -5   7   32.75    1.86
  -1   5  -8    9.60    1.09
  -1   5  -8    9.39    0.83
   1  -5   8    9.73    1.06
  -1   5  -9  187.84    5.19
  -1   5  -9  207.58    5.88
   1  -5   9  200.54    5.80
  -1   5 -10   51.26    2.24
  -1   5 -10   57.24    2.67
   1  -5  10   52.46    2.57
  -1   5 -11   42.19    2.34
  -1   5 -11   41.00    2.07
   1  -5  11   42.48    2.35
  -1   5 -12   28.17    1.85
  -1   5 -12   27.70    1.77
   1  -5  12   29.74    1.98
  -1   5 -13   -0.37    0.48
  -1   5 -13    0.35    0.49
   1  -5  13    1.16    0.73
  -1   5 -14    1.03    0.58
   1  -5  14    0.62    0.58
   1  -5  15   31.50    2.54
   1  -5  15   26.88    2.05
   1  -5  16    5.09    1.29
   1  -5  16    7.56    1.23
   1  -5  17   36.30    2.86
   1  -5  17   32.74    2.32
   1  -5  18    8.64    1.59
   1  -5  18    6.61    1.18
  -1   4  19   16.56    2.06
  -1   4  18   71.98    4.14
  -1   4  17    1.64    0.80
  -1   4  17    4.07    0.85
  -1   4  16   18.00    2.01
  -1   4  16   18.36    1.44
  -1   4  15    6.51    1.29
  -1   4  15    7.54    0.55
  -1   4  15    7.85    0.97
  -1   4  14  136.86    5.20
  -1   4  14  130.20    3.38
  -1   4  13    4.35    0.92
  -1   4  13    5.16    0.56
  -1   4  12    1.23    0.71
  -1   4  12    0.74    0.33
  -1   4  11   74.53    3.33
  -1   4  11   77.53    2.43
  -1   4  10   19.96    1.65
  -1   4  10   20.73    1.57
  -1   4  10   17.89    1.05
  -1   4   9   29.36    1.89
  -1   4   9   31.69    1.92
  -1   4   9   26.99    1.32
  -1   4   9   28.56    0.90
  -1   4   8  147.95    4.54
  -1   4   8  140.63    3.78
  -1   4   8  137.36    3.16
  -1   4   7    1.37    0.67
  -1   4   7    0.75    0.40
  -1   4   7    1.09    0.29
  -1   4   6  398.05    9.17
  -1   4   6  381.08    8.02
  -1   4   5   20.97    1.35
  -1   4   5   18.25    0.89
   1  -4  -5   18.06    0.88
  -1   4   4   24.21    1.37
  -1   4   4   23.43    1.04
   1  -4  -4   24.34    1.07
  -1   4   3   20.79    1.02
   1  -4  -3   21.27    1.05
  -1   4   2  362.48    7.92
   1  -4  -2  369.65    7.96
   1  -4  -1  757.19   14.91
  -1   4   1  739.59   15.39
   1  -4  -1  763.38   15.43
   1  -4   0   12.37    0.73
   1  -4   0   11.39    0.93
  -1   4   0   11.34    0.86
   1  -4   1  314.08    6.80
   1  -4   1  305.77    7.07
  -1   4  -1  303.67    7.05
  -1   4  -2    2.04    0.50
   1  -4   2    1.48    0.63
   1  -4   3   31.89    1.59
  -1   4  -3   31.39    1.53
  -1   4  -4    1.05    0.49
   1  -4   4    1.15    0.61
  -1   4  -5  125.64    2.72
  -1   4  -5  120.05    3.27
  -1   4  -5  129.10    3.80
   1  -4   5  134.42    3.84
  -1   4  -6   14.32    0.57
  -1   4  -6   15.15    0.93
  -1   4  -6   17.64    1.24
   1  -4   6   15.82    1.18
  -1   4  -7   35.30    1.09
  -1   4  -7   34.02    1.54
  -1   4  -7   36.25    1.82
   1  -4   7   39.20    1.90
  -1   4  -8   47.23    1.43
  -1   4  -8   49.82    2.22
  -1   4  -8   48.03    1.97
   1  -4   8   48.94    2.22
  -1   4  -9   58.87    2.34
  -1   4  -9   60.55    2.58
   1  -4   9   61.83    2.60
  -1   4 -10   -0.27    0.48
  -1   4 -10    0.35    0.52
   1  -4  10    0.60    0.57
  -1   4 -11  147.09    4.53
  -1   4 -11  153.98    4.75
  -1   4 -11  137.32    4.35
   1  -4  11  147.56    4.65
  -1   4 -12   11.55    1.18
  -1   4 -12   14.16    1.32
  -1   4 -12   11.41    1.09
   1  -4  12   14.11    1.28
  -1   4 -13    8.48    1.07
  -1   4 -13    7.20    1.09
  -1   4 -13    6.70    0.92
   1  -4  13    7.65    1.05
  -1   4 -14   -1.44    0.60
   1  -4  14   -0.86    0.73
   1  -4  15   61.38    3.47
  -1   4 -15   59.99    2.69
   1  -4  15   64.31    3.00
   1  -4  16    4.89    1.24
   1  -4  16    5.16    0.96
   1  -4  17   16.44    1.93
   1  -4  17   16.29    1.60
   1  -4  18    2.48    1.27
   1  -4  19    2.97    1.18
  -1   3  19    8.25    1.66
  -1   3  18    1.96    1.08
  -1   3  18    1.90    0.68
  -1   3  17   25.70    2.40
  -1   3  17   25.58    1.89
  -1   3  16    3.19    1.19
  -1   3  16    2.42    0.78
  -1   3  15    6.85    1.24
  -1   3  14  141.19    5.25
  -1   3  14  138.06    3.47
  -1   3  13  133.42    4.92
  -1   3  13  129.87    3.38
  -1   3  12  426.83   10.93
  -1   3  12  432.91    9.21
  -1   3  11   24.17    1.80
  -1   3  11   22.92    1.71
  -1   3  11   23.36    1.11
  -1   3  10    4.52    0.87
  -1   3  10    3.83    0.29
  -1   3  10    4.95    0.84
  -1   3  10    4.98    0.52
  -1   3  10    4.73    0.30
  -1   3   9   14.50    1.33
  -1   3   9   17.13    1.37
  -1   3   9   15.28    0.89
  -1   3   9   15.74    0.61
  -1   3   8  121.67    3.93
  -1   3   8  116.66    3.82
  -1   3   8  109.76    3.08
  -1   3   8  115.73    2.64
  -1   3   7   10.54    1.05
  -1   3   7   10.73    0.76
  -1   3   7   11.24    0.55
  -1   3   6  107.83    3.43
  -1   3   6  102.19    2.86
  -1   3   6  104.56    2.49
  -1   3   5    1.22    0.53
  -1   3   5    1.86    0.31
  -1   3   5    1.00    0.42
  -1   3   4  220.71    5.67
  -1   3   4  227.08    4.97
   1  -3  -4  234.40    5.00
   1  -3  -3   22.31    0.97
  -1   3   3   22.23    0.93
  -1   3   2  115.77    2.52
  -1   3   2  115.51    2.91
   1  -3  -2  121.84    2.96
  -1   3   1   51.66    1.39
  -1   3   1   53.80    1.72
   1  -3  -1   56.60    1.74
   1  -3   0 1439.71   27.91
   1  -3   0 1438.29   28.23
  -1   3   0 1434.00   28.23
   1  -3   1   85.31    2.28
   1  -3   1   83.14    2.47
  -1   3  -1   79.16    2.40
   1  -3   2    8.10    0.80
  -1   3  -2    8.23    0.72
  -1   3  -3   34.45    1.47
   1  -3   3   34.59    1.53
  -1   3  -4 1103.23   22.33
   1  -3   4 1117.66   22.38
  -1   3  -5  243.70    5.06
  -1   3  -5  237.98    5.55
   1  -3   5  247.41    5.92
  -1   3  -5  249.35    5.90
  -1   3  -6  371.11    7.77
  -1   3  -6  382.14    8.37
   1  -3   6  388.65    8.67
  -1   3  -6  406.74    8.79
  -1   3  -7  333.19    7.11
  -1   3  -7  339.81    7.73
  -1   3  -7  349.71    7.99
   1  -3   7  346.16    7.95
  -1   3  -8   92.94    2.52
  -1   3  -8   94.64    3.02
  -1   3  -8   94.46    3.12
   1  -3   8   98.97    3.17
  -1   3  -9  270.73    6.14
  -1   3  -9  282.49    6.91
  -1   3  -9  271.55    6.77
   1  -3   9  273.87    6.85
  -1   3 -10  100.56    3.39
  -1   3 -10   98.13    3.36
  -1   3 -10   99.36    3.18
   1  -3  10   97.18    3.35
  -1   3 -11    3.07    0.71
  -1   3 -11    2.33    0.61
  -1   3 -11    3.49    0.64
   1  -3  11    3.95    0.74
  -1   3 -12   22.69    1.52
  -1   3 -12   24.54    1.69
  -1   3 -12   22.84    1.39
   1  -3  12   25.78    1.60
  -1   3 -13  335.71    8.70
  -1   3 -13  322.54    8.28
  -1   3 -13  319.80    7.90
   1  -3  13  336.19    8.29
  -1   3 -14   -0.39    0.54
  -1   3 -14    1.05    0.50
   1  -3  14    0.85    0.47
   1  -3  15   19.12    1.90
  -1   3 -15   21.78    1.43
   1  -3  15   20.65    1.55
   1  -3  16    7.07    1.31
   1  -3  16    7.95    1.01
   1  -3  17   27.35    2.37
   1  -3  17   27.82    1.90
   1  -3  18   10.84    1.65
   1  -3  19   11.90    1.75
  -1   2  19   81.84    3.92
  -1   2  19   88.74    4.62
  -1   2  18    0.93    0.81
  -1   2  18   -0.62    0.90
  -1   2  17    1.99    1.06
  -1   2  16    5.59    1.13
  -1   2  15   47.68    2.90
  -1   2  15   42.25    1.16
  -1   2  14    8.67    1.25
  -1   2  14    8.54    0.47
  -1   2  13  226.59    6.96
  -1   2  13  229.30    4.92
  -1   2  12  151.02    5.12
  -1   2  12  153.02    4.99
  -1   2  12  147.28    3.77
  -1   2  12  152.43    3.44
  -1   2  11  121.38    4.27
  -1   2  11  122.66    4.17
  -1   2  11  121.03    3.15
  -1   2  11  117.40    2.80
  -1   2  10    2.37    0.30
  -1   2  10    0.79    0.64
  -1   2  10    1.66    0.37
  -1   2  10    1.70    0.57
  -1   2   9    8.24    0.96
  -1   2   9    8.48    0.49
  -1   2   9    8.08    0.63
  -1   2   9    9.66    1.04
  -1   2   8    3.18    0.35
  -1   2   8    4.43    0.82
  -1   2   8    3.53    0.46
  -1   2   8    4.01    0.67
  -1   2   7   71.57    2.69
  -1   2   7   67.78    2.59
  -1   2   7   67.36    2.03
  -1   2   6    2.04    0.58
  -1   2   6    2.66    0.43
  -1   2   6    2.50    0.31
  -1   2   5   54.17    2.06
  -1   2   5   52.56    1.70
  -1   2   5   51.88    1.42
  -1   2   4  124.65    3.03
  -1   2   4  118.49    2.75
  -1   2   3 1006.73   19.63
  -1   2   2 1825.33   35.33
   1  -2  -2 1838.35   35.35
  -1   2   1   42.63    1.33
   1  -2  -1   43.34    1.34
   1  -2   0  155.04    3.36
  -1   2   0  151.51    3.35
   1  -2   0  161.03    3.58
  -1   2   0  150.30    3.54
   1  -2   1  237.32    5.15
   1  -2   1  242.37    5.29
  -1   2  -1  241.58    5.28
   1  -2   2  601.45   12.24
   1  -2   2  609.47   12.29
  -1   2  -2  599.52   12.27
   1  -2   3  195.92    4.56
  -1   2  -3  193.08    4.53
  -1   2  -4  322.30    6.55
  -1   2  -4  316.47    6.90
  -1   2  -4  322.05    7.08
   1  -2   4  329.63    7.11
  -1   2  -5   42.45    1.28
  -1   2  -5   43.88    1.58
   1  -2   5   47.11    1.70
  -1   2  -5   40.97    1.57
  -1   2  -6  185.86    4.23
  -1   2  -6  183.80    4.63
   1  -2   6  193.68    4.70
  -1   2  -6  195.42    4.73
  -1   2  -7   59.64    1.85
  -1   2  -7   62.00    2.15
  -1   2  -7   60.66    2.17
   1  -2   7   62.57    2.23
   1  -2   7   62.38    2.16
  -1   2  -8  126.09    3.31
   1  -2   8  125.07    3.29
  -1   2  -8  129.92    3.74
  -1   2  -8  129.98    3.63
   1  -2   8  127.33    3.76
   1  -2   8  130.65    3.63
  -1   2  -9    2.83    0.58
  -1   2  -9    2.97    0.57
   1  -2   9    2.97    0.65
   1  -2   9    3.56    0.48
  -1   2  -9    3.34    0.52
  -1   2  -9    2.98    0.49
   1  -2   9    2.46    0.54
  -1   2 -10  374.12    8.66
   1  -2  10  383.34    9.04
  -1   2 -10  384.12    9.02
  -1   2 -10  377.40    8.43
   1  -2  10  370.69    8.39
  -1   2 -10  364.39    8.35
   1  -2  10  380.13    8.66
   1  -2  11  118.08    3.97
  -1   2 -11  121.87    4.00
  -1   2 -11  116.93    3.62
   1  -2  11  117.47    3.47
  -1   2 -11  112.99    3.33
   1  -2  11  115.89    3.59
  -1   2 -12  250.69    6.84
   1  -2  12  246.00    6.79
  -1   2 -12  238.28    6.24
   1  -2  12  238.94    6.12
  -1   2 -12  240.73    5.96
   1  -2  12  249.61    6.27
  -1   2 -13   23.60    1.48
   1  -2  13   22.93    1.75
   1  -2  13   20.64    1.34
  -1   2 -13   22.80    1.28
   1  -2  13   22.72    1.43
   1  -2  14    1.17    0.64
   1  -2  14    1.43    0.45
  -1   2 -14    1.20    0.45
   1  -2  14    1.77    0.51
   1  -2  15   71.96    3.46
   1  -2  15   76.20    3.66
   1  -2  15   69.06    2.87
  -1   2 -15   73.85    2.59
   1  -2  15   77.90    2.97
   1  -2  16   43.99    2.82
   1  -2  16   40.17    2.66
   1  -2  16   41.56    2.15
   1  -2  17    7.63    1.33
   1  -2  17    5.30    1.16
   1  -2  17    7.60    0.94
   1  -2  18   39.09    2.85
   1  -2  18   34.80    2.63
   1  -2  19    1.47    0.92
   1  -2  20    1.39    0.91
  -1   1  20   -0.77    0.89
  -1   1  20    0.66    1.01
  -1   1  19   32.03    2.54
  -1   1  19   32.45    2.73
  -1   1  18    2.83    0.98
  -1   1  18    0.35    0.88
  -1   1  17    2.38    1.07
  -1   1  16   16.28    1.75
  -1   1  15    9.90    1.39
  -1   1  15   11.21    0.74
  -1   1  14   30.67    2.27
   1  -1 -14   26.37    1.27
  -1   1  14   32.10    1.29
  -1   1  13  250.97    7.28
  -1   1  13  254.43    6.99
   1  -1 -13  233.95    5.72
  -1   1  13  247.48    5.59
  -1   1  12   18.28    1.61
  -1   1  12   17.50    1.40
   1  -1 -12   18.44    1.03
  -1   1  12   19.24    0.95
  -1   1  11  160.09    5.07
  -1   1  11  163.86    4.91
   1  -1 -11  149.23    3.99
  -1   1  11  163.18    3.98
  -1   1  11  157.54    3.80
  -1   1  10    1.73    0.66
  -1   1  10    1.27    0.32
  -1   1  10    2.37    0.65
  -1   1  10    1.45    0.36
   1  -1 -10    1.07    0.36
  -1   1   9   81.86    3.05
  -1   1   9   78.73    2.17
  -1   1   9   81.93    2.32
   1  -1  -9   76.51    2.36
  -1   1   9   82.12    2.95
  -1   1   8    0.55    0.28
  -1   1   8    0.07    0.56
  -1   1   8    0.28    0.29
   1  -1  -8    0.28    0.29
  -1   1   8    0.44    0.44
  -1   1   7   39.48    1.89
  -1   1   7   40.07    1.27
  -1   1   7   41.03    1.40
   1  -1  -7   38.14    1.42
  -1   1   7   40.83    1.80
  -1   1   6    0.68    0.58
  -1   1   6    0.37    0.44
   1  -1  -6    0.26    0.29
  -1   1   6   -0.26    0.31
  -1   1   5  271.04    6.29
  -1   1   5  275.17    5.81
   1  -1  -5  260.71    5.80
  -1   1   4  175.79    3.90
   1  -1  -4  167.56    3.88
  -1   1   3 1147.30   22.28
   1  -1  -3 1133.97   22.25
  -1   1   2   23.16    0.88
   1  -1  -2   23.45    0.87
   1  -1  -1 1061.05   20.38
  -1   1   1 1040.51   20.36
  -1   1   0  500.43    9.89
   1  -1   0  494.05    9.88
   1  -1   1  289.36    5.97
  -1   1  -1  287.79    5.96
  -1   1  -1  290.01    6.02
   1  -1   1  296.91    6.02
   1  -1   2   16.48    0.79
  -1   1  -2   16.03    0.73
   1  -1   2   18.13    0.77
  -1   1  -3  663.64   13.29
   1  -1   3  662.49   13.27
  -1   1  -3  670.70   13.28
  -1   1  -4  131.37    3.05
   1  -1   4  139.23    3.34
  -1   1  -4  134.28    3.29
  -1   1  -4  134.96    3.22
   1  -1   4  133.66    3.22
   1  -1   5   78.29    2.11
  -1   1  -5   79.63    2.12
  -1   1  -5   80.36    2.35
   1  -1   5   82.27    2.41
   1  -1   5   82.92    2.26
  -1   1  -5   78.87    2.21
   1  -1   6  308.75    6.74
  -1   1  -6  310.28    6.74
   1  -1   6  315.22    7.08
  -1   1  -6  311.44    7.08
   1  -1   6  321.16    6.84
  -1   1  -6  312.13    6.83
  -1   1  -7  109.44    2.93
   1  -1   7  105.68    2.90
  -1   1  -7  104.47    2.91
  -1   1  -7  108.53    3.21
   1  -1   7  112.60    3.26
   1  -1   7  109.57    2.95
  -1   1  -8   79.73    2.44
  -1   1  -8   83.55    2.79
   1  -1   8   84.82    2.83
   1  -1   8   81.18    2.49
  -1   1  -8   83.85    2.53
  -1   1  -8   78.72    2.26
   1  -1   8   82.09    2.46
  -1   1  -9   97.27    2.87
   1  -1   9  101.12    3.32
  -1   1  -9  102.24    3.30
   1  -1   9   94.27    2.92
  -1   1  -9   98.43    2.98
  -1   1  -9   98.65    2.68
   1  -1   9   99.85    2.89
  -1   1 -10   91.23    3.21
   1  -1  10   93.19    3.26
  -1   1 -10   83.87    2.70
  -1   1 -10   92.28    2.91
   1  -1  10   85.40    2.83
  -1   1 -10   87.32    2.51
   1  -1  10   87.04    2.72
   1  -1  11   54.62    2.50
  -1   1 -11   52.09    2.00
  -1   1 -11   54.81    2.51
  -1   1 -11   49.80    2.15
   1  -1  11   53.57    2.18
  -1   1 -11   52.22    1.81
   1  -1  11   57.71    2.07
   1  -1  12  101.02    3.76
  -1   1 -12   97.38    3.11
  -1   1 -12  101.06    3.81
   1  -1  12   99.16    3.36
  -1   1 -12  102.19    2.87
   1  -1  12  105.76    3.16
   1  -1  13    7.40    1.09
   1  -1  13    6.56    0.85
  -1   1 -13    8.25    0.69
   1  -1  13    8.43    0.84
   1  -1  14   16.83    1.56
   1  -1  14   14.67    1.28
  -1   1 -14   17.27    1.00
   1  -1  14   17.35    1.17
   1  -1  15    5.07    1.03
   1  -1  15    3.78    0.70
   1  -1  15    4.40    1.01
  -1   1 -15    5.02    0.54
   1  -1  15    5.50    0.72
   1  -1  16   90.63    4.03
   1  -1  16   75.86    3.37
   1  -1  16   87.11    3.99
   1  -1  16   93.80    3.10
   1  -1  17    4.36    1.01
   1  -1  17    4.61    1.10
   1  -1  17    6.07    0.80
   1  -1  18  101.86    4.63
   1  -1  18  102.87    4.71
   1  -1  19    3.98    1.05
   1  -1  19    3.61    1.21
   1  -1  20    0.37    0.81
   1  -1  20    0.61    0.91
   1  -1  21   14.24    1.90
   1  -1  21   15.68    2.10
  -1   0  21    9.34    1.53
  -1   0  20   12.10    1.71
  -1   0  20   12.64    1.77
  -1   0  19    4.81    1.19
  -1   0  19    2.89    1.14
  -1   0  18   22.39    2.43
  -1   0  17   15.18    1.81
  -1   0  16    3.66    1.11
  -1   0  16    3.65    0.54
  -1   0  15   20.47    1.88
   1   0 -15   21.90    1.25
  -1   0  15   22.27    1.26
  -1   0  14    4.18    0.96
  -1   0  14    3.52    0.75
   1   0 -14    2.67    0.54
  -1   0  14    2.82    0.49
  -1   0  13    2.26    0.79
  -1   0  13    3.26    0.70
   1   0 -13    2.06    0.46
  -1   0  13    3.10    0.52
  -1   0  12  120.22    4.29
  -1   0  12  113.89    3.91
   1   0 -12  115.55    3.36
  -1   0  12  116.58    3.29
  -1   0  11  158.39    4.98
  -1   0  11  159.16    4.71
   1   0 -11  155.79    4.12
  -1   0  11  153.64    4.00
  -1   0  10  212.86    5.93
  -1   0  10  205.92    5.63
   1   0 -10  212.09    5.12
  -1   0  10  209.97    5.02
  -1   0   9    0.23    0.34
  -1   0   9   -0.51    0.50
  -1   0   9   -0.12    0.29
   1   0  -9    0.20    0.31
  -1   0   9   -0.16    0.38
  -1   0   8  470.57    9.97
  -1   0   8  475.91   10.75
  -1   0   8  473.87   10.02
   1   0  -8  481.76   10.09
  -1   0   8  487.07   10.56
  -1   0   7  473.17    9.92
  -1   0   7  493.19   10.64
  -1   0   7  475.31    9.98
   1   0  -7  475.63   10.02
  -1   0   7  486.16   10.43
  -1   0   6  150.33    3.51
  -1   0   6  147.21    4.00
  -1   0   6  146.72    3.55
   1   0  -6  145.33    3.57
  -1   0   6  146.07    3.86
  -1   0   5  242.29    5.24
  -1   0   5  245.38    5.71
  -1   0   5  233.06    5.56
  -1   0   5  243.38    5.29
   1   0  -5  242.21    5.32
   1   0  -4   62.14    1.76
  -1   0   4   62.19    1.75
  -1   0   3  365.87    7.54
   1   0  -3  369.04    7.56
  -1   0   2  102.82    2.42
   1   0  -2  102.86    2.43
  -1   0   1   12.03    0.55
   1   0  -1   12.38    0.53
   1   0   1   88.40    1.99
   1   0   2    0.28    0.25
  -1   0  -2    0.45    0.22
  -1   0  -2    0.28    0.20
   1   0   2    0.67    0.22
  -1   0  -2    0.56    0.17
  -1   0  -3 4366.97   83.73
   1   0   3 4377.05   83.72
   1   0   3 4390.00   83.83
   1   0   3 4403.51   83.84
  -1   0  -3 4391.99   83.83
   1   0   3 4395.18   83.59
  -1   0  -3 4359.26   83.59
  -1   0  -4   15.71    0.74
   1   0   4   14.23    0.74
   1   0   4   17.31    0.88
   1   0   4   16.56    0.87
  -1   0  -4   16.39    0.85
  -1   0  -4   16.26    0.64
   1   0   4   16.03    0.68
  -1   0  -5  707.27   14.28
   1   0   5  706.23   14.29
  -1   0  -5  710.77   14.49
   1   0   5  721.96   14.51
   1   0   5  717.71   14.02
  -1   0  -5  697.98   14.00
  -1   0  -6    2.10    0.45
   1   0   6    3.67    0.67
  -1   0  -6    2.75    0.35
   1   0   6    3.52    0.52
  -1   0  -6    0.95    0.39
  -1   0  -6    2.35    0.28
   1   0   6    2.93    0.40
  -1   0  -7  171.94    3.93
   1   0   7  176.19    4.58
  -1   0  -7  175.56    4.55
  -1   0  -7  171.68    4.31
   1   0   7  171.91    4.31
  -1   0  -7  166.95    3.72
   1   0   7  176.64    3.95
  -1   0  -8   80.51    2.19
   1   0   8   76.06    2.72
  -1   0  -8   79.29    2.73
   1   0   8   76.30    2.50
  -1   0  -8   76.66    2.52
  -1   0  -8   74.54    1.96
   1   0   8   79.59    2.16
  -1   0  -9   86.46    3.05
  -1   0  -9   84.08    2.37
   1   0   9   87.55    3.03
  -1   0  -9   87.07    2.82
   1   0   9   86.16    2.79
  -1   0  -9   83.47    2.16
   1   0   9   81.44    2.35
   1   0  10  153.61    4.59
  -1   0 -10  154.20    4.61
  -1   0 -10  153.41    3.77
  -1   0 -10  153.03    4.32
   1   0  10  146.55    4.24
  -1   0 -10  146.61    3.48
   1   0  10  146.11    3.72
  -1   0 -11  418.96    9.18
  -1   0 -11  433.59   10.40
  -1   0 -11  438.78   10.01
   1   0  11  434.31   10.36
   1   0  11  423.97    9.91
  -1   0 -11  430.39    8.89
   1   0  11  432.36    9.21
   1   0  12   32.67    2.00
   1   0  12   31.66    1.78
  -1   0 -12   33.13    1.22
   1   0  12   33.37    1.41
   1   0  13   75.30    3.34
   1   0  13   80.64    3.13
  -1   0 -13   75.33    2.15
   1   0  13   81.75    2.50
   1   0  14    3.47    0.86
   1   0  14    2.71    0.83
   1   0  14    3.46    0.76
  -1   0 -14    3.60    0.42
   1   0  14    2.57    0.45
   1   0  15    1.74    0.79
   1   0  15    2.41    0.80
   1   0  15    0.73    0.46
  -1   0 -15    2.02    0.34
   1   0  15    1.80    0.43
   1   0  16   27.12    2.08
   1   0  16   31.36    2.33
   1   0  16   29.35    1.41
   1   0  17   17.44    1.84
   1   0  17   17.10    1.81
   1   0  18   15.63    1.78
   1   0  18   15.04    1.82
   1   0  19    9.89    1.48
   1   0  19    9.14    1.62
   1   0  20   27.60    2.46
   1   0  20   25.61    2.49
   1   0  21    0.05    0.81
   1   0  21    1.33    1.19
   1   0  22    8.41    1.70
  -1  -1  20    2.52    1.20
  -1  -1  20    1.16    1.08
  -1  -1  19    2.24    0.96
  -1  -1  18   59.68    3.58
  -1  -1  17    2.68    0.90
  -1  -1  16    3.21    0.98
  -1  -1  16    3.17    0.63
  -1  -1  15   17.19    1.67
  -1  -1  15   14.15    1.34
   1   1 -15   14.44    1.12
  -1  -1  15   14.96    1.16
  -1  -1  14    4.77    1.06
  -1  -1  14    4.54    0.72
   1   1 -14    4.37    0.63
  -1  -1  14    4.10    0.65
  -1  -1  13   72.88    3.26
  -1  -1  13   70.46    2.91
   1   1 -13   71.81    2.59
  -1  -1  13   73.55    2.61
  -1  -1  12  185.78    5.67
  -1  -1  12  179.80    5.22
   1   1 -12  182.32    4.86
  -1  -1  12  188.75    4.92
  -1  -1  11   35.62    2.04
  -1  -1  11   37.05    1.84
   1   1 -11   37.86    1.67
  -1  -1  11   36.92    1.68
  -1  -1  10   55.94    2.49
  -1  -1  10   54.29    2.21
   1   1 -10   54.28    2.03
  -1  -1  10   53.47    2.01
  -1  -1   9    1.30    0.62
  -1  -1   9    0.75    0.40
   1   1  -9    0.91    0.43
  -1  -1   9    1.35    0.43
  -1  -1   8   24.17    1.45
  -1  -1   8   25.09    1.23
   1   1  -8   23.69    1.19
  -1  -1   8   23.53    1.25
  -1  -1   7   35.03    1.62
  -1  -1   7   33.65    1.38
   1   1  -7   33.35    1.39
  -1  -1   7   32.43    1.41
  -1  -1   6  428.44    9.07
  -1  -1   6  429.51    9.30
   1   1  -6  430.01    9.06
  -1  -1   6  423.26    9.04
  -1  -1   6  420.92    9.08
  -1  -1   5   25.69    1.24
  -1  -1   5   25.26    1.13
   1   1  -5   24.96    1.08
  -1  -1   5   25.28    1.11
  -1  -1   5   21.65    1.05
  -1  -1   4  469.35    9.68
  -1  -1   4  464.23    9.60
  -1  -1   4  461.49    9.59
   1   1  -4  463.01    9.60
  -1  -1   3   17.43    0.84
  -1  -1   3   16.91    0.82
   1   1  -3   15.69    0.78
  -1  -1   2  676.52   13.38
   1   1  -2  675.54   13.40
  -1  -1   2  670.05   13.40
   1   1  -1  602.39   11.74
  -1  -1   1  579.85   11.71
   1   1   0 1254.54   26.20
  -1  -1   0 1472.89   26.23
   1   1   1  123.45    2.64
   1   1   2  162.82    3.55
  -1  -1  -2  162.92    3.56
   1   1   2  163.50    3.52
  -1  -1  -2  161.40    3.52
  -1  -1  -3    2.92    0.42
   1   1   3    2.80    0.42
   1   1   3    2.27    0.34
  -1  -1  -3    2.50    0.31
   1   1   3    2.83    0.44
  -1  -1  -3    3.55    0.42
   1   1   4   89.42    2.40
  -1  -1  -4   88.63    2.42
   1   1   4   91.04    2.28
   1   1   4   89.96    2.46
  -1  -1  -4   91.64    2.46
   1   1   5  190.06    4.47
  -1  -1  -5  189.77    4.48
   1   1   5  189.84    4.32
   1   1   5  191.28    4.57
  -1  -1  -5  188.32    4.53
  -1  -1  -5  187.16    3.82
   1   1   5  185.96    3.83
  -1  -1  -6   97.57    2.81
   1   1   6   98.78    2.72
   1   1   6   96.19    2.79
  -1  -1  -6   97.24    2.89
  -1  -1  -6   96.69    2.16
   1   1   6   96.57    2.94
   1   1   6   96.02    2.16
   1   1   7  205.19    5.07
  -1  -1  -7  203.34    5.09
  -1  -1  -7  198.84    4.28
  -1  -1  -7  204.32    5.22
   1   1   7  203.39    5.23
   1   1   7  210.87    4.30
  -1  -1  -8    4.16    0.71
   1   1   8    3.47    0.60
  -1  -1  -8    5.06    0.73
  -1  -1  -8    4.72    0.37
   1   1   8    4.24    0.70
   1   1   8    4.20    0.36
   1   1   9   31.37    1.73
  -1  -1  -9   32.60    1.74
  -1  -1  -9   29.78    1.60
   1   1   9   30.96    1.57
  -1  -1  -9   27.39    0.82
   1   1   9   31.02    1.02
   1   1  10   64.17    2.69
  -1  -1 -10   71.18    2.65
   1   1  10   67.99    2.57
  -1  -1 -10   60.31    1.54
   1   1  10   67.11    1.80
   1   1  11  187.75    5.45
   1   1  11  189.63    5.21
  -1  -1 -11  187.00    5.25
  -1  -1 -11  169.44    3.77
   1   1  11  190.67    4.12
   1   1  12    0.03    0.45
   1   1  12    0.15    0.53
   1   1  12    1.25    0.65
   1   1  12    0.40    0.26
  -1  -1 -12    0.58    0.17
   1   1  13  234.82    6.56
   1   1  13  230.13    6.55
   1   1  13  231.27    6.88
   1   1  13  238.99    5.28
   1   1  14    6.86    0.99
   1   1  14    6.88    1.02
   1   1  14    9.01    1.29
   1   1  14    7.72    0.57
   1   1  15    1.09    0.72
   1   1  15    0.58    0.71
   1   1  15    1.00    0.31
   1   1  16   25.30    1.93
   1   1  16   25.46    2.11
   1   1  16   25.85    1.06
   1   1  17   72.57    3.49
   1   1  17   70.39    3.73
   1   1  18    6.55    1.14
   1   1  18    8.74    1.53
   1   1  19   26.17    2.19
   1   1  19   25.63    2.40
   1   1  20    0.08    0.78
   1   1  20    0.57    0.97
   1   1  21    0.83    0.95
   1   1  22    0.39    0.88
  -1  -2  20   -2.55    1.04
  -1  -2  20    2.52    1.18
  -1  -2  19    1.39    0.92
  -1  -2  18   33.83    2.65
  -1  -2  17   23.17    2.12
  -1  -2  16   16.11    1.74
  -1  -2  16   17.04    1.36
  -1  -2  15    2.98    0.67
  -1  -2  15    3.49    1.00
  -1  -2  15    3.91    0.70
  -1  -2  14    2.52    0.84
  -1  -2  14    1.30    0.53
   1   2 -14    3.69    0.67
  -1  -2  14    3.57    0.71
  -1  -2  13    0.75    0.61
  -1  -2  13    1.33    0.52
   1   2 -13    1.85    0.55
  -1  -2  13    1.29    0.51
  -1  -2  12   93.67    3.62
  -1  -2  12   92.95    3.20
   1   2 -12   96.02    3.19
  -1  -2  12   95.32    3.25
  -1  -2  11   85.11    3.23
  -1  -2  11   79.53    2.80
   1   2 -11   79.91    2.80
  -1  -2  11   83.24    2.92
  -1  -2  10   17.24    1.33
  -1  -2  10   18.56    1.15
   1   2 -10   19.63    1.21
  -1  -2  10   19.18    1.24
  -1  -2   9   22.16    1.40
  -1  -2   9   21.66    1.17
   1   2  -9   19.93    1.19
  -1  -2   9   19.14    1.21
  -1  -2   8  146.17    4.13
  -1  -2   8  139.67    3.71
   1   2  -8  143.62    3.92
  -1  -2   8  148.17    4.04
  -1  -2   7   98.54    3.03
  -1  -2   7   95.99    2.70
   1   2  -7  102.20    2.98
  -1  -2   7  102.41    3.04
  -1  -2   6    8.15    0.80
  -1  -2   6    9.57    0.78
   1   2  -6   11.04    0.82
  -1  -2   6    9.95    0.64
   1   2  -5   20.51    1.08
  -1  -2   5   20.37    1.12
  -1  -2   5   20.55    1.02
   1   2  -5   18.89    1.02
  -1  -2   5   17.74    0.82
   1   2  -4   70.89    2.16
  -1  -2   4   70.37    2.18
  -1  -2   4   60.45    1.74
  -1  -2   4   70.50    1.95
   1   2  -4   69.75    2.11
   1   2  -3    7.88    0.65
  -1  -2   3    7.15    0.50
  -1  -2   3    6.75    0.67
   1   2  -3    6.64    0.61
  -1  -2   2   41.19    1.11
  -1  -2   2   43.82    1.51
   1   2  -2   44.67    1.48
   1   2  -2   43.49    1.46
   1   2  -1  433.00    8.91
  -1  -2   1  436.73    8.91
   1   2  -1  427.16    8.91
  -1  -2   0  153.79    3.28
   1   2   0  158.07    3.55
  -1  -2   0  159.98    3.56
   1   2   1    2.02    0.29
  -1  -2  -1    2.38    0.35
   1   2   1    2.40    0.34
  -1  -2  -1    1.82    0.22
   1   2   1    2.25    0.25
  -1  -2  -1    2.60    0.37
  -1  -2  -2  251.42    5.42
   1   2   2  251.57    5.42
  -1  -2  -2  256.58    5.21
  -1  -2  -2  254.09    5.30
   1   2   2  253.59    5.30
  -1  -2  -3  183.62    4.14
   1   2   3  178.73    4.11
   1   2   3  180.84    4.06
  -1  -2  -3  177.04    3.66
  -1  -2  -3  174.28    4.05
   1   2   4   10.49    0.56
   1   2   4   11.45    0.81
  -1  -2  -4   11.77    0.84
  -1  -2  -4   11.85    0.56
   1   2   4   12.12    0.84
  -1  -2  -4   11.83    0.79
   1   2   5  171.33    3.85
   1   2   5  169.93    4.27
  -1  -2  -5  173.72    4.31
  -1  -2  -5  170.48    4.29
   1   2   5  175.60    4.31
   1   2   6  611.89   12.52
   1   2   6  605.27   12.98
  -1  -2  -6  631.48   13.05
  -1  -2  -6  619.52   13.09
   1   2   6  630.51   13.09
   1   2   7  425.38    9.52
  -1  -2  -7  427.00    9.57
   1   2   7  427.55    9.07
  -1  -2  -7  428.22    9.65
   1   2   7  430.84    9.64
  -1  -2  -8  225.45    5.75
   1   2   8  220.53    5.28
   1   2   8  220.41    5.67
   1   2   8  224.77    5.84
   1   2   9   99.97    3.30
   1   2   9   99.00    3.00
  -1  -2  -9  100.30    3.38
   1   2   9  103.41    3.47
   1   2  10  233.67    5.82
  -1  -2 -10  224.82    6.18
   1   2  10  229.58    6.15
   1   2  10  238.98    6.41
   1   2  11    0.03    0.56
  -1  -2 -11    0.34    0.53
   1   2  11    0.52    0.48
   1   2  11    1.01    0.60
   1   2  12   55.89    2.59
   1   2  12   59.60    2.46
   1   2  12   56.96    2.77
   1   2  13   33.17    1.87
   1   2  13   33.86    2.05
   1   2  13   34.33    2.24
   1   2  14    0.31    0.54
   1   2  14    0.30    0.75
   1   2  15    3.84    0.81
   1   2  15    4.87    1.04
   1   2  16   13.06    1.41
   1   2  16   10.12    1.43
   1   2  17   27.63    2.01
   1   2  17   30.12    2.45
   1   2  18   52.48    2.95
   1   2  18   49.94    3.27
   1   2  19  100.25    4.34
   1   2  19  100.88    4.92
   1   2  20    0.08    0.73
   1   2  20    1.71    0.97
   1   2  21    0.23    0.76
  -1  -3  20   -0.34    1.10
  -1  -3  19   64.72    3.80
  -1  -3  18   -0.21    0.81
  -1  -3  17  143.15    5.56
  -1  -3  17  146.97    4.87
  -1  -3  16    3.42    0.96
  -1  -3  16    3.73    0.79
  -1  -3  15    3.30    0.91
  -1  -3  15    4.68    0.88
  -1  -3  14   -0.21    0.60
  -1  -3  14    0.21    0.45
   1   3 -14   -0.23    0.46
  -1  -3  14    0.12    0.53
  -1  -3  13    1.43    0.65
  -1  -3  13    2.03    0.52
   1   3 -13    1.90    0.58
  -1  -3  13    3.28    0.76
  -1  -3  12   49.16    2.45
  -1  -3  12   48.76    2.04
   1   3 -12   48.46    2.23
  -1  -3  12   49.75    2.34
  -1  -3  11   35.59    1.98
  -1  -3  11   33.27    1.56
   1   3 -11   36.25    1.84
  -1  -3  11   34.29    1.86
  -1  -3  10   19.71    1.39
  -1  -3  10   18.99    1.08
   1   3 -10   18.67    1.27
  -1  -3  10   20.67    1.42
  -1  -3   9   28.26    1.54
  -1  -3   9   27.20    1.24
   1   3  -9   28.41    1.56
  -1  -3   9   26.96    1.54
  -1  -3   8    0.77    0.47
  -1  -3   8    1.22    0.45
   1   3  -8    0.12    0.43
  -1  -3   8    0.18    0.24
   1   3  -8    1.10    0.50
  -1  -3   7  809.41   16.41
   1   3  -7  814.11   16.75
  -1  -3   7  769.45   15.83
   1   3  -7  793.20   16.60
  -1  -3   7  813.55   16.72
   1   3  -6   57.75    2.18
  -1  -3   6   54.77    1.88
  -1  -3   6   52.04    1.53
   1   3  -6   55.43    2.08
  -1  -3   6   55.06    2.16
   1   3  -5  147.82    3.97
  -1  -3   5  148.50    3.97
  -1  -3   5  145.92    3.53
   1   3  -5  144.01    3.89
  -1  -3   5  137.82    3.13
   1   3  -4    1.15    0.43
  -1  -3   4    0.50    0.50
  -1  -3   4    0.98    0.32
   1   3  -4    0.47    0.39
  -1  -3   4    0.20    0.17
   1   3  -3   19.88    1.10
  -1  -3   3   18.05    0.71
  -1  -3   3   18.16    1.15
  -1  -3   2   55.93    1.92
   1   3  -2   55.37    1.89
  -1  -3   1   43.37    1.11
  -1  -3   1   47.04    1.67
   1   3  -1   47.09    1.62
   1   3   0  131.31    2.92
  -1  -3   0  130.93    2.91
  -1  -3   0  131.41    3.30
   1   3   0  135.10    3.30
   1   3   1  699.55   13.40
  -1  -3  -1  685.81   13.40
   1   3   1  633.45   13.14
  -1  -3  -1  701.42   13.57
   1   3   1  688.71   13.55
   1   3   2   10.77    0.68
  -1  -3  -2   11.23    0.73
  -1  -3  -2   10.49    0.64
   1   3   2   10.47    0.62
   1   3   2    9.84    0.58
   1   3   3  169.18    4.02
  -1  -3  -3  172.39    4.06
  -1  -3  -3  170.84    3.68
   1   3   3  158.51    3.65
   1   3   3  167.00    3.89
   1   3   4    7.23    0.71
  -1  -3  -4    9.13    0.86
  -1  -3  -4    7.81    0.39
   1   3   4    7.65    0.72
  -1  -3  -4    7.63    0.44
   1   3   5   78.49    2.54
  -1  -3  -5   81.76    2.58
   1   3   5   79.45    2.51
  -1  -3  -5   79.38    1.77
   1   3   6   15.64    1.10
  -1  -3  -6   15.26    1.12
   1   3   6   15.25    0.71
   1   3   6   15.04    1.07
   1   3   7   58.25    2.26
   1   3   7   55.25    1.44
   1   3   7   61.07    2.27
   1   3   7   56.16    1.71
  -1  -3  -7   59.08    2.30
   1   3   8   54.97    2.30
   1   3   8   50.05    1.29
   1   3   8   56.03    2.26
  -1  -3  -8   52.34    2.28
   1   3   8   54.79    1.77
   1   3   9    0.59    0.45
  -1  -3  -9    2.27    0.74
   1   3   9    1.09    0.39
   1   3   9    1.29    0.62
   1   3  10    4.50    0.60
   1   3  10    4.98    0.81
  -1  -3 -10    5.29    0.85
   1   3  10    4.46    0.88
   1   3  11   28.08    1.78
   1   3  11   28.68    1.48
  -1  -3 -11   28.36    1.85
   1   3  11   32.03    1.97
   1   3  12  468.96   11.22
   1   3  12  460.85   10.46
   1   3  12  457.90   11.35
   1   3  13   29.50    1.68
   1   3  13   28.39    2.07
   1   3  14   49.12    2.31
   1   3  14   48.67    2.79
   1   3  15   64.67    2.85
   1   3  15   68.19    3.46
   1   3  16    7.42    1.05
   1   3  16    6.99    1.26
   1   3  17   24.08    1.82
   1   3  17   25.60    2.26
   1   3  18   66.60    3.21
   1   3  18   70.02    3.90
   1   3  19    0.87    0.90
   1   3  19    1.23    0.93
   1   3  20   47.70    2.88
   1   3  20   41.79    3.28
  -1  -4  18    1.81    0.79
  -1  -4  17   87.68    4.15
  -1  -4  17   89.30    3.76
  -1  -4  16   83.89    3.91
  -1  -4  16   88.42    3.70
  -1  -4  15   77.19    3.58
  -1  -4  15   75.56    3.34
  -1  -4  14   -0.31    0.58
   1   4 -14    1.03    0.57
  -1  -4  14   -0.39    0.60
  -1  -4  13   60.42    2.85
  -1  -4  13   61.12    2.25
   1   4 -13   61.14    2.72
  -1  -4  13   60.02    2.83
  -1  -4  12  134.24    4.39
  -1  -4  12  124.86    3.59
   1   4 -12  129.74    4.27
  -1  -4  12  134.90    4.45
  -1  -4  11  367.15    8.80
  -1  -4  11  344.84    7.87
   1   4 -11  363.24    8.84
  -1  -4  11  358.23    8.92
  -1  -4  10    8.44    0.93
  -1  -4  10    8.42    0.99
   1   4 -10    8.30    0.94
  -1  -4  10    8.12    0.63
   1   4  -9    7.86    0.90
  -1  -4   9    8.77    0.89
  -1  -4   9    6.80    0.93
  -1  -4   9    7.03    0.56
   1   4  -9    7.58    0.87
   1   4  -8   42.76    2.05
  -1  -4   8   40.28    1.74
  -1  -4   8   39.57    1.30
   1   4  -8   43.43    2.01
  -1  -4   8   38.44    1.95
   1   4  -7  226.77    5.84
  -1  -4   7  215.35    5.20
  -1  -4   7  209.46    4.55
   1   4  -7  220.45    5.68
  -1  -4   7  206.69    5.61
   1   4  -6    4.40    0.71
  -1  -4   6    4.77    0.55
  -1  -4   6    2.95    0.62
  -1  -4   6    3.87    0.28
   1   4  -6    4.03    0.67
   1   4  -5  104.11    3.26
  -1  -4   5   96.54    2.60
   1   4  -5   97.77    3.14
  -1  -4   5   99.24    3.21
   1   4  -4    0.70    0.27
  -1  -4   4    0.72    0.51
   1   4  -4    0.58    0.45
   1   4  -3  274.81    5.77
   1   4  -3  300.62    6.81
  -1  -4   3  301.59    6.86
   1   4  -2  165.87    4.35
  -1  -4   2  165.33    4.38
  -1  -4   1  155.66    3.42
   1   4  -1  158.68    3.41
   1   4  -1  166.49    4.17
  -1  -4   1  169.18    4.26
  -1  -4   0    0.61    0.31
   1   4   0    0.82    0.30
  -1  -4   0    0.32    0.55
   1   4   0    1.44    0.51
  -1  -4  -1 1187.12   23.56
   1   4   1 1185.15   23.53
   1   4   1 1194.02   23.81
  -1  -4  -1 1253.95   23.90
   1   4   2  144.02    3.52
  -1  -4  -2  141.15    3.54
   1   4   2  138.17    3.31
   1   4   2  139.49    3.50
  -1  -4  -2  145.19    3.53
   1   4   3   37.70    1.49
  -1  -4  -3   38.88    1.57
   1   4   3   39.41    1.36
   1   4   3   37.48    1.41
  -1  -4  -3   36.86    1.31
  -1  -4  -4   43.43    1.80
   1   4   4   45.56    1.74
   1   4   4   40.97    1.36
   1   4   4   45.34    1.66
  -1  -4  -4   44.19    1.38
  -1  -4  -5  158.46    4.17
   1   4   5  151.69    4.11
   1   4   5  153.27    3.99
   1   4   5  141.33    3.36
  -1  -4  -5  151.33    3.36
  -1  -4  -6   11.69    1.02
   1   4   6   12.38    1.01
   1   4   6   12.81    1.03
  -1  -4  -6   11.38    0.52
   1   4   7   71.21    2.60
   1   4   7   70.90    2.66
  -1  -4  -7   66.21    2.64
   1   4   8  440.83   10.22
   1   4   8  440.23    9.16
  -1  -4  -8  432.25   10.31
   1   4   8  459.03   10.29
   1   4   9   83.18    3.16
   1   4   9   82.06    2.13
  -1  -4  -9   83.83    3.26
   1   4   9   88.64    3.20
   1   4   9   86.94    2.42
   1   4  10   20.58    1.54
  -1  -4 -10   22.84    1.66
   1   4  10   22.45    0.78
   1   4  10   25.96    1.67
   1   4  10   21.03    1.09
   1   4  11    8.32    1.01
   1   4  11    8.65    0.77
   1   4  11    8.11    1.08
   1   4  12   39.74    1.77
   1   4  12   39.46    2.34
   1   4  13  111.59    3.51
   1   4  13  111.86    4.38
   1   4  14  284.20    7.15
   1   4  14  282.06    8.26
   1   4  15    1.01    0.51
   1   4  15    1.84    0.90
   1   4  16   31.47    1.86
   1   4  16   29.79    2.39
   1   4  17   18.32    1.53
   1   4  17   19.14    2.06
   1   4  18  172.25    5.59
   1   4  18  179.66    6.77
   1   4  19   12.94    1.40
   1   4  19   10.35    1.61
   1   4  20   46.28    3.42
  -1  -5  17   30.42    2.23
  -1  -5  16    8.62    1.22
  -1  -5  15   13.47    1.41
  -1  -5  14    3.29    0.86
   1   5 -13    8.22    1.05
  -1  -5  13    8.69    1.10
  -1  -5  12   50.21    2.42
   1   5 -12   47.76    2.49
  -1  -5  12   45.52    2.51
  -1  -5  11  131.41    4.15
   1   5 -11  126.16    4.35
  -1  -5  11  126.37    4.45
   1   5 -10  113.33    4.01
  -1  -5  10  104.47    3.47
   1   5 -10  104.09    3.76
  -1  -5  10  101.29    3.84
   1   5  -9  207.67    5.86
   1   5  -9  194.02    5.62
  -1  -5   9  181.61    5.61
  -1  -5   8    1.17    0.64
   1   5  -8    0.86    0.61
   1   5  -8    1.05    0.55
   1   5  -7  133.31    4.25
   1   5  -7  130.25    4.13
  -1  -5   7  125.61    4.14
   1   5  -6  104.97    3.60
   1   5  -6  108.09    3.57
  -1  -5   6  102.70    3.54
   1   5  -5  166.33    3.93
   1   5  -5  183.54    4.99
  -1  -5   5  166.75    4.80
   1   5  -4   33.30    1.73
   1   5  -4   31.75    1.04
  -1  -5   4   31.42    1.66
   1   5  -3   82.06    2.85
   1   5  -3   77.81    1.84
  -1  -5   3   79.31    2.79
   1   5  -2    0.19    0.48
  -1  -5   2    0.66    0.55
   1   5  -1    2.90    0.32
   1   5  -1    2.96    0.63
  -1  -5   1    2.63    0.66
   1   5   0    0.24    0.29
  -1  -5   0    0.63    0.34
  -1  -5   0    0.36    0.54
   1   5   0    0.57    0.46
   1   5   1   57.99    1.83
  -1  -5  -1   55.82    1.85
   1   5   1   61.05    2.12
  -1  -5  -1   57.85    2.06
  -1  -5  -2   17.44    1.02
   1   5   2   17.48    0.98
   1   5   2   18.18    1.07
  -1  -5  -2   17.76    1.05
  -1  -5  -3  458.09    9.86
   1   5   3  450.58    9.79
   1   5   3  448.38    9.65
   1   5   3  444.91    9.56
  -1  -5  -3  464.81    9.66
  -1  -5  -4   11.39    0.98
   1   5   4   11.94    0.94
   1   5   4   10.04    0.73
   1   5   4   11.69    0.87
  -1  -5  -4   11.45    0.77
  -1  -5  -5  272.23    6.53
   1   5   5  275.99    6.48
   1   5   5  262.01    6.25
   1   5   5  247.50    5.75
  -1  -5  -5  264.00    5.78
  -1  -5  -6   31.25    1.69
   1   5   6   32.48    1.67
   1   5   6   27.00    1.08
   1   5   6   31.22    1.60
  -1  -5  -6   30.23    1.12
   1   5   7  751.85   15.90
  -1  -5  -7  733.48   15.93
   1   5   7  731.65   15.72
  -1  -5  -7  731.42   14.54
   1   5   8   15.12    1.22
  -1  -5  -8   12.74    1.22
   1   5   8   12.23    1.17
  -1  -5  -8   12.48    0.51
   1   5   9  614.51   13.69
   1   5   9  599.49   13.57
  -1  -5  -9  591.68   13.75
   1   5  10    0.12    0.57
   1   5  10    0.21    0.60
   1   5  10    0.81    0.26
   1   5  11   -0.40    0.63
   1   5  11    0.78    0.25
   1   5  11    0.83    0.34
   1   5  11   -0.06    0.56
   1   5  12    1.22    0.69
   1   5  12    1.57    0.23
   1   5  12    1.17    0.37
   1   5  13   53.25    2.06
   1   5  13   50.87    2.83
   1   5  14    0.17    0.40
   1   5  14    1.06    0.71
   1   5  15    7.67    0.90
   1   5  15    8.32    1.25
   1   5  16   16.71    1.27
   1   5  16   18.47    2.50
   1   5  17    2.05    0.61
   1   5  17    3.27    1.12
   1   5  18    2.42    0.61
   1   5  18    3.24    1.05
   1   5  19  101.69    5.08
  -1  -6  17   18.82    1.92
  -1  -6  16   46.77    2.94
  -1  -6  15    3.34    0.87
  -1  -6  14    5.05    1.12
  -1  -6  13    9.54    1.28
  -1  -6  12   37.99    2.41
  -1  -6  11   16.46    1.53
   1   6 -10   57.13    2.75
  -1  -6  10   50.39    2.69
   1   6  -9   14.21    1.31
  -1  -6   9   11.64    1.27
   1   6  -8   58.35    2.76
   1   6  -8   54.58    2.59
  -1  -6   8   51.65    2.59
   1   6  -7    2.20    0.69
  -1  -6   7    2.59    0.76
   1   6  -7    3.12    0.70
   1   6  -6   35.72    2.02
  -1  -6   6   30.62    1.90
   1   6  -5   67.70    1.92
   1   6  -5   79.90    3.03
  -1  -6   5   72.40    2.93
   1   6  -4   61.74    2.61
   1   6  -4   57.10    1.54
  -1  -6   4   57.70    2.51
   1   6  -3   74.38    2.84
   1   6  -3   66.67    1.62
  -1  -6   3   71.91    2.76
   1   6  -2   50.78    1.25
   1   6  -2   54.23    2.30
  -1  -6   2   52.67    2.27
   1   6  -1    7.56    0.51
  -1  -6   1    6.72    0.86
   1   6  -1    6.50    0.82
   1   6   0  158.29    3.85
   1   6   0  158.72    4.52
  -1  -6   0  168.79    4.54
   1   6   1   28.59    1.25
   1   6   1   27.97    1.50
  -1  -6  -1   30.09    1.54
   1   6   2   86.13    2.61
   1   6   2   81.07    2.73
  -1  -6  -2   82.82    2.65
  -1  -6  -2   85.83    2.77
  -1  -6  -3    8.44    0.88
   1   6   3    8.57    0.79
   1   6   3    9.09    0.82
  -1  -6  -3    7.97    0.76
  -1  -6  -4   37.32    1.78
   1   6   4   38.52    1.74
   1   6   4   34.43    1.53
   1   6   4   33.95    1.55
  -1  -6  -4   38.04    1.55
   1   6   5   23.09    1.37
  -1  -6  -5   21.74    1.43
   1   6   5   19.94    1.24
   1   6   5   20.50    1.10
  -1  -6  -5   21.72    1.10
   1   6   6   95.18    3.22
   1   6   6   83.61    2.51
   1   6   6   90.16    3.02
  -1  -6  -6   89.84    3.24
  -1  -6  -6   91.07    2.57
   1   6   7  315.63    7.59
  -1  -6  -7  300.59    7.63
   1   6   7  299.86    7.32
   1   6   7  274.28    6.36
  -1  -6  -7  296.52    6.41
   1   6   8  316.64    7.89
   1   6   8  294.88    7.62
  -1  -6  -8  300.48    6.44
   1   6   9  532.40   12.39
   1   6   9  518.17   12.18
  -1  -6  -9  525.38   10.48
   1   6  10   79.67    3.32
   1   6  10   85.05    3.47
   1   6  11   70.68    3.20
   1   6  11   71.32    2.20
   1   6  12   32.61    2.19
   1   6  12   28.98    1.22
   1   6  13  133.80    5.00
   1   6  13  131.51    3.16
   1   6  14    4.72    1.10
   1   6  15    1.06    0.78
   1   6  16    1.68    0.86
   1   6  17    0.57    0.81
   1   6  18   -0.05    0.85
   1   6  19   48.00    3.41
  -1  -7  17    5.39    1.24
  -1  -7  16    3.43    1.01
  -1  -7  15   25.11    2.22
  -1  -7  14   16.51    1.78
  -1  -7  13    9.11    1.39
  -1  -7  12   13.91    1.55
  -1  -7  11   23.82    2.01
  -1  -7  10  178.41    5.90
  -1  -7   9   23.36    1.85
  -1  -7   8  120.97    4.45
  -1  -7   7    4.29    0.90
   1   7  -6   83.14    3.39
  -1  -7   6   78.31    3.33
   1   7  -5    5.25    0.42
   1   7  -5    5.79    0.93
  -1  -7   5    4.45    0.88
   1   7  -4  148.45    3.31
   1   7  -4  170.36    5.03
  -1  -7   4  154.09    4.84
   1   7  -3   51.01    2.42
   1   7  -3   49.28    1.26
  -1  -7   3   51.97    2.44
   1   7  -2  127.80    4.11
  -1  -7   2  116.05    3.96
   1   7  -1    1.18    0.32
  -1  -7   1    1.50    0.66
   1   7  -1    1.20    0.59
   1   7   0  125.93    3.35
   1   7   0  134.06    4.14
  -1  -7   0  131.21    4.05
   1   7   1   16.77    1.00
   1   7   1   16.68    1.27
  -1  -7  -1   16.07    1.23
   1   7   2 1923.16   38.01
   1   7   2 1913.53   38.39
  -1  -7  -2 1943.88   38.35
   1   7   3   31.38    1.55
   1   7   3   29.61    1.58
  -1  -7  -3   30.64    1.57
   1   7   4  183.52    4.97
   1   7   4  179.07    4.72
   1   7   4  175.72    4.79
  -1  -7  -4  189.47    4.82
   1   7   5   13.52    1.11
   1   7   5   12.55    1.05
   1   7   5   13.72    1.00
  -1  -7  -5   13.34    1.00
   1   7   6  508.55   11.25
   1   7   6  490.37   10.91
   1   7   6  450.29   10.36
  -1  -7  -6  490.92   10.42
   1   7   7   13.49    1.22
   1   7   7   13.27    1.15
   1   7   7   11.76    0.84
  -1  -7  -7   12.67    0.85
   1   7   8  339.41    8.41
   1   7   8  328.43    8.13
   1   7   8  292.13    6.97
  -1  -7  -8  334.51    7.08
   1   7   9   22.32    1.67
   1   7   9   19.56    1.53
  -1  -7  -9   21.20    0.96
   1   7  10  199.76    6.04
  -1  -7 -10  201.07    4.40
   1   7  11   10.19    1.28
   1   7  12    1.85    0.75
   1   7  12    1.59    0.42
   1   7  13    0.73    0.79
   1   7  13    0.51    0.31
   1   7  14   23.65    2.07
   1   7  14   24.46    1.06
   1   7  15   11.96    1.59
   1   7  16    7.29    1.31
   1   7  17    0.65    0.89
   1   7  18    0.65    0.97
   1   7  19   55.37    3.76
  -1  -8  17    8.26    1.48
  -1  -8  16    1.15    0.87
  -1  -8  15   19.13    2.03
  -1  -8  14    2.38    0.98
  -1  -8  13   -0.12    0.75
  -1  -8  12    4.25    1.05
  -1  -8  11   14.95    1.71
  -1  -8  10   31.97    2.31
  -1  -8   9  102.34    4.28
  -1  -8   8   69.44    3.35
  -1  -8   7   25.55    1.97
  -1  -8   6   77.13    3.45
   1   8  -5   90.99    2.23
  -1  -8   5   91.30    3.71
   1   8  -4  232.37    6.52
   1   8  -4  209.60    4.42
  -1  -8   4  219.43    6.37
   1   8  -3  147.74    4.78
   1   8  -3  135.60    2.94
  -1  -8   3  144.91    4.71
   1   8  -2  105.07    3.83
  -1  -8   2   99.85    3.75
   1   8  -1   41.07    1.51
   1   8  -1   46.05    2.31
  -1  -8   1   42.24    2.22
   1   8   0  150.24    3.97
   1   8   0  161.68    4.88
  -1  -8   0  156.30    4.79
   1   8   1  131.74    3.68
   1   8   1  135.07    4.28
  -1  -8  -1  125.93    4.15
   1   8   2   20.44    1.23
   1   8   2   21.39    1.50
  -1  -8  -2   19.82    1.41
   1   8   3   13.19    1.08
   1   8   3   15.63    1.24
  -1  -8  -3   14.70    1.19
   1   8   4   15.01    1.18
   1   8   4   13.37    1.02
   1   8   4   13.23    1.11
  -1  -8  -4   14.64    1.15
  -1  -8  -5   18.03    0.64
   1   8   5   19.08    1.37
   1   8   5   17.21    1.22
   1   8   5   17.10    1.23
  -1  -8  -5   17.77    1.22
   1   8   6   26.45    1.71
   1   8   6   28.14    1.64
   1   8   6   26.46    1.46
  -1  -8  -6   29.27    1.50
   1   8   7   43.74    2.30
   1   8   7   47.23    2.24
   1   8   7   42.40    1.84
  -1  -8  -7   46.76    1.89
   1   8   8  189.68    5.67
   1   8   8  166.96    4.55
   1   8   8  180.49    5.39
  -1  -8  -8  187.17    4.65
   1   8   9   61.24    2.13
   1   8   9   68.85    3.07
  -1  -8  -9   70.77    2.23
   1   8  10  240.70    6.98
  -1  -8 -10  243.03    5.53
   1   8  11    3.96    0.97
   1   8  12  121.82    4.74
   1   8  12  123.17    3.67
   1   8  13    7.03    1.21
   1   8  13    5.78    0.69
   1   8  14  149.84    5.66
   1   8  14  145.90    3.99
   1   8  15   55.59    3.34
   1   8  16    3.79    1.21
   1   8  17    6.39    1.43
   1   8  18    1.61    1.05
  -1  -9  16    8.81    1.55
  -1  -9  15    8.26    1.58
  -1  -9  14   12.61    1.75
  -1  -9  13   30.50    2.53
  -1  -9  12    0.99    0.87
  -1  -9  11   56.54    3.33
  -1  -9  10    1.95    0.92
  -1  -9   9   25.10    2.15
  -1  -9   8   39.61    2.62
  -1  -9   7   -0.51    0.76
  -1  -9   6    9.70    1.30
  -1  -9   5   74.28    3.44
  -1  -9   4   13.77    1.46
   1   9  -3  432.09    8.57
  -1  -9   3  473.43   11.15
  -1  -9   2    7.73    1.13
   1   9  -1  176.55    4.35
   1   9  -1  182.59    5.65
  -1  -9   1  169.00    5.44
   1   9   0    2.23    0.46
   1   9   0    3.09    0.78
  -1  -9   0    1.99    0.66
   1   9   1  542.91   11.97
   1   9   1  573.41   12.97
  -1  -9  -1  547.91   12.79
   1   9   2  141.10    4.13
   1   9   2  143.00    4.59
  -1  -9  -2  138.70    4.50
   1   9   3  354.70    8.52
   1   9   3  342.89    8.05
   1   9   3  367.66    8.89
  -1  -9  -3  356.46    8.77
   1   9   4   -0.16    0.43
   1   9   4    0.90    0.44
   1   9   4    0.35    0.43
  -1  -9  -4   -0.41    0.55
  -1  -9  -5  117.47    2.67
   1   9   5  114.66    3.95
   1   9   5  105.42    3.69
   1   9   5  109.81    3.61
  -1  -9  -5  116.22    3.77
   1   9   6   34.56    2.00
   1   9   6   29.83    1.68
   1   9   6   32.02    1.83
  -1  -9  -6   31.77    1.70
   1   9   7  159.88    5.11
   1   9   7  156.59    4.80
   1   9   7  141.61    4.33
  -1  -9  -7  158.25    4.44
   1   9   8    0.95    0.66
   1   9   8    0.50    0.38
  -1  -9  -8    1.25    0.49
   1   9   9    1.22    0.39
   1   9   9    0.71    0.63
  -1  -9  -9    1.17    0.48
   1   9  10   96.68    3.93
  -1  -9 -10  102.03    2.99
   1   9  11    8.66    1.24
  -1  -9 -11   10.27    0.72
   1   9  12   35.51    2.42
   1   9  13   41.98    2.76
   1   9  13   40.04    1.92
   1   9  14   77.75    3.95
   1   9  14   76.21    2.75
   1   9  15   92.36    4.50
   1   9  16   45.04    3.14
   1   9  17   -0.90    1.08
   1   9  18    5.34    1.45
  -1 -10  14    3.78    1.22
  -1 -10  13    1.72    1.13
  -1 -10  12   26.57    2.50
  -1 -10  11    2.31    1.09
  -1 -10  10   89.16    4.39
  -1 -10   9   72.48    3.84
  -1 -10   8   34.10    2.53
  -1 -10   7    2.37    0.97
  -1 -10   6  123.97    4.95
  -1 -10   5  274.94    8.18
  -1 -10   4   41.30    2.60
  -1 -10   3  159.91    5.52
  -1 -10   2   46.96    2.66
   1  10  -1   73.77    2.37
  -1 -10   1   73.21    3.36
   1  10   0    0.06    0.34
  -1 -10   0   -0.08    0.68
   1  10   1    7.49    0.82
  -1 -10  -1    6.01    1.01
   1  10   2    2.10    0.58
   1  10   2    3.10    0.54
   1  10   2    2.59    0.72
  -1 -10  -2    2.61    0.71
   1  10   3  456.64   10.63
   1  10   3  460.30   11.09
   1  10   3  446.22   10.08
  -1 -10  -3  455.57   10.99
  -1 -10  -4   28.68    1.23
   1  10   4   30.08    1.81
   1  10   4   26.30    1.51
   1  10   4   28.88    1.83
  -1 -10  -4   28.24    1.81
   1  10   5  107.86    3.87
  -1 -10  -5  105.70    2.59
   1  10   5  101.40    3.71
   1  10   5  101.22    3.49
  -1 -10  -5  103.60    3.69
   1  10   6   11.02    1.19
   1  10   6   11.90    1.13
   1  10   6   10.72    1.12
  -1 -10  -6   11.77    1.16
   1  10   7   33.02    1.97
   1  10   7   31.09    1.78
  -1 -10  -7   33.37    1.85
   1  10   8    0.47    0.58
   1  10   8    1.87    0.58
  -1 -10  -8    3.44    0.66
   1  10   9   64.91    2.60
   1  10   9   69.94    3.20
  -1 -10  -9   79.70    2.78
   1  10  10    2.46    0.84
  -1 -10 -10    1.55    0.51
   1  10  11    1.87    0.95
  -1 -10 -11    0.73    0.42
   1  10  12    2.98    1.00
  -1 -10 -12    3.86    0.50
   1  10  13   97.22    4.40
   1  10  14   10.93    1.62
   1  10  15   41.17    2.96
   1  10  16   -0.61    0.98
   1  10  17   17.20    2.11
  -1 -11  12    8.47    1.45
  -1 -11  11    9.05    1.54
  -1 -11  10   34.47    2.81
  -1 -11   9   23.42    2.21
  -1 -11   8   18.41    1.97
  -1 -11   7    4.91    1.21
  -1 -11   6    4.53    1.08
  -1 -11   5    1.47    0.93
  -1 -11   4  493.30   12.79
  -1 -11   3   29.69    2.27
   1  11  -2  372.67    7.84
   1  11  -2  415.59    7.88
  -1 -11   2  483.19   11.20
   1  11  -1   20.78    1.16
   1  11  -1   20.60    0.87
  -1 -11   1   19.39    1.78
   1  11   0    2.27    0.53
   1  11   0    1.80    0.38
  -1 -11   0    3.23    0.95
   1  11   1    6.61    0.80
   1  11   1    7.68    0.70
  -1 -11  -1    8.34    1.23
   1  11   2   67.87    2.76
   1  11   2   69.18    2.39
  -1 -11  -2   64.65    3.15
   1  11   3   75.25    3.04
  -1 -11  -3   78.33    2.59
   1  11   3   75.27    2.68
  -1 -11  -3   75.40    3.35
  -1 -11  -4    6.13    0.64
   1  11   4    5.43    0.85
   1  11   4    7.65    0.85
  -1 -11  -4    6.65    0.96
  -1 -11  -5    1.03    0.32
   1  11   5    0.72    0.46
   1  11   5   -0.01    0.53
  -1 -11  -5   -0.07    0.56
   1  11   6    0.53    0.50
   1  11   6    0.33    0.52
  -1 -11  -6    0.22    0.59
   1  11   7    0.30    0.58
   1  11   7    0.40    0.52
  -1 -11  -7    0.51    0.57
   1  11   8    1.37    0.58
   1  11   8    1.60    0.75
  -1 -11  -8    1.31    0.61
   1  11   9   12.27    1.37
   1  11   9   10.51    1.07
  -1 -11  -9   11.94    1.10
   1  11  10   28.33    2.14
  -1 -11 -10   30.69    1.70
   1  11  11   61.82    3.25
  -1 -11 -11   63.32    2.43
   1  11  12    6.88    1.13
   1  11  13   54.53    3.26
   1  11  14   28.93    2.46
   1  11  15   68.01    3.92
   1  11  16   26.29    2.57
  -1 -12  10   11.20    1.77
  -1 -12   9   39.29    3.10
  -1 -12   8   44.87    3.21
  -1 -12   7    7.66    1.45
  -1 -12   6   13.06    1.72
  -1 -12   5   21.74    2.14
  -1 -12   4   10.46    1.57
  -1 -12   3    2.68    0.95
  -1 -12   2   17.26    1.82
   1  12  -1    4.43    0.60
   1  12  -1    3.78    0.35
  -1 -12   1    7.14    1.35
   1  12   0   41.04    1.91
   1  12   0   43.52    1.52
  -1 -12   0   40.25    2.66
   1  12   1   14.26    1.18
   1  12   1   14.60    0.94
  -1 -12  -1   15.20    1.66
   1  12   2  113.32    3.94
  -1 -12  -2  119.54    3.76
   1  12   2  117.48    3.45
  -1 -12  -2  116.26    4.61
  -1 -12  -3    7.84    0.84
   1  12   3    7.12    0.99
   1  12   3    6.03    0.75
  -1 -12  -3    6.42    1.16
  -1 -12  -4  341.02    7.64
   1  12   4  333.05    8.21
  -1 -12  -4  335.28    9.12
  -1 -12  -5    1.73    0.37
   1  12   5    2.32    0.64
  -1 -12  -5    1.46    0.78
   1  12   6   -1.01    0.56
  -1 -12  -6    0.46    0.57
   1  12   7    5.74    0.92
  -1 -12  -7    4.76    0.88
   1  12   8   81.95    3.49
   1  12   8   87.71    3.68
  -1 -12  -8   96.43    3.64
   1  12   9    8.46    1.19
  -1 -12  -9    7.20    1.00
   1  12  10    7.26    1.19
  -1 -12 -10    7.29    0.92
   1  12  11    9.82    1.41
  -1 -12 -11   11.17    1.09
   1  12  12   -0.50    0.84
   1  12  13   11.05    1.60
   1  12  14   10.11    1.58
   1  12  15    8.14    1.59
   1  12  16   38.08    3.01
  -1 -13   8    8.39    1.64
  -1 -13   7   54.00    3.64
  -1 -13   6    6.05    1.45
  -1 -13   5   30.78    2.64
  -1 -13   4   19.27    2.14
  -1 -13   3    4.03    1.26
  -1 -13   2    6.43    1.33
  -1 -13   1   28.70    2.36
  -1 -13   0    0.40    0.64
  -1 -13   0   -0.86    0.97
  -1 -13  -1    9.69    1.12
  -1 -13  -1    9.50    1.47
   1  13   2   19.26    1.53
  -1 -13  -2   20.29    1.42
   1  13   2   18.90    1.17
  -1 -13  -2   22.74    1.98
  -1 -13  -3    5.86    0.74
   1  13   3    5.60    0.73
  -1 -13  -3    5.24    1.11
  -1 -13  -4   67.40    2.31
   1  13   4   63.40    2.62
  -1 -13  -4   60.92    3.24
   1  13   5   26.45    1.69
  -1 -13  -5   29.11    2.15
   1  13   6   80.73    3.31
  -1 -13  -6   84.50    3.72
   1  13   7   17.14    1.51
  -1 -13  -7   16.23    1.55
   1  13   8   22.39    1.81
  -1 -13  -8   23.76    1.82
   1  13   9    1.85    0.81
  -1 -13  -9   -0.05    0.59
   1  13  10  250.54    7.81
  -1 -13 -10  267.31    7.26
   1  13  11    1.91    0.91
   1  13  12   17.06    1.95
   1  13  13    4.93    1.27
   1  13  14   37.67    2.90
   1  13  15    4.21    1.18
  -1 -14   8   -0.16    0.88
  -1 -14   7   18.36    2.06
  -1 -14   6    0.11    0.84
  -1 -14   5    2.42    1.04
  -1 -14   5    1.01    0.88
  -1 -14   4    9.46    1.38
  -1 -14   4    7.34    1.52
  -1 -14   3    4.73    1.12
  -1 -14   3    5.53    1.43
  -1 -14   2    1.51    0.71
  -1 -14   2    1.86    1.04
  -1 -14   1   21.24    1.80
  -1 -14   1   21.83    2.18
  -1 -14   0    1.18    0.76
  -1 -14   0   -0.04    0.81
  -1 -14  -1    0.15    0.56
  -1 -14  -1    0.99    0.85
  -1 -14  -2    0.99    0.60
  -1 -14  -2    0.69    0.79
  -1 -14  -3  221.88    7.39
  -1 -14  -4    8.68    1.37
   1  14   5    2.95    0.68
  -1 -14  -5    1.01    0.78
   1  14   6    2.57    0.71
  -1 -14  -6    0.98    0.71
   1  14   7    9.82    1.20
  -1 -14  -7   13.07    1.51
   1  14   8   -0.44    0.71
  -1 -14  -8    1.18    0.75
   1  14   9    2.66    0.73
  -1 -14  -9    3.58    0.90
   1  14  10   13.93    1.62
   1  14  11   24.15    2.24
   1  14  12   40.70    2.89
   1  14  13    0.08    0.91
   1  14  14   -0.84    1.08
  -1 -15   7   20.18    2.27
  -1 -15   6   27.73    2.52
  -1 -15   5    1.70    1.08
  -1 -15   4   16.05    1.83
  -1 -15   3   -0.51    0.88
  -1 -15   2    1.05    0.80
  -1 -15   2    1.44    1.25
  -1 -15   1    7.54    1.20
  -1 -15   1    5.96    1.31
  -1 -15   0    0.58    0.86
  -1 -15  -1    9.59    1.56
  -1 -15  -2    1.01    0.88
  -1 -15  -3   26.00    2.32
  -1 -15  -4   50.20    3.22
  -1 -15  -5  119.55    5.13
  -1 -15  -6    1.24    0.80
  -1 -15  -7    8.74    1.37
  -1 -15  -8    1.59    0.78
   1  15  11   14.72    1.75
   1  15  12    0.59    1.03
   1  15  13   23.89    2.40
  -1 -16   5    1.06    0.96
  -1 -16  -1    1.20    0.86
  -1 -16  -2    4.25    1.32
  -1 -16  -3    2.18    0.98
  -1 -16  -4    1.44    0.91
  -1 -16  -5    0.90    0.90
  -1 -16  -6    1.48    0.93
  -1 -16  -7   -0.53    0.85
  -1 -17  -5   -0.06    0.95
  -1 -17  -6   -0.69    0.96
   2 -16  -6   48.18    3.30
   2 -16  -5   35.71    2.88
   2 -16  -4   40.36    3.12
  -2  15  10    0.47    0.94
  -2  15   9    0.88    0.87
   2 -15  -7    0.38    0.83
   2 -15  -6    5.46    1.27
   2 -15  -5   -0.90    0.96
   2 -15  -4   33.96    2.72
   2 -15  -3   -1.32    0.94
   2 -15  -2    9.86    1.73
   2 -15  -1    0.05    0.85
   2 -15   0  111.81    5.38
   2 -15   1    0.66    0.98
   2 -15   6   57.63    3.57
   2 -15   7    4.73    1.38
  -2  14  11   48.87    3.44
  -2  14  11   53.20    3.45
  -2  14  10    1.52    1.04
  -2  14   9   34.85    2.75
  -2  14   8    0.60    0.80
   2 -14  -8    1.32    0.86
  -2  14   7   17.23    1.90
   2 -14  -7   22.43    2.02
   2 -14  -6   42.15    2.83
   2 -14  -5   88.10    4.26
   2 -14  -4   46.96    3.08
   2 -14  -3    3.75    1.11
   2 -14  -2    4.13    1.21
   2 -14  -1    1.14    0.88
   2 -14   0    5.04    1.18
   2 -14   1   16.49    2.02
   2 -14   2   40.54    2.53
   2 -14   2   43.11    3.16
   2 -14   3   18.69    1.79
   2 -14   3   18.22    2.22
   2 -14   4   76.50    3.78
   2 -14   4   73.29    4.32
   2 -14   5   -0.09    0.82
   2 -14   6   16.02    1.96
   2 -14   7    0.36    0.84
   2 -14   8   75.70    4.25
  -2  13  12    2.31    1.08
  -2  13  11    2.88    1.20
  -2  13  11    1.66    0.94
  -2  13  10    1.61    1.05
  -2  13   9    2.88    0.91
   2 -13  -8    7.39    1.22
   2 -13  -7   20.91    1.87
   2 -13  -6    1.37    0.84
   2 -13  -5   99.78    4.36
   2 -13  -4    2.64    0.90
   2 -13  -3  215.28    7.23
   2 -13  -2    9.00    1.48
   2 -13  -1    5.69    1.23
   2 -13   0   47.68    3.16
   2 -13   1   36.62    2.21
   2 -13   1   32.72    2.63
   2 -13   2    0.71    0.63
   2 -13   2    0.05    0.85
   2 -13   3   12.91    1.46
   2 -13   3   17.96    2.05
   2 -13   4    0.31    0.94
   2 -13   4    0.86    0.96
   2 -13   5    7.51    1.27
   2 -13   5    3.88    1.20
   2 -13   6   -1.19    1.03
   2 -13   6   -0.15    1.00
   2 -13   7    2.54    1.01
   2 -13   7    5.00    1.30
   2 -13   8   25.87    2.40
   2 -13   9    4.12    1.30
  -2  12  13    0.68    0.90
  -2  12  12   75.43    4.16
  -2  12  12   69.53    3.62
  -2  12  11   59.26    3.67
  -2  12  11   61.89    3.42
  -2  12  10   79.92    4.14
  -2  12   9    0.76    0.88
   2 -12  -9    2.05    0.78
   2 -12  -8    1.01    0.68
   2 -12  -7   15.31    1.56
   2 -12  -6   25.32    1.95
   2 -12  -5  105.32    4.32
   2 -12  -4   26.39    2.10
   2 -12  -3   12.42    1.54
   2 -12  -2   -0.08    0.75
  -2  12   1   30.25    1.96
   2 -12  -1   30.41    2.37
   2 -12   0   13.21    1.24
  -2  12   0   12.63    1.24
   2 -12   0   15.22    1.78
   2 -12   1   30.93    1.95
   2 -12   1   31.81    2.45
   2 -12   2    2.80    0.79
   2 -12   2    4.53    1.20
   2 -12   3  103.61    4.13
   2 -12   3   99.22    4.66
   2 -12   4    3.04    0.87
   2 -12   4    4.13    1.20
   2 -12   5    6.72    1.21
   2 -12   5    6.42    1.31
   2 -12   6    0.47    0.72
   2 -12   6    0.10    1.02
   2 -12   7  119.75    5.07
   2 -12   7  118.89    5.44
   2 -12   8    8.12    1.37
   2 -12   8    8.02    1.56
   2 -12   9   -0.99    0.85
   2 -12   9    3.95    1.21
   2 -12  10   15.45    2.04
   2 -12  10   19.08    2.23
   2 -12  11    1.94    0.98
  -2  11  14    1.05    0.98
  -2  11  13    0.72    1.18
  -2  11  12    6.62    1.33
  -2  11  12    3.58    0.96
  -2  11  11    0.19    0.79
  -2  11  11    1.36    0.76
  -2  11  10  110.14    4.87
   2 -11  -9    2.98    0.71
   2 -11  -8  105.32    3.97
   2 -11  -7    5.14    0.95
   2 -11  -6   16.94    1.53
   2 -11  -5    5.28    0.99
   2 -11  -4  295.12    8.31
   2 -11  -3   51.97    2.85
  -2  11   2   16.33    1.46
   2 -11  -2   17.80    1.71
  -2  11   1   54.31    2.62
   2 -11  -1   58.92    3.11
   2 -11   0    1.86    0.61
  -2  11   0    1.35    0.60
   2 -11   0   -0.07    0.76
   2 -11   1    5.67    0.89
  -2  11  -1    4.23    0.77
   2 -11   1    4.20    1.05
   2 -11   2   21.90    1.65
  -2  11  -2   23.24    1.46
   2 -11   2   23.64    2.03
  -2  11  -3   69.07    2.47
   2 -11   3   68.73    3.17
   2 -11   3   69.46    3.63
   2 -11   4   22.53    1.82
   2 -11   4   24.88    2.16
   2 -11   5   12.85    1.49
   2 -11   5   12.31    1.65
   2 -11   6    9.57    1.34
   2 -11   6   11.10    1.65
   2 -11   7   61.44    3.40
   2 -11   7   68.75    3.79
   2 -11   8    1.50    0.87
   2 -11   8    2.63    1.04
   2 -11   9  108.91    4.92
   2 -11   9  106.82    5.03
   2 -11  10    0.16    0.84
   2 -11  10    0.68    0.97
   2 -11  11   -0.81    0.99
   2 -11  11    0.23    0.85
   2 -11  12   10.69    1.86
   2 -11  12   14.20    1.89
  -2  10  15  185.81    7.30
  -2  10  14   20.36    2.31
  -2  10  13    0.29    0.94
  -2  10  13    1.69    0.76
  -2  10  12   30.57    2.56
  -2  10  12   30.83    2.13
  -2  10  11   61.91    3.63
  -2  10  11   67.30    3.23
  -2  10  10   44.28    2.58
  -2  10   9   14.62    1.27
   2 -10  -9   15.12    1.34
  -2  10   8   18.10    1.43
   2 -10  -8   20.05    1.53
  -2  10   7    0.85    0.52
   2 -10  -7    1.08    0.58
  -2  10   6    0.06    0.51
   2 -10  -6    1.07    0.68
  -2  10   5    7.14    0.99
   2 -10  -5   10.31    1.18
   2 -10  -4   81.09    3.43
  -2  10   4   82.78    3.43
  -2  10   3    6.32    0.97
   2 -10  -3    7.00    1.08
  -2  10   2   53.25    2.58
   2 -10  -2   49.78    2.68
  -2  10   1    3.62    0.76
   2 -10  -1    3.71    0.91
   2 -10   0   27.46    1.60
  -2  10   0   24.70    1.62
   2 -10   0   26.13    1.99
  -2  10  -1   -0.57    0.48
   2 -10   1   -0.37    0.47
   2 -10   1    2.09    0.88
   2 -10   2   27.00    1.75
  -2  10  -2   27.78    1.54
   2 -10   2   30.82    2.19
   2 -10   3    4.80    0.87
  -2  10  -3    4.57    0.62
   2 -10   3    5.69    1.12
   2 -10   4   -0.43    0.78
  -2  10  -4    0.98    0.38
   2 -10   4    0.98    0.77
   2 -10   5    0.42    0.71
  -2  10  -5    0.08    0.26
   2 -10   5   -0.19    0.75
  -2  10  -6    1.90    0.25
   2 -10   6    2.61    0.83
   2 -10   6    3.78    0.97
   2 -10   7    6.65    1.18
  -2  10  -7    5.73    0.74
   2 -10   7    4.99    1.15
   2 -10   8    4.11    1.04
   2 -10   8    4.46    1.16
   2 -10   9   10.78    1.56
   2 -10   9   13.32    1.72
   2 -10  10    1.50    0.88
   2 -10  10    0.31    0.81
   2 -10  11   11.06    1.72
   2 -10  11   13.44    1.78
   2 -10  12    5.83    1.41
   2 -10  12    3.53    1.14
   2 -10  13    2.82    1.15
   2 -10  13    2.18    1.15
   2 -10  14   35.93    2.92
  -2   9  16   -0.81    1.05
  -2   9  15  148.58    6.26
  -2   9  14    1.17    0.83
  -2   9  13   77.08    4.09
  -2   9  13   74.45    3.30
  -2   9  12    3.22    1.08
  -2   9  12    3.35    0.80
  -2   9  11    2.86    1.08
  -2   9  11    2.74    0.78
  -2   9  10   10.46    0.95
  -2   9  10    7.55    1.05
   2  -9  -9  222.50    5.86
  -2   9   9  202.80    5.67
   2  -9  -8   39.07    1.99
  -2   9   8   31.96    1.78
  -2   9   7    9.17    0.94
   2  -9  -7    7.54    0.95
  -2   9   6    3.91    0.72
   2  -9  -6    5.71    0.83
   2  -9  -5   60.46    2.67
  -2   9   5   56.65    2.53
  -2   9   4   14.30    1.36
  -2   9   4   10.92    1.14
   2  -9  -4   12.48    1.27
  -2   9   3   25.76    1.74
   2  -9  -3   22.60    1.66
  -2   9   3   23.34    1.64
  -2   9   2    3.10    0.75
  -2   9   2    2.21    0.68
   2  -9  -2    3.08    0.80
  -2   9   1   20.55    1.51
   2  -9  -1   18.93    1.59
  -2   9   1   19.97    1.58
  -2   9   0    0.33    0.45
   2  -9   0   -0.02    0.45
   2  -9   0   -0.16    0.62
  -2   9  -1    8.12    0.87
   2  -9   1    7.83    0.93
   2  -9   1    8.04    1.13
   2  -9   2   99.31    3.52
  -2   9  -2  101.78    3.20
   2  -9   2   97.16    3.99
  -2   9  -3   82.06    2.66
   2  -9   3   82.97    3.25
   2  -9   3   84.39    3.68
   2  -9   4  624.51   14.21
  -2   9  -4  606.83   12.81
   2  -9   4  627.11   14.77
  -2   9  -5   17.86    0.89
   2  -9   5   20.51    1.68
   2  -9   5   18.85    1.76
   2  -9   6   18.22    1.66
  -2   9  -6   14.18    0.63
   2  -9   6   15.60    1.62
   2  -9   7    0.35    0.71
  -2   9  -7   -0.25    0.35
   2  -9   7    0.53    0.74
   2  -9   8  149.85    5.48
  -2   9  -8  145.37    4.35
   2  -9   8  164.31    5.79
   2  -9   9    3.44    1.10
  -2   9  -9    3.14    0.64
   2  -9   9    1.56    0.88
   2  -9  10    4.27    1.17
   2  -9  10    2.94    0.93
   2  -9  11    5.24    1.24
   2  -9  11    5.96    1.32
   2  -9  12    1.74    1.01
   2  -9  12    2.13    0.93
   2  -9  13   17.88    2.13
   2  -9  13   15.67    1.90
   2  -9  14   13.26    1.91
   2  -9  14   14.97    1.91
   2  -9  15   12.89    1.79
   2  -9  16   28.25    2.58
  -2   8  16    4.11    1.22
  -2   8  15   67.95    3.99
  -2   8  14   72.16    4.00
  -2   8  14   76.37    3.09
  -2   8  13   51.96    3.28
  -2   8  13   51.85    2.55
  -2   8  12   -0.73    0.85
  -2   8  12   -0.05    0.50
  -2   8  11   29.66    2.33
  -2   8  11   28.41    1.86
  -2   8  11   25.10    1.25
  -2   8  10    3.08    0.52
  -2   8  10    3.24    0.78
  -2   8   9   13.83    1.30
  -2   8   9   13.72    1.01
  -2   8   8    0.01    0.36
   2  -8  -8    1.13    0.47
  -2   8   7   70.59    2.66
   2  -8  -7   72.13    2.73
  -2   8   6    4.32    0.74
   2  -8  -6    4.93    0.77
  -2   8   5    7.73    1.07
  -2   8   5   10.06    0.96
   2  -8  -5   10.06    0.99
  -2   8   4    8.98    1.11
  -2   8   4    8.98    0.91
   2  -8  -4   10.26    1.10
  -2   8   3  159.08    4.97
   2  -8  -3  157.17    4.85
  -2   8   3  160.65    4.84
  -2   8   2    4.42    0.81
  -2   8   2    5.20    0.84
   2  -8  -2    4.40    0.77
  -2   8   1    4.81    0.77
  -2   8   1    3.50    0.72
   2  -8  -1    4.35    0.84
  -2   8   0   35.78    1.82
   2  -8   0   38.84    1.74
  -2   8   0   36.68    2.08
   2  -8   0   37.84    2.17
   2  -8   1  224.63    5.80
  -2   8  -1  217.85    5.69
   2  -8   1  220.44    6.40
  -2   8  -1  228.40    6.41
  -2   8  -2    3.69    0.62
   2  -8   2    3.59    0.68
  -2   8  -2    4.45    0.84
   2  -8   2    3.12    0.81
   2  -8   3  136.17    4.33
  -2   8  -3  136.38    3.71
   2  -8   3  137.76    4.73
   2  -8   4   32.60    1.93
  -2   8  -4   29.50    1.30
   2  -8   4   33.16    2.14
  -2   8  -5  113.52    2.94
   2  -8   5  116.28    4.15
   2  -8   5  118.43    4.40
   2  -8   6   16.35    1.51
  -2   8  -6   17.13    0.73
   2  -8   6   17.11    1.63
   2  -8   7    2.64    0.79
  -2   8  -7    2.85    0.56
   2  -8   7    2.83    0.83
   2  -8   8    9.71    1.30
  -2   8  -8    9.89    0.90
   2  -8   8   12.82    1.52
   2  -8   9  125.40    4.84
  -2   8  -9  114.51    3.74
   2  -8   9  122.92    4.79
   2  -8  10  314.13    9.15
  -2   8 -10  311.39    7.87
   2  -8  10  325.28    9.18
   2  -8  11   43.16    2.84
  -2   8 -11   38.98    2.07
   2  -8  11   41.97    2.78
   2  -8  12   46.45    3.11
   2  -8  12   43.44    2.88
   2  -8  13    0.08    0.86
   2  -8  13   -0.66    0.78
   2  -8  14   77.45    4.29
   2  -8  14   71.03    3.88
   2  -8  15   26.14    2.61
   2  -8  15   25.02    2.33
   2  -8  16   16.70    1.95
   2  -8  17    3.36    1.15
   2  -8  18    3.65    1.22
  -2   7  17    2.85    1.23
  -2   7  16    6.74    1.56
  -2   7  15    2.17    1.00
  -2   7  14  166.59    6.36
  -2   7  14  167.47    4.93
  -2   7  13    4.66    1.09
  -2   7  13    5.44    0.84
  -2   7  12   47.64    2.97
  -2   7  12   51.72    2.41
  -2   7  11   12.63    1.54
  -2   7  11   14.69    1.29
  -2   7  11   13.36    0.80
  -2   7  10   24.91    1.64
  -2   7  10   26.51    1.24
  -2   7   9   17.76    1.38
  -2   7   9   18.01    1.07
  -2   7   8   18.99    1.45
  -2   7   8   15.12    1.06
  -2   7   7    3.30    0.59
   2  -7  -7    4.32    0.64
  -2   7   6   26.62    1.85
  -2   7   6   25.43    1.44
   2  -7  -6   28.25    1.52
  -2   7   5   12.45    1.27
  -2   7   5   11.51    0.97
   2  -7  -5   12.39    1.03
  -2   7   4   17.20    1.40
  -2   7   4   18.72    1.26
   2  -7  -4   17.17    1.23
  -2   7   3   31.22    1.83
   2  -7  -3   30.38    1.70
  -2   7   3   30.72    1.68
   2  -7  -2    8.98    0.99
  -2   7   2    7.75    0.89
   2  -7  -1   66.39    2.71
  -2   7   1   64.76    2.67
   2  -7   0   11.67    0.89
  -2   7   0   11.77    1.11
   2  -7   0   10.94    1.14
   2  -7   1   11.38    0.94
  -2   7  -1    9.50    1.02
   2  -7   1    9.41    1.08
   2  -7   2   78.53    2.82
  -2   7  -2   85.57    3.29
   2  -7   2   77.83    3.14
   2  -7   3  201.96    5.57
  -2   7  -3  210.39    5.94
   2  -7   3  196.93    5.88
   2  -7   4   33.29    1.90
  -2   7  -4   35.09    2.01
   2  -7   4   33.36    2.01
   2  -7   5   98.22    3.65
  -2   7  -5  109.73    3.94
   2  -7   5   98.43    3.83
   2  -7   6    0.67    0.54
   2  -7   6    0.41    0.63
   2  -7   7   66.52    3.05
  -2   7  -7   62.72    1.54
  -2   7  -7   56.83    2.30
   2  -7   7   64.62    3.04
   2  -7   8   12.28    1.39
  -2   7  -8   10.49    0.95
   2  -7   8   14.40    1.45
   2  -7   9  105.60    4.26
  -2   7  -9   99.23    3.38
   2  -7   9  107.76    4.21
   2  -7  10   20.71    1.86
  -2   7 -10   16.91    1.28
   2  -7  10   17.86    1.72
   2  -7  11   41.23    2.71
  -2   7 -11   39.51    2.08
   2  -7  11   44.89    2.67
   2  -7  12    1.35    0.95
  -2   7 -12    0.62    0.51
   2  -7  12    1.20    0.87
   2  -7  13   45.56    3.05
   2  -7  13   42.71    2.75
   2  -7  14   14.77    1.83
   2  -7  14   12.28    1.56
   2  -7  15   38.18    2.94
   2  -7  15   38.03    2.74
   2  -7  16    4.05    1.42
   2  -7  16    2.26    0.92
   2  -7  17   19.96    2.03
   2  -7  18   -1.41    1.12
  -2   6  17   26.38    2.52
  -2   6  16   10.17    1.65
  -2   6  15   31.26    2.57
  -2   6  14    3.56    1.06
  -2   6  14    4.48    0.73
  -2   6  14    4.59    0.60
  -2   6  13    4.35    1.08
  -2   6  13    2.75    0.42
  -2   6  13    1.78    0.52
  -2   6  12   97.62    4.25
  -2   6  12  106.10    2.65
  -2   6  12   96.39    3.30
  -2   6  11   37.54    2.54
  -2   6  11   36.60    1.91
  -2   6  11   37.41    1.32
  -2   6  10    2.83    0.68
  -2   6  10    2.51    0.40
  -2   6   9   -0.21    0.50
  -2   6   9    0.69    0.31
  -2   6   8  960.34   19.97
  -2   6   8  935.35   19.16
  -2   6   7    6.16    1.05
  -2   6   7    5.82    0.64
  -2   6   7    6.92    0.89
  -2   6   6  187.14    5.60
   2  -6  -6  182.25    4.78
  -2   6   6  180.93    4.72
  -2   6   5    3.64    0.80
   2  -6  -5    3.14    0.57
  -2   6   5    3.53    0.57
  -2   6   4  247.27    6.62
   2  -6  -4  245.88    6.09
  -2   6   4  242.35    6.05
   2  -6  -3   94.60    3.08
  -2   6   3   90.69    3.00
   2  -6  -2  327.47    7.75
  -2   6   2  316.23    7.66
  -2   6   1   22.07    1.37
   2  -6  -1   22.30    1.42
   2  -6   0    2.52    0.48
  -2   6   0    3.47    0.68
   2  -6   0    2.59    0.70
   2  -6   1   50.18    1.94
  -2   6  -1   51.36    2.25
   2  -6   1   48.90    2.23
   2  -6   2  159.74    4.40
  -2   6  -2  164.85    4.77
   2  -6   2  156.87    4.73
   2  -6   3   61.15    2.42
  -2   6  -3   65.18    2.67
   2  -6   3   57.36    2.56
   2  -6   4   59.17    2.47
   2  -6   4   54.80    2.54
  -2   6  -4   58.96    2.55
   2  -6   5   53.37    2.43
   2  -6   5   52.36    2.49
  -2   6  -5   55.78    2.51
   2  -6   6    2.41    0.74
  -2   6  -6    3.03    0.74
   2  -6   6    1.79    0.75
  -2   6  -7   60.39    1.62
   2  -6   7   61.89    2.84
  -2   6  -7   58.59    2.27
  -2   6  -7   66.80    2.96
   2  -6   7   61.76    2.82
  -2   6  -8   29.51    0.93
   2  -6   8   31.93    2.08
  -2   6  -8   28.61    1.54
  -2   6  -8   34.51    2.06
   2  -6   8   31.82    2.02
   2  -6   9  312.87    8.27
  -2   6  -9  285.92    5.92
  -2   6  -9  291.45    7.23
   2  -6   9  306.64    8.07
   2  -6  10  155.88    5.40
  -2   6 -10  149.00    4.55
   2  -6  10  153.00    5.16
   2  -6  11   74.67    3.62
  -2   6 -11   76.18    3.02
   2  -6  11   74.86    3.42
   2  -6  12    8.80    1.32
  -2   6 -12   11.06    1.17
   2  -6  12    9.10    1.26
   2  -6  13   29.90    2.42
  -2   6 -13   28.86    1.92
   2  -6  13   32.48    2.27
   2  -6  14   61.29    3.55
   2  -6  14   58.06    3.16
   2  -6  15    1.66    1.02
   2  -6  15    3.52    0.98
   2  -6  16   11.01    1.67
   2  -6  16   13.52    2.03
   2  -6  17   45.38    3.28
   2  -6  17   41.21    2.76
   2  -6  18    9.46    1.52
  -2   5  18    1.15    1.09
  -2   5  17    7.23    1.42
  -2   5  16    0.50    0.84
  -2   5  15  110.11    4.96
  -2   5  15  111.96    3.66
  -2   5  14   14.65    1.73
  -2   5  14   13.60    1.03
  -2   5  13   64.97    3.46
  -2   5  13   66.98    2.51
  -2   5  12    5.98    1.25
  -2   5  12    3.66    0.62
  -2   5  12    3.25    0.27
  -2   5  11   48.13    2.79
  -2   5  11   46.70    2.08
  -2   5  11   51.29    1.51
  -2   5  10  186.13    5.13
  -2   5  10  185.07    4.30
  -2   5   9   65.57    2.55
  -2   5   9   63.28    1.96
  -2   5   8  153.24    4.99
  -2   5   8  153.67    4.37
  -2   5   8  145.29    3.73
  -2   5   7  100.40    3.68
  -2   5   7   94.71    3.16
  -2   5   7   91.21    2.69
  -2   5   6  164.40    5.03
  -2   5   6  160.22    4.11
  -2   5   6  162.25    4.57
  -2   5   5   19.13    1.07
   2  -5  -5   22.25    1.19
  -2   5   4   32.03    0.99
  -2   5   4   29.58    1.41
   2  -5  -4   34.63    1.55
  -2   5   3    8.96    0.51
   2  -5  -3    8.25    0.78
  -2   5   3    8.36    0.79
   2  -5  -2 1791.17   35.29
  -2   5   2 1768.52   35.25
  -2   5   1  377.90    8.65
   2  -5  -1  381.61    8.69
   2  -5   0 1216.96   24.24
   2  -5   0 1226.54   24.83
  -2   5   0 1219.73   24.78
   2  -5   1  173.06    4.37
   2  -5   1  171.59    4.77
  -2   5  -1  169.97    4.68
   2  -5   2  212.21    5.38
  -2   5  -2  223.25    5.70
   2  -5   2  216.26    5.71
   2  -5   3   -0.06    0.49
   2  -5   3    0.02    0.62
  -2   5  -3   -0.06    0.45
   2  -5   4  179.99    5.04
   2  -5   4  183.35    5.18
  -2   5  -4  190.89    5.22
   2  -5   5   57.61    2.47
  -2   5  -5   62.56    2.54
   2  -5   5   57.80    2.50
   2  -5   6    0.26    0.56
  -2   5  -6    0.24    0.43
   2  -5   6    0.31    0.60
   2  -5   7   24.55    1.71
  -2   5  -7   25.66    0.95
  -2   5  -7   24.94    1.36
   2  -5   7   25.81    1.67
  -2   5  -7   26.31    1.64
   2  -5   8  443.41   10.65
  -2   5  -8  427.12    8.87
  -2   5  -8  412.89    9.78
  -2   5  -8  481.14   10.73
   2  -5   8  440.80   10.48
   2  -5   9    4.78    0.96
  -2   5  -9    4.53    0.44
  -2   5  -9    8.11    1.01
  -2   5  -9    5.90    0.75
   2  -5   9    5.46    0.91
   2  -5  10  305.80    8.32
  -2   5 -10  292.36    6.39
  -2   5 -10  285.50    7.45
  -2   5 -10  310.48    8.02
   2  -5  10  305.58    7.97
   2  -5  11    5.71    1.08
  -2   5 -11    5.65    0.85
   2  -5  11    5.95    1.01
   2  -5  12   71.04    3.47
  -2   5 -12   61.70    2.77
   2  -5  12   62.85    3.01
  -2   5 -13   -0.57    0.54
   2  -5  13    1.84    1.02
  -2   5 -13   -0.18    0.49
   2  -5  13    0.41    0.65
   2  -5  14    3.73    1.20
  -2   5 -14    2.84    0.74
   2  -5  14    4.85    1.05
   2  -5  15  100.26    4.70
   2  -5  15  105.58    4.28
   2  -5  16   39.67    2.97
   2  -5  16   39.96    2.55
   2  -5  17   26.43    2.51
   2  -5  17   25.91    2.11
   2  -5  18    2.68    1.25
   2  -5  18    0.03    0.69
  -2   4  18    0.16    0.82
  -2   4  17    4.78    1.29
  -2   4  17    6.63    0.94
  -2   4  16    7.09    1.40
  -2   4  15    2.54    0.97
  -2   4  15    2.78    0.48
  -2   4  14    1.03    0.86
  -2   4  14    0.35    0.32
  -2   4  13  110.17    4.53
  -2   4  13  103.97    3.25
  -2   4  12    2.49    0.31
  -2   4  12    3.53    0.92
  -2   4  12    2.62    0.57
  -2   4  12    3.04    0.31
  -2   4  11   48.76    2.73
  -2   4  11   49.36    2.04
  -2   4  11   51.48    1.51
  -2   4  10    5.30    1.06
  -2   4  10    4.79    0.64
  -2   4  10    3.81    0.41
  -2   4   9  737.64   16.06
  -2   4   9  703.64   14.95
  -2   4   9  690.96   14.16
  -2   4   8   20.38    1.56
  -2   4   8   21.41    1.30
  -2   4   8   20.13    0.96
  -2   4   7  322.81    8.01
  -2   4   7  312.88    7.36
  -2   4   7  298.57    6.73
  -2   4   6   13.04    1.21
  -2   4   6   14.60    1.06
  -2   4   6   14.86    0.86
  -2   4   5  107.15    2.97
  -2   4   5  112.65    3.34
   2  -4  -4  241.09    5.63
  -2   4   4  239.25    5.59
   2  -4  -3 1693.24   32.86
  -2   4   3 1642.89   32.81
  -2   4   2  936.78   18.48
  -2   4   2  935.83   19.05
   2  -4  -2  950.96   19.08
  -2   4   1  432.72    9.01
  -2   4   1  435.11    9.49
   2  -4  -1  443.36    9.56
  -2   4   0    1.05    0.38
   2  -4   0   -0.14    0.51
  -2   4   0    1.10    0.51
   2  -4   1   27.07    1.25
  -2   4  -1   28.23    1.42
   2  -4   1   27.62    1.45
   2  -4   2   98.50    2.94
  -2   4  -2  102.99    3.15
   2  -4   2  104.07    3.21
   2  -4   3   19.08    1.20
  -2   4  -3   18.18    1.22
   2  -4   3   18.84    1.28
   2  -4   4  129.11    3.80
  -2   4  -4  128.89    3.81
   2  -4   4  125.89    3.81
   2  -4   5   87.61    3.05
   2  -4   5   90.93    3.08
  -2   4  -5   91.29    3.06
   2  -4   6    1.41    0.66
  -2   4  -6    0.68    0.40
  -2   4  -6    0.53    0.52
   2  -4   6    1.18    0.57
   2  -4   7    0.11    0.54
  -2   4  -7    0.51    0.26
  -2   4  -7    0.37    0.44
  -2   4  -7    0.33    0.34
   2  -4   7    0.59    0.57
   2  -4   8  421.29   10.03
  -2   4  -8  404.37    8.56
  -2   4  -8  398.79    9.33
  -2   4  -8  430.21    9.79
   2  -4   8  412.75    9.74
   2  -4   9   46.32    2.44
  -2   4  -9   45.93    1.56
  -2   4  -9   46.99    2.07
  -2   4  -9   49.53    2.31
   2  -4   9   45.65    2.23
   2  -4  10  200.39    6.15
  -2   4 -10  202.98    4.81
  -2   4 -10  204.04    5.63
  -2   4 -10  209.18    5.84
   2  -4  10  202.40    5.80
  -2   4 -11   41.83    1.62
   2  -4  11   43.70    2.50
  -2   4 -11   43.64    2.26
  -2   4 -11   43.96    2.19
   2  -4  11   43.37    2.27
   2  -4  12    1.33    0.78
  -2   4 -12    0.71    0.38
  -2   4 -12   -0.38    0.51
  -2   4 -12   -0.67    0.48
   2  -4  12    0.94    0.61
  -2   4 -13    0.06    0.52
  -2   4 -13    1.10    0.49
   2  -4  13    1.64    0.87
  -2   4 -13    0.45    0.54
   2  -4  13    0.88    0.62
   2  -4  14   16.43    1.82
  -2   4 -14   18.62    1.40
   2  -4  14   17.44    1.55
   2  -4  15    1.75    0.83
  -2   4 -15    2.80    0.68
   2  -4  15    3.52    0.84
   2  -4  16   61.69    3.58
   2  -4  16   57.62    2.94
   2  -4  17    0.31    0.80
   2  -4  17    1.51    0.71
   2  -4  18   40.78    3.08
   2  -4  18   39.16    2.43
   2  -4  19    7.09    1.48
  -2   3  19   14.07    2.01
  -2   3  18   50.40    3.46
  -2   3  18   46.61    2.67
  -2   3  17    0.90    0.88
  -2   3  16   -0.31    0.89
  -2   3  15    1.47    0.94
  -2   3  15   -0.10    0.30
  -2   3  14   18.98    1.86
  -2   3  14   19.16    1.11
  -2   3  14   18.55    0.66
  -2   3  14   16.86    0.63
  -2   3  13   63.64    3.25
  -2   3  13   65.68    2.29
  -2   3  13   62.23    1.67
  -2   3  13   59.29    1.67
  -2   3  12    7.23    1.14
  -2   3  12    7.82    0.52
  -2   3  12    7.67    0.75
  -2   3  12    7.96    0.52
  -2   3  11    4.16    0.41
  -2   3  11    3.05    0.88
  -2   3  11    4.48    0.61
  -2   3  11    4.07    0.41
  -2   3  10    1.04    0.76
  -2   3  10    0.28    0.48
  -2   3  10    0.58    0.38
  -2   3  10    0.50    0.27
  -2   3   9  142.22    4.60
  -2   3   9  136.66    3.80
  -2   3   9  132.85    3.31
  -2   3   8   14.58    1.32
  -2   3   8   12.88    0.95
  -2   3   8   13.05    0.73
  -2   3   7  379.94    8.92
  -2   3   7  362.73    8.22
  -2   3   7  352.09    7.65
  -2   3   6  118.02    3.41
  -2   3   6  116.05    2.98
  -2   3   5  184.57    4.62
  -2   3   5  176.82    4.24
  -2   3   4    3.24    0.56
  -2   3   4    3.16    0.44
  -2   3   3  402.73    8.69
   2  -3  -3  416.41    8.76
  -2   3   2  159.59    4.02
   2  -3  -2  172.06    4.11
  -2   3   1 9850.79  188.23
   2  -3  -1 9999.00  188.63
  -2   3   1 9803.32  188.64
  -2   3   0  132.55    3.25
   2  -3   0  136.97    3.56
  -2   3   0  134.65    3.53
   2  -3   1  362.77    7.73
  -2   3  -1  351.00    7.68
   2  -3   1  369.93    7.99
  -2   3  -1  357.81    7.92
   2  -3   2   15.08    0.96
   2  -3   2   12.42    1.00
  -2   3  -2   15.30    1.00
   2  -3   3  185.66    4.70
   2  -3   3  191.52    4.85
  -2   3  -3  192.16    4.79
   2  -3   4    7.17    0.84
   2  -3   4    8.00    0.85
  -2   3  -4    7.72    0.78
   2  -3   5  142.91    4.07
  -2   3  -5  141.34    3.95
   2  -3   5  143.38    3.99
  -2   3  -6   83.14    2.23
   2  -3   6   83.88    2.95
  -2   3  -6   81.08    2.62
   2  -3   6   82.93    2.80
  -2   3  -6   82.65    2.78
  -2   3  -7  167.15    3.93
   2  -3   7  167.10    4.82
  -2   3  -7  163.62    4.42
   2  -3   7  166.63    4.60
  -2   3  -7  165.52    4.57
  -2   3  -8    2.51    0.41
   2  -3   8    2.01    0.63
  -2   3  -8    2.15    0.50
  -2   3  -8    2.41    0.53
   2  -3   8    1.62    0.53
   2  -3   9   50.96    2.43
  -2   3  -9   48.97    1.74
  -2   3  -9   49.81    2.15
   2  -3   9   48.09    2.15
  -2   3  -9   52.48    2.25
   2  -3  10   28.41    1.90
  -2   3 -10   28.52    1.33
  -2   3 -10   32.54    1.74
  -2   3 -10   30.57    1.73
   2  -3  10   32.40    1.76
   2  -3  11  221.56    6.58
  -2   3 -11  222.79    5.46
  -2   3 -11  221.45    6.02
  -2   3 -11  222.86    6.16
   2  -3  11  223.76    6.06
  -2   3 -12   21.38    1.55
  -2   3 -12   23.64    1.57
   2  -3  12   23.51    1.85
  -2   3 -12   22.80    1.31
  -2   3 -12   22.18    1.36
   2  -3  12   22.35    1.54
  -2   3 -13    1.74    0.67
  -2   3 -13    1.10    0.62
   2  -3  13    1.46    0.80
  -2   3 -13    0.52    0.43
  -2   3 -13    0.94    0.45
   2  -3  13    0.92    0.49
  -2   3 -14   67.96    2.92
   2  -3  14   68.80    3.47
  -2   3 -14   69.44    2.63
   2  -3  14   67.77    2.94
  -2   3 -15    7.98    1.01
   2  -3  15    7.72    1.32
  -2   3 -15    7.80    0.89
   2  -3  15    7.24    1.04
   2  -3  16   12.71    1.66
   2  -3  16   18.01    1.48
   2  -3  17   50.68    3.25
   2  -3  17   53.96    2.67
   2  -3  18   15.45    1.88
   2  -3  18   14.37    1.41
   2  -3  19    5.73    1.36
   2  -3  20    2.64    1.17
  -2   2  19   10.20    1.46
  -2   2  19   10.77    1.76
  -2   2  18   47.31    3.31
  -2   2  17   17.62    2.01
  -2   2  16    5.00    1.22
  -2   2  15    1.54    0.92
  -2   2  14   73.89    3.63
  -2   2  14   70.69    2.47
  -2   2  14   76.18    2.14
  -2   2  13   37.06    2.44
  -2   2  13   41.93    1.77
  -2   2  13   39.39    1.42
  -2   2  12  117.73    3.04
  -2   2  12  115.15    4.43
  -2   2  12  118.46    3.45
  -2   2  11   54.36    2.78
  -2   2  11   52.28    1.73
  -2   2  11   54.24    2.02
  -2   2  11   54.58    2.70
  -2   2  10  110.23    2.89
  -2   2  10  109.48    4.04
  -2   2  10  109.82    3.21
  -2   2  10  110.89    3.99
  -2   2   9   17.98    1.54
  -2   2   9   16.83    1.06
  -2   2   9   20.01    1.47
  -2   2   8  128.52    3.56
  -2   2   8  133.24    4.21
  -2   2   7   50.75    2.27
  -2   2   7   48.36    1.84
  -2   2   6  163.70    4.20
  -2   2   5   17.16    1.03
  -2   2   5   14.30    0.79
  -2   2   4    6.92    0.71
  -2   2   4    7.68    0.60
  -2   2   3   35.73    1.46
  -2   2   3   32.80    1.25
  -2   2   2   94.36    2.64
  -2   2   2   88.77    2.46
   2  -2  -2   94.07    2.54
  -2   2   1 1437.75   28.16
   2  -2   0 4454.30   84.84
  -2   2   0 4386.71   84.82
  -2   2  -1 2847.14   55.14
   2  -2   1 2897.45   55.34
  -2   2  -1 2850.54   55.32
  -2   2  -2   61.57    1.91
   2  -2   2   60.77    1.92
   2  -2   2   64.79    2.05
  -2   2  -2   58.48    1.96
  -2   2  -3   96.57    2.77
   2  -2   3  102.35    2.83
  -2   2  -3   98.11    2.77
   2  -2   3   98.66    2.84
   2  -2   4   45.68    1.82
  -2   2  -4   42.48    1.67
   2  -2   4   48.10    1.78
   2  -2   5  379.10    8.36
  -2   2  -5  353.41    8.05
  -2   2  -5  363.20    8.11
   2  -2   5  376.81    8.18
   2  -2   6   52.27    2.13
  -2   2  -6   52.13    1.66
  -2   2  -6   50.01    1.91
   2  -2   6   54.10    2.00
  -2   2  -6   53.92    1.97
   2  -2   7   70.04    2.67
  -2   2  -7   72.12    2.13
  -2   2  -7   71.98    2.47
   2  -2   7   71.31    2.45
  -2   2  -7   70.22    2.40
   2  -2   8    8.90    0.98
  -2   2  -8    9.97    0.74
  -2   2  -8   10.19    0.91
  -2   2  -8    9.72    0.84
   2  -2   8    9.88    0.88
   2  -2   9   26.78    1.72
  -2   2  -9   27.72    1.30
  -2   2  -9   28.37    1.58
   2  -2   9   28.04    1.49
  -2   2  -9   26.29    1.44
   2  -2  10   43.16    2.24
  -2   2 -10   42.05    1.72
  -2   2 -10   43.15    2.06
  -2   2 -10   38.72    1.83
   2  -2  10   41.54    1.89
   2  -2  11   37.25    2.19
  -2   2 -11   37.96    1.71
  -2   2 -11   39.08    2.06
  -2   2 -11   36.48    1.79
   2  -2  11   37.61    1.83
  -2   2 -12   23.71    1.63
  -2   2 -12   20.57    1.36
   2  -2  12   22.18    1.74
  -2   2 -12   22.42    1.36
  -2   2 -12   21.69    1.22
   2  -2  12   21.42    1.39
  -2   2 -13  124.23    3.95
   2  -2  13  129.79    4.68
  -2   2 -13  122.53    3.88
  -2   2 -13  122.56    3.57
   2  -2  13  126.35    3.99
  -2   2 -14   98.70    3.51
   2  -2  14  102.07    4.21
  -2   2 -14  104.05    3.20
   2  -2  14  110.25    3.64
  -2   2 -15    1.76    0.61
   2  -2  15    2.65    0.83
  -2   2 -15    2.43    0.52
   2  -2  15    1.51    0.55
   2  -2  16   -0.17    0.71
  -2   2 -16    0.74    0.60
   2  -2  16    0.47    0.48
   2  -2  17  130.68    5.38
   2  -2  17  131.23    4.33
   2  -2  18   20.97    2.09
   2  -2  19   11.39    1.64
   2  -2  20    0.79    0.82
  -2   1  20   29.90    2.46
  -2   1  19   21.99    2.35
  -2   1  18   23.73    2.29
  -2   1  17    0.26    0.81
  -2   1  16   21.27    2.10
  -2   1  15   54.05    3.13
  -2   1  15   54.65    1.93
  -2   1  14  117.43    4.67
   2  -1 -14  107.73    3.41
  -2   1  14  117.55    3.23
  -2   1  13    0.28    0.80
  -2   1  13    0.06    0.34
  -2   1  13    0.53    0.36
   2  -1 -13    0.33    0.35
  -2   1  12  109.61    3.08
  -2   1  12  108.71    4.17
  -2   1  12  113.92    4.08
   2  -1 -12  103.63    3.28
  -2   1  12  106.90    3.25
  -2   1  11    3.92    0.86
  -2   1  11    4.13    0.52
  -2   1  11    4.61    0.80
  -2   1  11    4.19    0.55
   2  -1 -11    2.93    0.50
  -2   1  10  243.63    5.71
  -2   1  10  255.83    6.93
   2  -1 -10  237.70    6.00
  -2   1  10  256.07    6.03
  -2   1  10  254.31    6.78
  -2   1   9   10.46    1.16
  -2   1   9   10.73    0.73
   2  -1  -9   10.80    0.86
  -2   1   9    9.85    0.80
  -2   1   9   11.47    1.10
  -2   1   8  129.10    3.52
   2  -1  -8  125.65    3.57
  -2   1   8  132.51    4.05
  -2   1   7   44.35    2.01
  -2   1   7   44.33    1.69
   2  -1  -7   43.16    1.72
  -2   1   6   96.25    2.74
   2  -1  -6   91.62    2.74
  -2   1   5    1.05    0.45
   2  -1  -5    0.95    0.38
   2  -1  -4   56.17    1.87
  -2   1   4   54.39    1.86
  -2   1   3   14.24    0.89
   2  -1  -3   13.37    0.83
  -2   1   2  260.16    5.68
   2  -1  -2  243.61    5.58
  -2   1   1    0.81    0.34
  -2   1   1    0.84    0.42
   2  -1  -1    1.53    0.40
  -2   1   0  173.61    3.93
  -2   1   0  163.76    3.85
   2  -1   0  164.85    3.91
  -2   1  -1   18.78    0.92
   2  -1   1   21.67    0.97
  -2   1  -2  269.43    5.94
  -2   1  -2  273.34    5.97
   2  -1   2  278.67    5.98
  -2   1  -3    4.59    0.53
   2  -1   3    4.12    0.59
  -2   1  -3    4.38    0.52
   2  -1   3    4.65    0.59
   2  -1   4    7.42    0.77
  -2   1  -4    7.70    0.69
  -2   1  -4    8.09    0.64
   2  -1   4    7.32    0.70
   2  -1   5  145.08    3.90
  -2   1  -5  148.72    3.52
  -2   1  -5  140.65    3.74
   2  -1   5  147.64    3.67
  -2   1  -5  147.37    3.65
   2  -1   6  762.17   15.70
  -2   1  -6  754.35   15.19
  -2   1  -6  749.41   15.53
   2  -1   6  757.90   15.32
  -2   1  -6  736.73   15.27
   2  -1   7  375.14    8.55
  -2   1  -7  370.00    8.02
  -2   1  -7  358.36    8.36
   2  -1   7  374.55    8.11
  -2   1  -7  367.06    8.06
   2  -1   8  100.94    3.30
  -2   1  -8  103.28    2.91
   2  -1   8  101.67    3.25
  -2   1  -8   98.50    3.18
   2  -1   8  101.33    2.94
  -2   1  -8   96.58    2.86
   2  -1   9   41.13    2.03
  -2   1  -9   42.77    1.74
  -2   1  -9   42.77    2.00
   2  -1   9   41.61    2.03
   2  -1   9   43.07    1.74
  -2   1  -9   42.55    1.70
   2  -1  10  126.43    4.15
  -2   1 -10  131.85    3.71
  -2   1 -10  121.43    3.53
   2  -1  10  127.23    4.08
  -2   1 -10  127.44    4.04
   2  -1  10  125.34    3.59
  -2   1 -11  483.92   10.71
  -2   1 -11  505.34   11.50
   2  -1  11  509.61   11.58
  -2   1 -11  497.02   10.95
   2  -1  11  498.19   11.60
  -2   1 -11  472.56   10.27
   2  -1  11  492.74   10.77
   2  -1  12   16.67    1.45
  -2   1 -12   15.58    1.35
  -2   1 -12   15.64    1.10
   2  -1  12   16.07    1.20
  -2   1 -12   16.01    1.18
   2  -1  12   15.33    1.47
  -2   1 -12   14.61    0.85
   2  -1  12   17.54    1.15
  -2   1 -13   23.69    1.37
   2  -1  13   24.17    1.78
  -2   1 -13   23.19    1.52
   2  -1  13   25.02    1.87
  -2   1 -13   24.07    1.14
   2  -1  13   26.72    1.45
  -2   1 -14    1.00    0.47
   2  -1  14    1.75    0.84
  -2   1 -14   -0.89    0.62
   2  -1  14    0.03    0.67
  -2   1 -14    0.24    0.29
   2  -1  14    0.23    0.39
   2  -1  15   52.72    2.93
  -2   1 -15   50.63    2.20
   2  -1  15   50.12    2.85
  -2   1 -15   53.00    1.82
   2  -1  15   57.67    2.31
   2  -1  16   69.68    3.52
   2  -1  16   67.75    3.47
   2  -1  16   65.05    2.57
   2  -1  17   57.90    3.30
   2  -1  17   56.60    3.29
   2  -1  17   59.66    2.44
   2  -1  18    4.39    1.22
   2  -1  18    6.31    1.32
   2  -1  19   13.81    1.76
   2  -1  20    4.02    1.09
   2  -1  21    3.53    1.18
  -2   0  19   19.73    2.18
  -2   0  18    4.26    1.23
  -2   0  17   14.47    1.84
  -2   0  16   34.40    2.56
  -2   0  15    2.01    0.85
  -2   0  15    2.04    0.47
  -2   0  14    9.04    0.82
  -2   0  14    8.36    1.27
   2   0 -14    8.38    0.90
  -2   0  13  180.94    5.94
  -2   0  13  183.36    5.63
   2   0 -13  186.44    5.05
  -2   0  13  179.86    4.75
  -2   0  12  239.50    7.05
  -2   0  12  250.02    6.83
   2   0 -12  239.17    6.19
  -2   0  12  251.32    6.08
  -2   0  11   90.86    2.89
  -2   0  11   99.15    3.72
   2   0 -11   92.17    3.08
  -2   0  11   97.73    3.03
  -2   0  11   96.84    3.49
  -2   0  10   38.00    1.59
  -2   0  10   37.71    2.07
  -2   0  10   35.41    1.61
   2   0 -10   36.36    1.71
  -2   0  10   34.95    1.87
  -2   0   9  118.77    3.95
  -2   0   9  120.17    3.31
  -2   0   9  118.71    3.40
   2   0  -9  118.65    3.49
  -2   0   9  117.50    3.80
  -2   0   8   10.63    1.07
  -2   0   8   10.29    0.78
   2   0  -8    8.56    0.78
  -2   0   8    9.52    0.80
  -2   0   8   10.84    1.00
  -2   0   7  259.02    5.92
  -2   0   7  261.00    6.42
   2   0  -7  255.67    6.10
  -2   0   7  262.02    6.06
  -2   0   6   75.18    2.33
   2   0  -6   74.82    2.37
   2   0  -5  543.76   11.47
  -2   0   5  551.39   11.44
  -2   0   4  703.39   14.22
   2   0  -4  691.16   14.24
  -2   0   3    0.29    0.42
   2   0  -3    0.37    0.37
   2   0  -2   45.43    1.57
  -2   0   2   46.34    1.54
   2   0  -1  204.49    4.70
  -2   0   1  213.28    4.71
  -2   0   0 1481.11   28.88
   2   0   0 1485.24   28.88
  -2   0  -1    6.02    0.54
   2   0   1    5.26    0.47
  -2   0  -2   35.92    1.15
  -2   0  -2   33.95    1.19
   2   0   2   34.42    1.13
  -2   0  -3  125.91    3.13
  -2   0  -3  130.42    2.93
  -2   0  -3  121.95    3.00
   2   0   3  131.14    3.04
   2   0   4  347.86    7.44
  -2   0  -4  337.98    7.39
  -2   0  -4  350.87    7.44
  -2   0  -4  337.19    7.17
   2   0   4  346.83    7.20
   2   0   5    2.69    0.61
  -2   0  -5    2.01    0.42
  -2   0  -5    2.95    0.51
  -2   0  -5    2.75    0.47
  -2   0  -5    2.40    0.34
   2   0   5    3.58    0.48
  -2   0  -6 2295.12   44.35
   2   0   6 2325.80   44.59
   2   0   6 2321.22   44.65
  -2   0  -6 2270.28   44.57
   2   0   6 2270.03   44.10
  -2   0  -6 2237.15   44.08
   2   0   7    0.29    0.50
  -2   0  -7   -0.55    0.49
   2   0   7    0.02    0.36
  -2   0  -7    0.56    0.39
   2   0   7    1.07    0.55
   2   0   7    0.62    0.35
  -2   0  -7    0.43    0.26
   2   0   8  552.50   12.01
   2   0   8  562.86   12.32
  -2   0  -8  565.14   12.03
   2   0   8  562.91   12.36
  -2   0  -8  583.48   12.39
   2   0   8  579.45   11.68
  -2   0  -8  554.60   11.61
   2   0   9    6.27    0.88
  -2   0  -9    5.40    0.53
  -2   0  -9    6.14    0.79
   2   0   9    5.68    0.65
  -2   0  -9    5.61    0.66
   2   0   9    5.73    0.82
  -2   0  -9    5.96    0.43
   2   0   9    6.41    0.59
   2   0  10   13.17    1.19
  -2   0 -10   10.52    0.71
  -2   0 -10   12.22    1.11
   2   0  10   11.92    0.99
  -2   0 -10   11.25    0.91
   2   0  10   12.73    1.14
  -2   0 -10   11.63    0.60
   2   0  10   12.06    0.81
  -2   0 -11    0.27    0.31
   2   0  11   -0.28    0.66
  -2   0 -11    0.30    0.46
  -2   0 -11    0.24    0.44
   2   0  11    1.19    0.68
   2   0  11    0.62    0.42
  -2   0 -11    1.00    0.26
   2   0  11    1.52    0.42
   2   0  12    1.76    0.71
  -2   0 -12    2.17    0.46
  -2   0 -12    1.81    0.69
   2   0  12    1.06    0.63
  -2   0 -12    1.93    0.58
   2   0  12    1.44    0.56
  -2   0 -12    1.72    0.29
   2   0  12    0.80    0.30
   2   0  13   32.67    2.10
  -2   0 -13   32.21    1.46
  -2   0 -13   34.61    1.94
   2   0  13   32.34    1.85
   2   0  13   32.95    2.05
  -2   0 -13   32.20    1.10
   2   0  13   32.33    1.47
   2   0  14    2.16    0.79
  -2   0 -14    3.95    0.59
   2   0  14    3.99    0.74
  -2   0 -14    4.17    0.83
   2   0  14    4.49    0.92
  -2   0 -14    4.17    0.38
   2   0  14    3.79    0.55
   2   0  15   21.06    1.85
   2   0  15   21.07    1.77
   2   0  15   20.29    1.57
  -2   0 -15   20.66    0.76
   2   0  15   22.05    1.22
   2   0  16  133.75    5.00
   2   0  16  126.18    5.04
   2   0  16  132.04    3.73
   2   0  17   97.98    4.30
   2   0  17   99.14    4.49
   2   0  17  101.56    3.09
   2   0  18   62.40    3.44
   2   0  18   62.51    3.59
   2   0  19    0.46    0.81
   2   0  19    1.57    1.13
   2   0  20    9.16    1.59
   2   0  20    8.83    1.62
   2   0  21   75.92    4.13
   2   0  21   70.45    4.27
   2   0  22    1.88    0.98
  -2  -1  20   21.36    2.34
  -2  -1  19   38.86    3.01
  -2  -1  18    0.84    0.78
  -2  -1  17   11.52    1.60
  -2  -1  16    6.29    1.26
  -2  -1  16    6.89    0.84
  -2  -1  15   31.07    2.32
  -2  -1  15   29.83    1.67
  -2  -1  14    0.21    0.42
  -2  -1  14    0.32    0.69
  -2  -1  14    0.31    0.47
   2   1 -14    0.31    0.49
  -2  -1  13  101.13    4.05
  -2  -1  13   98.26    3.68
   2   1 -13  105.20    3.47
  -2  -1  13   99.33    3.28
  -2  -1  12   29.09    2.00
  -2  -1  12   30.81    1.81
   2   1 -12   28.95    1.62
  -2  -1  12   30.83    1.60
  -2  -1  11  503.15   11.92
  -2  -1  11  502.00   11.54
   2   1 -11  505.76   11.28
  -2  -1  11  504.54   11.18
  -2  -1  10   11.31    1.15
  -2  -1  10    8.85    0.85
   2   1 -10   11.03    0.97
  -2  -1  10    9.03    0.92
  -2  -1   9   59.35    2.52
  -2  -1   9   59.67    2.22
  -2  -1   9   61.04    2.25
   2   1  -9   64.19    2.33
  -2  -1   9   60.82    2.41
  -2  -1   8    0.68    0.40
  -2  -1   8    0.76    0.47
  -2  -1   8    0.62    0.41
   2   1  -8    0.74    0.41
  -2  -1   8    1.04    0.51
  -2  -1   7    9.54    0.79
  -2  -1   7    8.66    0.90
  -2  -1   7    9.42    0.79
   2   1  -7   10.40    0.84
  -2  -1   7   10.05    0.87
  -2  -1   6   13.67    1.04
  -2  -1   6   13.92    0.92
   2   1  -6   13.46    0.92
  -2  -1   6   14.81    0.96
  -2  -1   5   17.98    1.01
   2   1  -5   19.66    1.09
  -2  -1   5   18.86    1.07
  -2  -1   4   37.61    1.50
   2   1  -4   39.41    1.53
  -2  -1   3   66.30    2.05
   2   1  -3   65.85    2.06
  -2  -1   2  710.28   14.53
   2   1  -2  728.91   14.55
   2   1  -1  120.88    2.99
  -2  -1   1  117.71    2.99
   2   1   0  593.60   11.76
  -2  -1   0  573.08   11.75
  -2  -1  -1  940.09   18.31
   2   1   1  926.65   18.31
  -2  -1  -2  315.79    6.40
   2   1   2  306.98    6.41
  -2  -1  -3  109.53    2.67
   2   1   3  100.17    2.40
  -2  -1  -3  106.61    2.39
   2   1   4   74.43    2.13
  -2  -1  -4   70.33    2.07
  -2  -1  -4   67.99    2.05
  -2  -1  -4   69.42    1.99
  -2  -1  -4   70.14    1.65
   2   1   4   66.27    1.63
  -2  -1  -4   69.64    1.77
   2   1   5  275.68    6.19
   2   1   5  279.05    6.15
  -2  -1  -5  265.45    6.09
  -2  -1  -5  282.86    6.23
   2   1   5  277.33    6.28
  -2  -1  -5  276.20    6.26
  -2  -1  -5  276.56    5.75
   2   1   6  314.81    7.11
   2   1   6  322.39    7.09
  -2  -1  -6  316.94    7.13
   2   1   6  315.60    7.25
  -2  -1  -6  316.44    7.26
  -2  -1  -6  318.82    6.56
   2   1   6  315.61    6.58
   2   1   7  624.00   13.10
   2   1   7  632.14   13.05
  -2  -1  -7  630.01   13.08
   2   1   7  631.55   13.28
  -2  -1  -7  625.28   13.26
  -2  -1  -7  609.56   12.37
   2   1   7  619.37   12.40
  -2  -1  -8  101.37    3.12
   2   1   8  102.87    3.13
   2   1   8  104.08    3.12
   2   1   8  105.65    3.33
  -2  -1  -8  104.23    3.29
  -2  -1  -8   98.09    2.48
   2   1   8  102.89    2.53
  -2  -1  -9    1.13    0.53
   2   1   9    1.03    0.48
   2   1   9    0.31    0.49
  -2  -1  -9    0.68    0.25
  -2  -1  -9    1.15    0.48
   2   1   9    1.13    0.59
   2   1   9    1.11    0.28
   2   1  10  183.02    5.03
   2   1  10  183.44    5.03
  -2  -1 -10  176.26    4.98
   2   1  10  184.72    5.27
  -2  -1 -10  188.87    5.29
  -2  -1 -10  177.84    4.14
   2   1  10  184.56    4.18
  -2  -1 -11    4.00    0.73
   2   1  11    3.35    0.65
   2   1  11    3.40    0.71
  -2  -1 -11    3.13    0.36
  -2  -1 -11    4.88    0.79
   2   1  11    4.20    0.82
   2   1  11    3.72    0.43
   2   1  12    9.34    1.03
   2   1  12   10.69    1.09
  -2  -1 -12   10.57    1.09
  -2  -1 -12   11.98    1.22
   2   1  12    9.82    1.18
  -2  -1 -12   10.92    0.68
   2   1  12   11.47    0.71
   2   1  13    0.43    0.43
  -2  -1 -13    0.37    0.58
   2   1  13   -0.30    0.58
   2   1  13   -0.18    0.63
   2   1  13    0.37    0.29
  -2  -1 -14    5.97    0.97
   2   1  14    3.39    0.83
   2   1  14    5.06    0.84
   2   1  14    5.85    1.06
   2   1  14    3.84    0.46
   2   1  15  104.18    4.04
   2   1  15  104.09    4.30
   2   1  15  103.54    2.80
   2   1  16   22.75    1.85
   2   1  16   20.85    1.98
   2   1  16   22.93    1.04
   2   1  17    8.83    1.32
   2   1  17    8.58    1.39
   2   1  18   69.53    3.53
   2   1  18   69.15    3.81
   2   1  19    0.19    0.74
   2   1  19    0.64    1.00
   2   1  20    3.03    1.07
   2   1  20    2.22    1.08
   2   1  21    4.31    1.19
   2   1  21    5.30    1.52
   2   1  22   31.57    2.63
  -2  -2  20    0.71    0.85
  -2  -2  19    0.05    0.86
  -2  -2  18   54.18    3.40
  -2  -2  17   27.46    2.36
  -2  -2  16   12.48    1.55
  -2  -2  16   11.53    1.18
  -2  -2  15    2.14    0.86
  -2  -2  15    2.35    0.66
  -2  -2  14   12.53    1.44
  -2  -2  14   12.16    1.18
   2   2 -14   11.44    1.10
  -2  -2  14   12.93    1.15
  -2  -2  13  107.57    4.12
  -2  -2  13  103.22    3.64
   2   2 -13  105.54    3.64
  -2  -2  13  108.15    3.64
  -2  -2  12  123.10    4.31
  -2  -2  12  116.15    3.83
   2   2 -12  118.69    3.84
  -2  -2  12  114.84    3.75
  -2  -2  11  115.51    4.05
  -2  -2  11  118.91    3.74
   2   2 -11  111.96    3.70
  -2  -2  11  121.55    3.84
  -2  -2  10   26.10    1.51
  -2  -2  10   25.83    1.63
   2   2 -10   25.28    1.49
  -2  -2  10   24.67    1.43
  -2  -2   9    5.46    0.75
  -2  -2   9    6.01    0.82
   2   2  -9    5.75    0.73
  -2  -2   9    5.48    0.67
  -2  -2   8   11.09    1.00
  -2  -2   8   11.08    0.95
   2   2  -8   10.46    0.92
  -2  -2   8   10.02    0.83
  -2  -2   7  276.07    6.55
  -2  -2   7  273.71    6.55
   2   2  -7  269.85    6.55
  -2  -2   7  267.95    6.28
  -2  -2   6   39.45    1.65
  -2  -2   6   39.29    1.69
  -2  -2   6   36.97    1.66
   2   2  -6   38.91    1.69
  -2  -2   5  421.41    9.09
  -2  -2   5  419.56    9.24
  -2  -2   5  425.77    9.25
   2   2  -5  420.49    9.25
  -2  -2   4    0.31    0.51
  -2  -2   4    0.15    0.46
   2   2  -4    0.64    0.43
  -2  -2   3   35.87    1.50
  -2  -2   3   38.61    1.55
   2   2  -3   35.39    1.46
   2   2  -2  116.05    3.13
  -2  -2   2  120.76    3.16
  -2  -2   1 5081.78   97.85
   2   2  -1 5127.02   97.84
  -2  -2   0   17.71    0.92
   2   2   0   17.78    0.89
  -2  -2  -1  743.96   14.88
   2   2   1  749.41   14.88
  -2  -2  -2   15.48    0.70
  -2  -2  -2   15.08    0.72
   2   2   2   14.37    0.70
  -2  -2  -2   15.66    0.82
   2   2   3  204.82    4.57
  -2  -2  -3  204.82    4.55
  -2  -2  -3  207.38    4.36
   2   2   3  201.57    4.35
  -2  -2  -3  196.17    4.66
   2   2   4   59.93    1.94
  -2  -2  -4   62.42    1.91
  -2  -2  -4   61.10    1.53
   2   2   4   61.22    1.54
   2   2   4   61.71    1.96
  -2  -2  -4   62.88    2.00
  -2  -2  -5  253.32    5.76
   2   2   5  248.44    5.76
   2   2   5  244.90    5.75
  -2  -2  -5  247.80    5.44
  -2  -2  -5  259.88    5.80
   2   2   5  242.63    4.98
   2   2   6    1.37    0.43
  -2  -2  -6    1.65    0.38
   2   2   6    2.59    0.53
  -2  -2  -6    1.86    0.61
   2   2   6    2.48    0.68
  -2  -2  -6    1.85    0.52
  -2  -2  -6    1.62    0.25
   2   2   7  470.99   10.27
   2   2   7  469.84    9.91
  -2  -2  -7  474.11   10.28
  -2  -2  -7  477.30   10.31
   2   2   7  467.38   10.32
  -2  -2  -7  458.24    9.18
  -2  -2  -8    1.89    0.62
   2   2   8    0.98    0.49
   2   2   8    0.74    0.48
   2   2   8    0.74    0.63
  -2  -2  -8    0.60    0.53
  -2  -2  -8    0.73    0.19
   2   2   9  180.17    4.92
   2   2   9  179.30    4.61
  -2  -2  -9  172.73    4.86
   2   2   9  176.42    5.00
  -2  -2  -9  178.36    5.03
  -2  -2  -9  173.41    3.67
   2   2  10    5.80    0.73
  -2  -2 -10    5.69    0.79
   2   2  10    6.62    0.84
  -2  -2 -10    6.88    0.38
  -2  -2 -10    6.53    0.86
   2   2  10    6.59    0.92
   2   2  11  344.53    8.59
  -2  -2 -11  344.89    8.58
   2   2  11  338.89    8.25
   2   2  11  345.12    8.79
  -2  -2 -11  364.37    8.87
   2   2  12  699.49   15.64
  -2  -2 -12  699.93   15.64
   2   2  12  690.25   15.28
   2   2  12  686.26   15.83
  -2  -2 -12  739.36   16.03
   2   2  13   77.56    3.05
   2   2  13   77.15    3.21
  -2  -2 -13   77.38    3.27
   2   2  13   79.40    3.43
  -2  -2 -14   49.57    2.64
   2   2  14   50.97    2.48
   2   2  14   51.56    2.80
   2   2  15   43.74    2.38
   2   2  15   42.92    2.70
   2   2  16   37.58    2.29
   2   2  16   35.74    2.50
   2   2  17  103.16    4.18
   2   2  17  104.75    4.65
   2   2  18   24.42    2.00
   2   2  18   23.63    2.25
   2   2  19   24.20    2.03
   2   2  19   25.90    2.44
   2   2  20    8.83    1.33
   2   2  20    9.35    1.67
   2   2  21   -0.03    0.75
  -2  -3  20    2.89    1.37
  -2  -3  19    6.09    1.48
  -2  -3  18   18.67    1.97
  -2  -3  17    0.62    0.72
  -2  -3  16   77.48    3.83
  -2  -3  16   89.78    3.54
  -2  -3  15    2.59    0.87
  -2  -3  15    4.34    0.85
  -2  -3  14    0.46    0.62
  -2  -3  14    0.06    0.43
   2   3 -14   -0.36    0.47
  -2  -3  14    1.34    0.64
  -2  -3  13    0.42    0.60
  -2  -3  13    0.36    0.49
  -2  -3  13    0.08    0.42
   2   3 -13    0.40    0.48
  -2  -3  12  227.61    6.46
  -2  -3  12  223.41    5.87
   2   3 -12  229.22    6.26
  -2  -3  12  220.00    6.19
  -2  -3  11    7.79    0.97
  -2  -3  11    9.99    1.10
  -2  -3  11    8.01    0.79
   2   3 -11    8.40    0.95
  -2  -3  10   56.09    2.44
  -2  -3  10   54.31    2.10
   2   3 -10   54.86    2.39
  -2  -3  10   59.25    2.55
  -2  -3   9    5.39    0.81
  -2  -3   9    5.73    0.79
   2   3  -9    7.63    0.86
  -2  -3   9    4.99    0.60
  -2  -3   8  203.76    5.46
  -2  -3   8  203.06    5.30
   2   3  -8  208.93    5.47
  -2  -3   8  199.93    4.90
  -2  -3   7  146.71    3.98
  -2  -3   7  147.27    4.23
   2   3  -7  147.31    4.21
  -2  -3   7  142.98    3.65
  -2  -3   6  298.70    6.68
  -2  -3   6  315.76    7.39
  -2  -3   6  310.40    6.97
   2   3  -6  316.27    7.39
  -2  -3   5  223.60    5.25
  -2  -3   5  230.53    5.74
   2   3  -5  238.61    5.79
  -2  -3   4  224.72    5.04
  -2  -3   4  228.78    5.62
   2   3  -4  231.16    5.59
  -2  -3   3    0.68    0.54
  -2  -3   3    1.13    0.33
   2   3  -3    0.26    0.39
  -2  -3   2  290.01    6.68
   2   3  -2  293.58    6.68
  -2  -3   1  618.59   12.73
   2   3  -1  607.73   12.70
  -2  -3   0  173.07    4.15
   2   3   0  167.21    4.12
  -2  -3  -1   30.27    0.91
  -2  -3  -1   33.07    1.31
   2   3   1   31.37    1.25
  -2  -3  -1   32.43    1.15
   2   3   2  185.68    4.05
  -2  -3  -2  183.23    4.04
   2   3   2  186.92    4.29
  -2  -3  -2  187.76    4.31
   2   3   3  401.66    8.25
  -2  -3  -3  393.09    8.24
   2   3   3  391.68    8.21
   2   3   3  397.96    8.43
  -2  -3  -3  394.50    8.45
  -2  -3  -4  142.44    3.55
   2   3   4  141.60    3.56
   2   3   4  141.40    3.29
   2   3   4  140.89    3.68
  -2  -3  -4  148.01    3.73
  -2  -3  -5  509.50   10.80
   2   3   5  510.76   10.81
   2   3   5  504.44   10.20
  -2  -3  -5  507.13   10.34
  -2  -3  -5  526.23   10.93
   2   3   5  512.29   10.92
  -2  -3  -6  190.13    4.76
   2   3   6  192.08    4.81
   2   3   6  180.50    3.91
  -2  -3  -6  184.15    4.25
  -2  -3  -6  193.97    4.86
   2   3   6  196.57    4.88
   2   3   7  210.04    5.43
  -2  -3  -7  212.99    5.44
   2   3   7  213.44    5.42
  -2  -3  -7  208.87    5.41
   2   3   8  103.20    2.88
  -2  -3  -8  100.76    3.33
   2   3   8  102.16    3.35
  -2  -3  -8  106.62    3.40
   2   3   8  103.34    3.37
   2   3   9  134.08    3.65
  -2  -3  -9  132.21    4.13
   2   3   9  137.40    4.16
   2   3   9  131.90    4.17
  -2  -3  -9  137.11    4.23
  -2  -3 -10    3.12    0.75
   2   3  10    1.71    0.64
   2   3  10    3.32    0.57
   2   3  10    2.51    0.74
  -2  -3 -10    2.62    0.71
  -2  -3 -11  424.08   10.22
   2   3  11  423.49    9.59
   2   3  11  428.95   10.24
   2   3  11  416.63   10.32
  -2  -3 -12    6.14    0.95
   2   3  12    7.60    0.95
   2   3  12    6.95    0.80
   2   3  12    7.18    1.05
  -2  -3 -13  651.77   15.15
   2   3  13  660.59   14.49
   2   3  13  662.28   15.17
   2   3  13  663.22   15.38
  -2  -3 -14    1.18    0.74
   2   3  14    1.18    0.60
   2   3  14    0.84    0.91
   2   3  15  131.59    4.40
   2   3  15  129.73    5.00
   2   3  16   51.24    2.59
   2   3  16   52.20    3.06
   2   3  17  133.37    4.74
   2   3  17  134.28    5.43
   2   3  18   26.17    1.97
   2   3  18   30.73    2.54
   2   3  19   67.12    3.40
   2   3  19   71.39    4.04
   2   3  20    7.19    1.18
   2   3  20    5.91    1.39
   2   3  21    0.62    0.74
  -2  -4  19   46.21    3.15
  -2  -4  18   16.61    1.88
  -2  -4  17   22.30    2.05
  -2  -4  16   34.59    2.41
  -2  -4  16   34.43    2.23
  -2  -4  15    0.00    0.61
  -2  -4  15    0.31    0.55
  -2  -4  14    7.87    1.12
   2   4 -14    9.78    1.17
  -2  -4  14    6.68    0.98
  -2  -4  13    8.20    1.08
  -2  -4  13    6.90    0.81
   2   4 -13   10.63    1.18
  -2  -4  13    7.48    1.04
  -2  -4  12    3.87    0.83
  -2  -4  12    3.76    0.88
  -2  -4  12    3.30    0.55
   2   4 -12    2.71    0.66
  -2  -4  11   43.96    2.18
  -2  -4  11   40.59    1.70
   2   4 -11   42.52    2.22
  -2  -4  11   41.13    2.19
  -2  -4  10  170.60    4.87
  -2  -4  10  162.60    4.24
   2   4 -10  175.16    5.11
  -2  -4  10  166.10    5.07
  -2  -4   9   70.59    2.59
  -2  -4   9   65.17    2.10
   2   4  -9   67.56    2.76
  -2  -4   9   73.12    2.93
  -2  -4   8  295.26    7.02
  -2  -4   8  285.39    6.47
   2   4  -8  307.81    7.59
  -2  -4   8  314.58    7.66
  -2  -4   7   11.10    0.85
  -2  -4   7   11.13    1.07
   2   4  -7   12.87    1.10
  -2  -4   7   10.40    0.63
  -2  -4   6  687.31   14.54
  -2  -4   6  682.61   13.76
   2   4  -6  668.96   14.38
  -2  -4   6  651.84   13.30
  -2  -4   5    5.70    0.55
  -2  -4   5    5.20    0.97
   2   4  -5    5.86    0.73
  -2  -4   4  358.84    7.52
  -2  -4   4  367.12    8.47
   2   4  -4  369.40    8.44
  -2  -4   3   51.22    2.12
  -2  -4   3   51.23    1.36
   2   4  -3   53.65    2.09
  -2  -4   2   11.61    0.99
   2   4  -2   11.16    0.92
   2   4  -2   12.04    0.94
   2   4  -1   35.01    1.56
  -2  -4   1   36.37    1.65
   2   4  -1   35.72    1.57
  -2  -4   1   34.31    1.09
  -2  -4   0  165.87    4.27
   2   4   0  164.60    4.25
  -2  -4   0  166.14    3.76
  -2  -4  -1  130.05    3.04
  -2  -4  -1  115.90    2.64
   2   4   1  118.85    2.63
  -2  -4  -1  128.59    3.32
   2   4   2  521.57   10.83
  -2  -4  -2  530.50   10.85
  -2  -4  -2  511.63   10.49
   2   4   2  522.16   10.49
  -2  -4  -2  539.04   10.94
  -2  -4  -3    0.80    0.51
   2   4   3    0.25    0.38
  -2  -4  -3    0.35    0.44
   2   4   3   -0.26    0.40
  -2  -4  -3    0.18    0.33
  -2  -4  -4    1.64    0.59
   2   4   4    1.39    0.47
  -2  -4  -4    1.62    0.44
   2   4   4    1.39    0.50
  -2  -4  -4    1.33    0.41
  -2  -4  -5    5.19    0.74
   2   4   5    5.57    0.69
   2   4   5    5.24    0.70
  -2  -4  -5    5.45    0.50
  -2  -4  -5    5.37    0.64
  -2  -4  -6  100.99    2.53
  -2  -4  -6  105.65    3.29
   2   4   6  105.87    3.27
  -2  -4  -6  101.94    2.45
  -2  -4  -6  105.27    3.16
   2   4   6  104.27    3.15
  -2  -4  -7   10.67    0.64
  -2  -4  -7   10.70    1.04
   2   4   7   10.29    1.00
   2   4   7   11.41    1.03
  -2  -4  -7   10.40    0.96
  -2  -4  -7   10.75    0.50
   2   4   8  175.70    4.97
   2   4   8  175.60    3.85
   2   4   8  186.10    5.09
  -2  -4  -8  188.67    5.11
   2   4   9   10.46    1.02
   2   4   9   10.32    0.42
   2   4   9   10.06    0.43
  -2  -4  -9   10.23    1.09
   2   4   9   10.37    1.06
   2   4  10   62.21    2.72
  -2  -4 -10   64.70    2.77
   2   4  10   60.44    2.68
  -2  -4 -11   71.84    3.08
   2   4  11   73.27    2.47
   2   4  11   73.58    3.08
   2   4  11   71.42    3.08
   2   4  12  117.95    3.52
  -2  -4 -12  110.93    4.15
   2   4  12  111.61    4.12
   2   4  12  112.90    4.20
  -2  -4 -13  207.75    6.43
   2   4  13  212.80    5.60
   2   4  13  208.77    6.47
   2   4  14  161.10    4.70
  -2  -4 -14  153.43    5.43
   2   4  14  158.31    5.52
   2   4  15  107.09    3.69
   2   4  15  103.13    4.42
   2   4  16    4.57    0.84
   2   4  16    6.09    1.22
   2   4  17   41.75    2.33
   2   4  17   43.80    2.95
   2   4  18   13.48    1.37
   2   4  18   17.41    1.98
   2   4  19   67.32    3.24
   2   4  19   74.89    4.18
   2   4  20    6.31    1.50
  -2  -5  17  107.60    4.61
  -2  -5  17   99.43    4.32
  -2  -5  16    4.09    1.00
  -2  -5  16    2.38    0.76
  -2  -5  15    1.60    0.77
  -2  -5  15    1.28    0.68
  -2  -5  14   36.42    2.26
  -2  -5  14   34.25    2.27
  -2  -5  13  120.14    4.32
  -2  -5  13  127.39    4.63
  -2  -5  12    3.40    0.91
  -2  -5  12    3.56    0.74
  -2  -5  12    2.97    0.45
   2   5 -12    2.25    0.67
  -2  -5  11  198.55    5.54
  -2  -5  11  188.93    4.64
   2   5 -11  203.02    5.96
  -2  -5  11  196.69    6.00
  -2  -5  10    5.56    0.92
  -2  -5  10    6.38    0.81
   2   5 -10    5.69    0.88
  -2  -5  10    5.47    0.49
  -2  -5   9   13.26    1.25
  -2  -5   9   13.42    1.04
  -2  -5   9   14.89    0.73
   2   5  -9   15.44    1.36
  -2  -5   8   55.87    2.10
  -2  -5   8   56.13    1.57
   2   5  -8   56.67    2.54
  -2  -5   8   57.22    2.63
  -2  -5   7   21.13    1.12
  -2  -5   7   21.32    0.74
   2   5  -7   20.86    1.47
  -2  -5   7   22.66    1.61
  -2  -5   6  130.44    3.26
  -2  -5   6  121.14    2.68
   2   5  -6  140.59    4.19
  -2  -5   6  133.11    4.18
  -2  -5   5  571.46   12.90
   2   5  -5  588.96   12.95
  -2  -5   5  565.84   11.69
   2   5  -5  601.11   12.95
   2   5  -4  376.62    8.80
  -2  -5   4  356.13    8.69
   2   5  -4  367.98    8.73
   2   5  -3  340.71    7.91
  -2  -5   3  328.67    7.81
   2   5  -3  336.28    7.87
  -2  -5   3  318.53    6.46
   2   5  -2    7.87    0.87
  -2  -5   2    7.53    0.88
   2   5  -2    7.12    0.82
  -2  -5   2    7.87    0.43
  -2  -5   1    0.10    0.25
   2   5  -1    0.75    0.47
  -2  -5   1    1.16    0.60
  -2  -5   0   64.43    1.86
  -2  -5   0   67.50    2.40
   2   5   0   65.13    2.36
   2   5   1   14.08    0.80
  -2  -5  -1   13.88    0.82
   2   5   1   14.42    1.03
   2   5   1   13.63    0.56
  -2  -5  -1   14.56    1.04
   2   5   2   40.27    1.54
  -2  -5  -2   42.59    1.59
   2   5   2   40.74    1.64
   2   5   2   39.33    1.27
  -2  -5  -2   43.03    1.71
  -2  -5  -3   23.53    1.25
   2   5   3   24.30    1.23
  -2  -5  -3   25.29    1.22
   2   5   3   21.58    1.14
   2   5   3   25.09    1.06
  -2  -5  -4  177.37    4.66
   2   5   4  185.72    4.69
   2   5   4  180.12    4.39
  -2  -5  -4  177.16    4.34
  -2  -5  -5   13.30    1.06
   2   5   5   12.34    1.00
   2   5   5   13.35    0.95
  -2  -5  -5   13.10    0.80
  -2  -5  -6   36.81    1.79
  -2  -5  -6   32.38    1.08
   2   5   6   36.32    1.76
   2   5   6   35.84    1.66
  -2  -5  -6   34.47    1.25
  -2  -5  -7    9.84    0.56
  -2  -5  -7   11.02    1.06
   2   5   7    8.61    0.96
   2   5   7    8.94    0.94
  -2  -5  -7    8.89    0.55
   2   5   8  589.76   13.03
  -2  -5  -8  595.60   13.05
   2   5   8  580.66   12.85
  -2  -5  -8  570.28   11.41
   2   5   9    0.36    0.56
  -2  -5  -9    0.98    0.67
   2   5   9    0.58    0.56
   2   5  10   12.33    1.22
   2   5  10   11.61    0.57
  -2  -5 -10   14.13    1.35
   2   5  10   12.23    1.18
   2   5  11   10.68    1.25
   2   5  11   10.36    0.45
   2   5  11   10.90    0.47
  -2  -5 -11   12.66    1.36
   2   5  11   12.49    1.27
  -2  -5 -12  230.38    6.89
   2   5  12  237.40    6.90
  -2  -5 -13  133.74    4.93
   2   5  13  132.17    4.82
   2   5  14  371.16   10.06
   2   5  15   21.40    2.00
   2   5  16   12.24    1.62
   2   5  17   60.61    3.56
   2   5  18   25.22    2.38
   2   5  19   24.70    2.37
   2   5  20   72.82    4.31
  -2  -6  17   15.21    1.70
  -2  -6  16    1.88    0.80
  -2  -6  15   27.78    2.19
  -2  -6  14    2.60    0.92
  -2  -6  13   -0.25    0.70
  -2  -6  12    2.00    0.78
  -2  -6  11   55.11    2.90
  -2  -6  10   91.64    3.77
   2   6  -9   39.44    2.21
  -2  -6   9   38.56    2.30
  -2  -6   8    4.75    0.93
   2   6  -8    4.69    0.81
   2   6  -7  515.35   12.03
   2   6  -7  517.21   11.96
  -2  -6   7  478.46   11.82
   2   6  -6    5.17    0.84
  -2  -6   6    5.07    0.85
   2   6  -6    4.00    0.78
   2   6  -5  366.22    9.03
   2   6  -5  363.89    8.97
  -2  -6   5  354.50    8.97
   2   6  -4    4.46    0.78
  -2  -6   4    5.76    0.92
   2   6  -4    3.88    0.71
   2   6  -3   40.53    2.04
  -2  -6   3   39.91    2.06
  -2  -6   2   98.75    2.39
   2   6  -2  110.77    3.56
  -2  -6   2  105.65    3.52
  -2  -6   1    1.36    0.31
  -2  -6   1    1.96    0.70
   2   6  -1    1.91    0.61
  -2  -6   0   25.60    1.10
   2   6   0   27.85    1.59
  -2  -6   0   27.38    1.56
  -2  -6  -1    0.50    0.33
   2   6   1    1.22    0.37
   2   6   1    0.79    0.23
   2   6   1    1.37    0.54
  -2  -6  -1    2.26    0.65
   2   6   2  115.57    3.19
  -2  -6  -2  109.38    3.17
   2   6   2  116.63    3.47
   2   6   2  110.71    2.79
  -2  -6  -2  119.03    3.46
  -2  -6  -3  290.02    6.82
   2   6   3  293.73    6.81
   2   6   3  285.55    6.38
   2   6   3  281.32    6.80
  -2  -6  -3  304.14    6.90
  -2  -6  -4    5.82    0.79
   2   6   4    5.73    0.73
   2   6   4    5.55    0.70
   2   6   4    5.37    0.64
  -2  -6  -4    5.28    0.67
   2   6   5   81.73    2.78
  -2  -6  -5   74.74    2.76
   2   6   5   77.25    2.53
  -2  -6  -5   72.09    2.34
   2   6   6   18.82    1.30
  -2  -6  -6   18.99    1.34
   2   6   6   18.69    1.24
  -2  -6  -6   18.37    1.00
  -2  -6  -7    4.27    0.78
  -2  -6  -7    4.29    0.33
   2   6   7    4.11    0.71
   2   6   7    5.71    0.81
  -2  -6  -7    4.12    0.49
  -2  -6  -8  184.31    5.42
   2   6   8  187.50    5.40
   2   6   8  186.83    5.23
  -2  -6  -8  181.97    4.19
  -2  -6  -9   32.30    2.05
   2   6   9   38.93    2.10
   2   6   9   36.96    2.01
  -2  -6  -9   35.50    1.11
   2   6  10   47.74    2.44
  -2  -6 -10   50.24    2.62
   2   6  10   53.34    2.60
   2   6  11   24.54    1.79
  -2  -6 -11   22.50    1.77
   2   6  12   11.78    1.33
   2   6  12   12.65    0.63
   2   6  12   10.89    0.56
  -2  -6 -12   10.79    1.33
   2   6  13   23.52    1.91
   2   6  14  109.70    4.50
   2   6  15    6.45    1.17
   2   6  16   11.27    1.57
   2   6  17   14.85    1.86
   2   6  18   32.32    2.73
   2   6  19    0.49    1.06
  -2  -7  17    3.46    1.13
  -2  -7  16   56.10    3.36
  -2  -7  15   27.52    2.34
  -2  -7  14    5.70    1.18
  -2  -7  13    7.14    1.24
  -2  -7  12   16.33    1.68
  -2  -7  11   11.40    1.41
  -2  -7  10    4.68    1.04
  -2  -7   9    4.92    1.12
  -2  -7   8   79.92    3.50
  -2  -7   7   -0.46    0.65
   2   7  -7    1.55    0.61
   2   7  -6   31.52    2.04
   2   7  -6   32.40    2.01
  -2  -7   6   27.32    1.88
   2   7  -5   33.82    2.06
   2   7  -5   37.64    2.13
  -2  -7   5   31.77    1.97
  -2  -7   4    7.71    1.06
   2   7  -4    9.57    1.13
   2   7  -3  107.20    3.75
  -2  -7   3   91.64    3.52
  -2  -7   2   15.76    1.36
   2   7  -2   15.08    1.28
  -2  -7   1  537.14   11.25
   2   7  -1  579.72   12.61
  -2  -7   1  559.15   12.52
  -2  -7   0   64.47    2.04
   2   7   0   66.03    2.68
  -2  -7   0   66.58    2.68
   2   7   1  803.42   16.51
  -2  -7  -1  813.16   16.54
   2   7   1  826.28   17.29
   2   7   1  802.13   15.89
  -2  -7  -1  815.96   17.24
  -2  -7  -2    0.62    0.42
   2   7   2    1.22    0.40
   2   7   2    0.87    0.26
   2   7   2    1.21    0.51
  -2  -7  -2    0.92    0.51
  -2  -7  -3   11.07    0.95
   2   7   3   11.38    0.89
  -2  -7  -3   11.31    0.99
   2   7   3   11.83    1.02
   2   7   3   10.73    0.75
   2   7   4    1.73    0.50
  -2  -7  -4    1.40    0.56
  -2  -7  -4    0.98    0.41
   2   7   4    1.61    0.50
   2   7   4    1.22    0.43
  -2  -7  -5   48.81    2.19
   2   7   5   53.57    2.25
   2   7   5   46.75    1.93
   2   7   5   47.97    1.93
  -2  -7  -5   49.98    1.94
   2   7   6   42.08    2.05
  -2  -7  -6   40.22    2.07
   2   7   6   39.63    1.84
  -2  -7  -6   41.72    1.70
   2   7   7    3.35    0.74
  -2  -7  -7    2.42    0.75
  -2  -7  -7    2.57    0.22
   2   7   7    2.42    0.61
  -2  -7  -7    1.67    0.43
  -2  -7  -8   81.26    3.29
   2   7   8   82.45    3.25
   2   7   8   76.58    3.00
  -2  -7  -8   79.55    2.38
  -2  -7  -9  192.78    5.86
   2   7   9  201.06    5.88
   2   7   9  192.63    5.60
  -2  -7  -9  185.79    4.41
  -2  -7 -10   89.60    3.76
   2   7  10   95.01    3.64
  -2  -7 -10   94.83    2.35
   2   7  11    0.52    0.64
  -2  -7 -11   -0.51    0.64
   2   7  12   13.97    1.47
   2   7  12   12.65    0.80
   2   7  13  108.07    4.30
   2   7  13   95.92    2.56
   2   7  13   98.60    2.64
   2   7  14   85.84    3.82
   2   7  14   62.55    1.64
   2   7  14   69.30    1.67
   2   7  15   13.16    1.56
   2   7  16   -0.21    0.77
   2   7  17    0.84    0.91
   2   7  18   13.61    1.90
   2   7  19    8.87    1.66
  -2  -8  17    1.23    0.92
  -2  -8  16  105.86    5.00
  -2  -8  15   15.09    1.83
  -2  -8  14   54.98    3.35
  -2  -8  13    4.06    1.10
  -2  -8  12   -2.32    1.02
  -2  -8  11    1.13    0.82
  -2  -8  10  149.96    5.52
  -2  -8   9    1.72    0.88
  -2  -8   8   18.91    1.77
  -2  -8   7    3.83    0.94
  -2  -8   6    6.54    1.06
  -2  -8   5    6.26    1.03
  -2  -8   4   55.17    2.75
   2   8  -3   61.00    2.82
  -2  -8   3   51.81    2.63
   2   8  -2  133.55    4.45
  -2  -8   2  123.06    4.28
   2   8  -1   51.81    2.49
  -2  -8   1   49.23    2.41
   2   8   0  280.14    6.26
   2   8   0  296.61    7.39
   2   8   0  267.58    5.47
  -2  -8   0  281.65    7.23
   2   8   1  871.42   18.00
   2   8   1  867.56   17.29
  -2  -8  -1  887.97   18.05
   2   8   1  916.97   18.96
  -2  -8  -1  882.89   18.81
   2   8   2 1533.24   30.34
  -2  -8  -2 1528.38   30.35
   2   8   2 1528.27   30.92
   2   8   2 1497.75   29.64
  -2  -8  -2 1507.30   30.83
  -2  -8  -3  928.08   19.15
   2   8   3  931.69   19.12
   2   8   3  905.68   19.38
   2   8   3  899.88   18.48
  -2  -8  -3  931.53   19.36
   2   8   4  108.85    3.50
  -2  -8  -4  106.52    3.52
   2   8   4  102.24    3.07
   2   8   4  104.73    3.46
  -2  -8  -4  105.55    3.43
  -2  -8  -5   67.33    2.74
   2   8   5   70.08    2.72
   2   8   5   65.42    2.39
   2   8   5   64.26    2.50
  -2  -8  -5   65.83    2.49
   2   8   6    8.36    1.00
  -2  -8  -6    5.72    0.91
   2   8   6    5.32    0.69
   2   8   6    6.00    0.78
  -2  -8  -6    6.19    0.77
  -2  -8  -7  116.19    4.12
   2   8   7  125.67    4.18
   2   8   7  113.33    3.76
  -2  -8  -7  115.42    3.44
  -2  -8  -8    0.80    0.63
   2   8   8    0.96    0.56
   2   8   8    1.13    0.53
  -2  -8  -8    0.42    0.35
   2   8   9  161.52    4.99
  -2  -8  -9  155.79    5.29
  -2  -8  -9  154.80    4.01
   2   8  10    6.49    1.06
  -2  -8 -10    6.85    0.59
   2   8  11    5.00    0.94
  -2  -8 -11    7.97    0.52
   2   8  12    0.23    0.65
   2   8  13   24.65    1.98
   2   8  13   24.83    1.24
   2   8  14    0.60    0.72
   2   8  14    0.54    0.31
   2   8  15   88.37    4.20
   2   8  16   12.45    1.66
   2   8  17    9.01    1.62
   2   8  18   28.06    2.58
   2   8  19   56.32    3.78
  -2  -9  16   20.09    2.25
  -2  -9  15   20.70    2.25
  -2  -9  14   12.29    1.71
  -2  -9  13   13.08    1.77
  -2  -9  12   -0.89    1.03
  -2  -9  11    0.19    0.91
  -2  -9  10   55.83    3.29
  -2  -9   9   60.05    3.34
  -2  -9   8  262.38    8.01
  -2  -9   7    1.25    0.78
  -2  -9   6  149.44    5.36
  -2  -9   5   33.90    2.28
  -2  -9   4  112.69    4.38
  -2  -9   3    9.73    1.22
  -2  -9   2    1.90    0.77
  -2  -9   1    6.57    1.01
   2   9  -1    7.30    1.04
   2   9   0  130.92    3.53
   2   9   0  126.60    2.77
   2   9   0  143.82    4.62
  -2  -9   0  128.90    4.44
   2   9   1   18.99    1.14
  -2  -9  -1   18.37    1.47
   2   9   1   15.73    0.75
   2   9   1   18.30    1.46
   2   9   2  106.96    3.33
   2   9   2  103.12    2.78
   2   9   2   99.16    3.69
  -2  -9  -2  106.56    3.75
   2   9   3    2.47    0.55
   2   9   3    3.74    0.74
   2   9   3    3.60    0.53
  -2  -9  -3    2.59    0.64
   2   9   4  490.35   11.08
   2   9   4  470.32   11.15
   2   9   4  475.87   10.44
  -2  -9  -4  477.58   11.10
   2   9   5    5.70    0.87
   2   9   5    4.25    0.75
   2   9   5    5.05    0.71
  -2  -9  -5    3.66    0.71
   2   9   6    0.09    0.57
   2   9   6   -0.14    0.44
   2   9   6    0.43    0.46
  -2  -9  -6    1.60    0.56
   2   9   7   82.32    3.32
   2   9   7   70.03    2.69
   2   9   7   82.93    3.08
  -2  -9  -7   80.92    2.84
   2   9   8  157.77    4.91
  -2  -9  -8  157.63    4.40
   2   9   9  288.30    7.72
  -2  -9  -9  286.04    6.81
   2   9  10  101.06    3.92
  -2  -9 -10  100.82    2.99
   2   9  11   10.46    1.28
  -2  -9 -11   12.39    0.80
   2   9  12   77.12    3.65
  -2  -9 -12   83.57    2.16
   2   9  13   96.84    4.25
   2   9  14   12.50    1.61
   2   9  14   11.16    0.90
   2   9  15    7.45    1.35
   2   9  16    5.32    1.30
   2   9  17   27.75    2.51
   2   9  18    1.47    0.98
  -2 -10  14   -0.31    0.80
  -2 -10  13    2.46    1.03
  -2 -10  12    5.78    1.31
  -2 -10  11   71.83    3.99
  -2 -10  10   14.35    1.79
  -2 -10   9   46.11    3.04
  -2 -10   8  103.57    4.59
  -2 -10   7  254.28    7.98
  -2 -10   6    3.69    0.98
  -2 -10   5   24.50    1.99
  -2 -10   4   89.06    3.94
  -2 -10   3  148.77    5.30
  -2 -10   2  167.49    5.65
  -2 -10   1   -0.43    0.70
   2  10   0    5.26    0.31
  -2 -10   0    6.20    1.05
   2  10   1   58.58    2.25
   2  10   1   58.25    1.71
  -2 -10  -1   56.44    2.81
   2  10   2  335.53    8.17
   2  10   2  336.28    7.45
   2  10   2  358.29    9.04
  -2 -10  -2  352.62    8.94
   2  10   3  107.68    3.62
   2  10   3  105.45    3.07
   2  10   3  107.48    3.97
  -2 -10  -3  110.01    3.95
   2  10   4    3.31    0.70
   2  10   4    2.93    0.69
   2  10   4    3.20    0.54
  -2 -10  -4    2.11    0.66
   2  10   5    0.49    0.46
   2  10   5    1.42    0.56
   2  10   5   -0.03    0.41
  -2 -10  -5    0.28    0.53
   2  10   6   44.26    2.32
   2  10   6   39.64    2.09
   2  10   6   38.09    1.93
  -2 -10  -6   38.86    2.05
   2  10   7    3.50    0.63
   2  10   7    3.52    0.71
  -2 -10  -7    2.82    0.61
   2  10   8    1.29    0.65
  -2 -10  -8    1.52    0.51
   2  10   9    1.03    0.68
  -2 -10  -9    0.03    0.44
   2  10  10    2.11    0.75
  -2 -10 -10    1.84    0.50
   2  10  11    6.83    1.13
  -2 -10 -11    6.36    0.70
   2  10  12    2.03    0.74
  -2 -10 -12    1.89    0.39
   2  10  13    1.53    0.83
   2  10  14  134.48    5.38
   2  10  15   60.20    3.52
   2  10  16   24.71    2.34
   2  10  17    0.49    0.82
   2  10  18    1.15    0.97
  -2 -11  12    5.42    1.33
  -2 -11  11   51.12    3.44
  -2 -11  10   46.32    3.26
  -2 -11   9  193.20    7.06
  -2 -11   8    6.07    1.43
  -2 -11   7  101.00    4.65
  -2 -11   6    2.09    1.00
  -2 -11   5    1.40    0.90
  -2 -11   4    4.72    1.11
  -2 -11   3    4.39    0.97
  -2 -11   2   16.08    1.67
  -2 -11   1  120.54    4.71
  -2 -11   0    9.92    1.28
   2  11   1    6.09    0.75
   2  11   1    6.14    0.47
  -2 -11  -1    5.02    0.96
   2  11   2   28.23    1.64
   2  11   2   30.54    1.28
  -2 -11  -2   26.15    1.92
   2  11   3  259.38    6.94
   2  11   3  265.87    6.25
  -2 -11  -3  264.41    7.46
   2  11   4   27.02    1.75
   2  11   4   28.02    1.47
  -2 -11  -4   26.47    1.90
   2  11   5   46.51    2.41
   2  11   5   40.10    2.31
   2  11   5   43.98    2.03
  -2 -11  -5   47.27    2.45
  -2 -11  -6    9.99    0.60
   2  11   6   10.59    1.21
   2  11   6   10.48    1.07
  -2 -11  -6    9.73    1.18
   2  11   7   47.24    2.40
   2  11   7   50.27    2.44
  -2 -11  -7   51.18    2.49
   2  11   8   42.33    2.34
  -2 -11  -8   47.80    2.31
   2  11   9  140.74    4.85
  -2 -11  -9  142.61    4.40
   2  11  10   97.25    4.04
  -2 -11 -10  104.27    3.45
   2  11  11    6.42    1.17
  -2 -11 -11    6.83    0.82
   2  11  12    5.88    1.14
  -2 -11 -12    7.58    0.74
   2  11  13    0.91    0.85
   2  11  14    0.68    0.92
   2  11  15   -2.51    1.18
   2  11  16   29.35    2.59
   2  11  17    0.36    0.91
  -2 -12  10    8.88    1.68
  -2 -12   9   11.43    1.73
  -2 -12   8   22.34    2.32
  -2 -12   7   52.03    3.42
  -2 -12   6    4.20    1.13
  -2 -12   5   19.30    2.03
  -2 -12   4   20.33    2.02
  -2 -12   3   47.71    3.05
  -2 -12   2   20.16    1.97
  -2 -12   1   44.72    2.81
  -2 -12   0    9.83    1.39
   2  12   1   31.68    1.73
   2  12   1   34.48    1.18
  -2 -12  -1   34.37    2.39
   2  12   2   -0.22    0.45
   2  12   2   -0.02    0.31
  -2 -12  -2    0.64    0.71
   2  12   3    1.74    0.65
   2  12   3    2.12    0.46
  -2 -12  -3    1.15    0.75
   2  12   4    0.17    0.55
   2  12   4    0.81    0.43
  -2 -12  -4   -0.98    0.78
  -2 -12  -5   30.96    1.34
   2  12   5   28.70    1.64
  -2 -12  -5   29.52    2.06
  -2 -12  -6    9.73    0.60
   2  12   6    9.55    1.04
  -2 -12  -6    9.27    1.21
   2  12   7    7.38    0.99
  -2 -12  -7   10.28    1.25
   2  12   8    1.77    0.67
  -2 -12  -8    2.28    0.70
   2  12   9  144.07    5.04
  -2 -12  -9  149.20    4.75
   2  12  10    8.09    1.22
  -2 -12 -10   10.34    1.08
   2  12  11   98.89    4.28
  -2 -12 -11  105.65    3.57
   2  12  12   13.26    1.68
   2  12  13   95.06    4.41
   2  12  14   12.99    1.70
   2  12  15    8.89    1.56
   2  12  16    0.94    0.83
  -2 -13   8   27.62    2.65
  -2 -13   7    1.75    1.04
  -2 -13   6    6.91    1.40
  -2 -13   5    9.94    1.60
  -2 -13   4    8.12    1.45
  -2 -13   3   14.44    1.74
  -2 -13   2    2.10    0.92
  -2 -13   1    6.94    1.32
  -2 -13   0   48.98    3.04
  -2 -13  -1   15.98    1.80
   2  13   2   70.41    2.94
  -2 -13  -2   78.63    3.76
   2  13   3  195.66    5.94
   2  13   3  207.78    5.15
  -2 -13  -3  202.68    6.68
  -2 -13  -4  110.08    3.39
   2  13   4  108.57    3.43
  -2 -13  -4  107.46    4.48
  -2 -13  -5    2.86    0.47
   2  13   5    2.60    0.63
  -2 -13  -5    3.15    0.93
   2  13   6   13.75    1.20
  -2 -13  -6   13.11    1.41
   2  13   7    6.23    0.95
  -2 -13  -7    5.55    1.00
   2  13   8   11.95    1.31
  -2 -13  -8   15.69    1.54
   2  13   9    6.26    1.04
  -2 -13  -9    4.34    0.88
   2  13  10   13.77    1.57
  -2 -13 -10   13.78    1.34
   2  13  11   33.62    2.38
   2  13  12   17.20    1.83
   2  13  13    1.69    0.92
   2  13  14   12.20    1.66
   2  13  15   96.21    4.78
   2  13  16    1.96    1.16
  -2 -14   5    6.05    1.45
  -2 -14   4   31.85    2.75
  -2 -14   3    1.75    1.02
  -2 -14   2   45.98    3.18
  -2 -14   1   -0.07    0.79
  -2 -14   0   28.03    2.43
  -2 -14  -1    0.80    0.78
  -2 -14  -2    3.07    0.96
  -2 -14  -3    1.86    0.56
  -2 -14  -3    1.24    0.80
  -2 -14  -4   63.95    3.45
  -2 -14  -5    2.05    0.90
   2  14   6   47.19    2.31
  -2 -14  -6   44.69    2.75
   2  14   7   -0.40    0.57
  -2 -14  -7   -0.06    0.72
   2  14   8  136.48    4.78
  -2 -14  -8  130.98    4.95
   2  14   9    7.62    1.21
  -2 -14  -9    9.30    1.28
   2  14  10   78.51    3.71
   2  14  11    4.90    1.12
   2  14  12    0.21    0.79
   2  14  13   29.18    2.42
   2  14  14   31.47    2.64
   2  14  15    6.35    1.39
  -2 -15   3   44.15    3.34
  -2 -15   2   35.40    2.96
  -2 -15   1   29.90    2.73
  -2 -15   0    8.05    1.19
  -2 -15   0    8.01    1.56
  -2 -15  -1    2.39    1.03
  -2 -15  -2   24.58    2.32
  -2 -15  -3   47.92    3.13
  -2 -15  -4   62.93    3.54
  -2 -15  -5    3.98    1.08
  -2 -15  -6   33.05    2.52
  -2 -15  -7   13.21    1.58
  -2 -15  -8    7.38    1.29
  -2 -15  -9    7.56    1.24
   2  15  12   52.89    3.26
   2  15  13    0.58    0.99
   2  15  14   45.34    3.23
  -2 -16   5   14.04    1.98
  -2 -16   4    3.41    1.23
  -2 -16  -1   20.01    2.26
  -2 -16  -2    3.56    1.37
  -2 -16  -3  155.47    6.33
  -2 -16  -4   32.58    2.71
  -2 -16  -5  162.17    6.34
  -2 -16  -6   17.43    2.01
  -2 -16  -7   10.03    1.56
  -2 -16  -8   17.16    1.86
  -2 -17  -4    4.18    1.19
  -2 -17  -5   33.98    2.82
  -2 -17  -6    1.86    1.02
  -2 -17  -7   86.11    4.45
   3 -15  -6   10.50    1.61
   3 -15  -5   72.87    4.05
   3 -15  -4   11.75    1.71
   3 -15  -3    1.14    0.81
   3 -15  -2    2.23    1.27
   3 -15  -1    1.06    1.10
  -3  14  10    2.58    1.08
  -3  14  10    0.32    0.85
  -3  14   9    8.24    1.48
   3 -14  -7    7.25    1.29
   3 -14  -6    0.81    0.99
   3 -14  -5   -0.68    0.84
   3 -14  -4   22.26    2.17
   3 -14  -3    5.65    1.34
   3 -14  -2   25.40    2.39
   3 -14  -1   13.32    1.83
   3 -14   0   79.13    4.31
   3 -14   1  120.97    5.60
   3 -14   2   35.53    2.97
   3 -14   3    5.49    1.36
   3 -14   4    6.00    1.32
   3 -14   5   19.03    2.00
   3 -14   6   10.24    1.58
   3 -14   7    1.82    0.91
   3 -14   8    7.04    1.42
  -3  13  11   16.16    2.08
  -3  13  11   14.71    1.88
  -3  13  10   31.10    2.77
  -3  13  10   30.18    2.56
   3 -13  -8    2.24    0.92
   3 -13  -7    4.43    1.14
   3 -13  -6   32.35    2.40
   3 -13  -5   -0.06    0.79
   3 -13  -4    1.87    0.94
   3 -13  -3    3.98    1.12
   3 -13  -2    0.34    0.79
   3 -13  -1    2.21    1.08
   3 -13   0   15.63    1.92
   3 -13   1    0.47    1.13
   3 -13   2  209.79    7.55
   3 -13   3   50.59    2.87
   3 -13   3   50.52    3.38
   3 -13   4   45.61    2.84
   3 -13   4   50.10    3.41
   3 -13   5   15.14    1.78
   3 -13   5   16.54    2.04
   3 -13   6   61.90    3.59
   3 -13   6   72.18    4.23
   3 -13   7   12.80    1.69
   3 -13   8   36.07    2.85
   3 -13   9   15.79    2.00
  -3  12  12    1.21    0.93
  -3  12  12    0.26    0.76
  -3  12  11    0.52    0.84
  -3  12  11    1.25    0.79
  -3  12  10    7.55    1.50
   3 -12  -9   56.70    2.93
   3 -12  -8   74.02    3.47
   3 -12  -7   15.10    1.57
   3 -12  -6   -0.74    0.70
   3 -12  -5   50.28    2.90
   3 -12  -4  110.41    4.60
   3 -12  -3   22.89    2.06
   3 -12  -2    2.16    0.83
   3 -12  -1   11.85    1.56
   3 -12   0  131.30    5.35
   3 -12   1   60.09    3.48
   3 -12   2    0.88    0.84
   3 -12   3   29.72    2.13
   3 -12   3   25.21    2.30
   3 -12   4   34.98    2.35
   3 -12   4   34.13    2.72
   3 -12   5    0.21    0.70
   3 -12   5    0.38    0.87
   3 -12   6   18.44    1.86
   3 -12   6   15.82    2.00
   3 -12   7    2.99    1.10
   3 -12   7    3.93    1.16
   3 -12   8  122.48    5.32
   3 -12   8  125.54    5.71
   3 -12   9    1.19    0.82
   3 -12   9    1.25    1.10
   3 -12  10   24.69    2.46
   3 -12  11    0.97    1.02
  -3  11  13   -0.29    1.03
  -3  11  12   21.50    2.43
  -3  11  12   21.50    2.02
  -3  11  11  222.65    7.99
  -3  11  11  226.08    7.34
  -3  11  10    0.80    0.86
  -3  11   9   59.44    3.31
   3 -11  -8    1.12    0.73
   3 -11  -7    9.45    1.20
   3 -11  -6    0.17    0.70
   3 -11  -5   85.63    3.73
   3 -11  -4    4.06    0.93
   3 -11  -3   24.86    2.00
   3 -11  -2    9.96    1.33
   3 -11  -1   24.70    2.06
  -3  11   0    1.41    0.63
   3 -11   0    1.94    0.97
  -3  11  -1  166.51    5.22
   3 -11   1  173.92    6.12
   3 -11   2   44.55    2.40
  -3  11  -2   40.53    2.11
   3 -11   2   42.54    2.79
   3 -11   3   57.66    2.87
  -3  11  -3   55.07    2.38
   3 -11   3   60.76    3.40
   3 -11   4   -0.57    0.69
   3 -11   4    0.47    0.79
   3 -11   5    1.14    0.67
   3 -11   5    0.23    0.81
   3 -11   6   84.26    3.92
   3 -11   6   83.66    4.30
   3 -11   7   56.32    3.23
   3 -11   7   57.98    3.58
   3 -11   8    7.22    1.28
   3 -11   8    8.87    1.52
   3 -11   9   44.61    3.21
   3 -11   9   48.80    3.36
   3 -11  10   15.05    1.90
   3 -11  10   22.41    2.31
   3 -11  11    1.09    0.98
   3 -11  11    0.17    0.89
   3 -11  12    2.54    1.29
   3 -11  12    0.45    1.02
  -3  10  14   -2.18    1.14
  -3  10  13   -0.10    0.97
  -3  10  12   -0.05    0.84
  -3  10  12    0.76    0.81
  -3  10  11   38.61    2.56
  -3  10  10  154.82    5.57
  -3  10   9   92.50    4.07
   3 -10  -8   53.18    2.60
  -3  10   8   46.35    2.37
  -3  10   7   22.94    1.69
   3 -10  -7   28.02    1.89
  -3  10   6   -0.32    0.48
   3 -10  -6    0.18    0.59
   3 -10  -5   46.61    2.53
   3 -10  -4   42.04    2.45
   3 -10  -3   75.86    3.42
   3 -10  -2   -0.95    0.79
  -3  10   1    0.91    0.47
   3 -10  -1    0.44    0.67
  -3  10   0    4.35    0.82
   3 -10   0    5.13    1.05
  -3  10  -1   42.39    2.20
   3 -10   1   40.54    2.60
  -3  10  -2    2.61    0.65
   3 -10   2    2.55    0.67
   3 -10   2    2.88    0.97
   3 -10   3   45.32    2.43
  -3  10  -3   42.69    2.01
   3 -10   3   41.81    2.69
  -3  10  -4    2.80    0.60
   3 -10   4    1.51    0.66
   3 -10   4    3.88    1.13
  -3  10  -5   12.18    0.91
   3 -10   5    9.54    1.26
   3 -10   5   11.15    1.56
   3 -10   6   13.72    1.50
   3 -10   6    9.60    1.47
   3 -10   7  258.76    7.92
   3 -10   7  262.21    8.31
   3 -10   8   26.05    2.18
   3 -10   8   25.63    2.33
   3 -10   9  176.79    6.50
   3 -10   9  187.94    6.83
   3 -10  10    5.57    1.29
   3 -10  10    9.03    1.51
   3 -10  11   -2.49    1.08
   3 -10  11   -0.83    0.92
   3 -10  12   15.74    1.92
   3 -10  12   10.03    1.66
   3 -10  13   47.38    3.38
   3 -10  13   41.91    3.15
   3 -10  14   -0.31    0.96
  -3   9  15    5.62    1.40
  -3   9  14   23.75    2.48
  -3   9  13   19.65    2.23
  -3   9  13   20.60    1.76
  -3   9  12   94.20    4.68
  -3   9  12   95.21    4.02
  -3   9  11    0.69    0.61
  -3   9  10   89.86    3.85
  -3   9   9   -0.11    0.46
  -3   9   9    0.16    0.73
  -3   9   8    9.50    1.01
  -3   9   8   11.30    1.39
  -3   9   7    2.07    0.60
   3  -9  -7    1.90    0.68
  -3   9   6   10.67    1.16
   3  -9  -6   13.71    1.30
  -3   9   5    4.83    0.85
   3  -9  -5    5.20    0.91
  -3   9   4  148.49    4.84
   3  -9  -4  148.07    4.87
  -3   9   3  159.43    5.15
   3  -9  -3  150.57    4.99
  -3   9   3  145.99    4.92
  -3   9   2  120.69    4.28
   3  -9  -2  120.07    4.37
  -3   9   1   35.40    2.06
   3  -9  -1   35.95    2.25
   3  -9   0    4.14    0.90
   3  -9   1   34.35    2.21
   3  -9   2    3.24    0.74
   3  -9   2    3.78    0.87
   3  -9   3   60.74    2.73
   3  -9   3   59.40    3.09
   3  -9   4    0.77    0.63
   3  -9   4    0.83    0.80
   3  -9   5   14.50    1.45
   3  -9   5   15.70    1.68
   3  -9   6    2.43    0.86
   3  -9   6    1.50    0.76
  -3   9  -7    2.36    0.40
   3  -9   7    3.71    0.93
   3  -9   7    3.23    1.07
  -3   9  -8   40.96    1.12
   3  -9   8   45.53    2.77
  -3   9  -8   43.91    2.13
   3  -9   8   51.88    3.04
   3  -9   9   68.56    3.55
  -3   9  -9   59.72    2.64
   3  -9   9   68.58    3.64
   3  -9  10   17.33    1.89
   3  -9  10   15.02    1.76
   3  -9  11   50.05    3.23
   3  -9  11   56.12    3.37
   3  -9  12   -0.02    0.81
   3  -9  12    2.18    0.90
   3  -9  13   22.83    2.35
   3  -9  13   20.64    2.18
   3  -9  14   -0.44    0.89
   3  -9  14    0.73    0.82
   3  -9  15  122.84    5.60
   3  -9  16    0.48    0.89
  -3   8  15    7.71    1.54
  -3   8  14    5.69    1.26
  -3   8  13    1.95    1.16
  -3   8  13   -0.03    0.58
  -3   8  12   13.98    1.81
  -3   8  12   12.96    1.36
  -3   8  11   47.41    2.62
  -3   8  10  165.20    5.35
  -3   8  10  152.80    4.41
  -3   8   9  102.93    3.93
  -3   8   9   89.61    3.16
  -3   8   8   48.46    2.58
  -3   8   8   45.71    2.16
  -3   8   7    2.25    0.60
   3  -8  -7    4.24    0.80
  -3   8   6   84.72    3.19
   3  -8  -6   90.72    3.31
   3  -8  -5   16.82    1.36
  -3   8   5   13.31    1.21
  -3   8   4  184.24    5.72
  -3   8   4  171.93    5.23
   3  -8  -4  178.28    5.31
  -3   8   3   15.57    1.31
   3  -8  -3   13.55    1.29
   3  -8  -2   39.30    2.17
  -3   8   2   38.83    2.14
  -3   8   1    1.28    0.63
   3  -8  -1    1.62    0.81
   3  -8   0    0.95    0.72
  -3   8   0    0.91    0.60
  -3   8  -1   14.23    1.35
   3  -8   1   13.18    1.43
   3  -8   2  235.59    6.27
   3  -8   2  231.29    6.80
   3  -8   3   40.92    2.12
   3  -8   3   38.23    2.31
   3  -8   4  178.06    5.39
   3  -8   4  175.08    5.78
   3  -8   5   63.90    2.93
   3  -8   5   66.55    3.25
   3  -8   6    4.82    0.99
   3  -8   6    5.77    1.08
   3  -8   7    4.38    0.99
   3  -8   7    3.75    0.92
  -3   8  -8  144.93    3.37
   3  -8   8  150.33    5.31
  -3   8  -8  134.19    4.35
   3  -8   8  148.66    5.38
   3  -8   9    7.85    1.24
  -3   8  -9    5.63    0.82
   3  -8   9    9.79    1.43
   3  -8  10    4.78    1.13
  -3   8 -10    5.03    0.77
   3  -8  10    4.14    1.12
   3  -8  11   33.88    2.52
  -3   8 -11   32.91    1.95
   3  -8  11   28.92    2.34
   3  -8  12   23.66    2.22
   3  -8  12   28.87    2.40
   3  -8  13   61.19    3.72
   3  -8  13   63.27    3.58
   3  -8  14   43.33    3.18
   3  -8  14   45.90    3.08
   3  -8  15   14.03    1.92
   3  -8  15   12.57    1.76
   3  -8  16   18.88    2.15
   3  -8  17    9.17    1.56
   3  -8  18    1.85    1.22
  -3   7  16    9.45    1.67
  -3   7  15   51.87    3.47
  -3   7  14    0.42    0.94
  -3   7  14    1.25    0.53
  -3   7  13    9.56    1.56
  -3   7  13   14.24    1.32
  -3   7  12   16.51    1.84
  -3   7  12   14.57    1.38
  -3   7  11    2.40    0.24
  -3   7  11    1.97    0.59
  -3   7  11    2.81    0.50
  -3   7  10    6.51    0.96
  -3   7  10    7.08    0.75
  -3   7   9   79.49    3.28
  -3   7   9   76.20    2.68
  -3   7   8    7.33    1.03
  -3   7   8    7.34    0.81
  -3   7   7  115.53    4.07
  -3   7   7  109.26    3.52
  -3   7   6    9.99    0.97
   3  -7  -6   10.44    1.04
  -3   7   5   15.72    1.52
  -3   7   5   18.13    1.27
   3  -7  -5   17.60    1.31
  -3   7   4   33.94    1.81
   3  -7  -4   33.94    1.84
  -3   7   3  333.13    8.20
   3  -7  -3  327.79    8.21
   3  -7  -2  360.95    8.97
  -3   7   2  374.00    9.00
   3  -7  -1    0.51    0.54
  -3   7   1    1.21    0.59
   3  -7   0   55.82    2.63
  -3   7   0   60.32    2.65
  -3   7  -1   18.85    1.47
   3  -7   1   18.27    1.51
   3  -7   2   61.07    2.45
   3  -7   2   55.69    2.70
  -3   7  -2   60.67    2.74
   3  -7   3   18.68    1.35
  -3   7  -3   19.52    1.53
   3  -7   3   16.72    1.49
   3  -7   4  158.61    4.87
  -3   7  -4  162.51    5.19
   3  -7   4  157.80    5.18
   3  -7   5   14.88    1.36
   3  -7   5   16.66    1.54
   3  -7   6   18.72    1.58
   3  -7   6   21.78    1.76
   3  -7   7   20.33    1.69
   3  -7   7   24.54    1.93
   3  -7   8   64.77    3.15
  -3   7  -8   64.35    1.90
  -3   7  -8   61.77    2.58
   3  -7   8   66.07    3.21
   3  -7   9   12.27    1.41
  -3   7  -9   10.07    0.60
  -3   7  -9   10.16    1.01
   3  -7   9   10.59    1.35
   3  -7  10  269.24    7.98
  -3   7 -10  258.34    5.50
  -3   7 -10  259.69    6.95
   3  -7  10  277.09    7.96
   3  -7  11   25.52    2.12
  -3   7 -11   21.73    1.55
   3  -7  11   26.08    2.09
   3  -7  12    0.25    0.81
  -3   7 -12    0.20    0.50
   3  -7  12    0.84    0.78
   3  -7  13   21.13    2.13
   3  -7  13   23.87    2.08
   3  -7  14  100.28    4.80
   3  -7  14   94.61    4.38
   3  -7  15    0.90    1.00
   3  -7  15   -1.54    0.96
   3  -7  16   39.84    3.11
   3  -7  16   38.28    2.78
   3  -7  17   -0.34    0.80
   3  -7  18    0.59    0.94
  -3   6  16    7.11    1.50
  -3   6  15  190.32    7.13
  -3   6  14   56.54    3.48
  -3   6  14   54.65    2.48
  -3   6  13  135.25    5.49
  -3   6  13  130.70    4.34
  -3   6  12    1.81    1.05
  -3   6  12    0.66    0.54
  -3   6  11    0.89    0.61
  -3   6  11    0.32    0.31
  -3   6  10    1.92    0.62
  -3   6  10    2.86    0.49
  -3   6   9  103.39    3.78
  -3   6   9  102.67    3.11
  -3   6   8    1.04    0.40
  -3   6   8    0.57    0.52
  -3   6   7    1.81    0.64
  -3   6   7    1.22    0.39
  -3   6   6    0.87    0.25
  -3   6   6    0.42    0.51
  -3   6   6    0.24    0.35
  -3   6   5   29.34    1.06
   3  -6  -5   28.41    1.57
  -3   6   5   26.34    1.50
  -3   6   4    2.05    0.31
   3  -6  -4    0.67    0.46
  -3   6   4    2.18    0.51
  -3   6   3  301.58    6.63
  -3   6   3  305.39    7.47
   3  -6  -3  308.10    7.52
  -3   6   2    2.85    0.42
  -3   6   2    2.42    0.56
   3  -6  -2    2.38    0.63
   3  -6  -1   93.93    3.26
  -3   6   1   90.56    3.22
  -3   6   0   22.62    1.51
   3  -6   0   23.49    1.53
   3  -6   1  237.94    6.45
  -3   6  -1  243.18    6.44
   3  -6   2  112.00    3.48
   3  -6   2  110.01    3.79
  -3   6  -2  108.58    3.74
   3  -6   3  259.58    6.59
   3  -6   3  256.41    6.94
  -3   6  -3  261.32    6.93
   3  -6   4  118.21    3.90
   3  -6   4  125.28    4.20
  -3   6  -4  123.15    4.14
   3  -6   5  185.94    5.45
  -3   6  -5  193.96    5.64
   3  -6   5  184.94    5.63
   3  -6   6   63.55    2.85
  -3   6  -6   67.08    2.92
   3  -6   6   64.97    2.96
   3  -6   7   26.07    1.86
   3  -6   7   28.53    1.93
  -3   6  -7   25.99    1.78
  -3   6  -8   29.52    1.19
   3  -6   8   31.16    2.03
  -3   6  -8   29.02    1.65
   3  -6   8   34.22    2.14
   3  -6   9  192.51    6.09
  -3   6  -9  191.68    4.40
  -3   6  -9  178.04    5.26
   3  -6   9  188.84    5.95
  -3   6 -10   11.42    0.69
   3  -6  10   11.93    1.43
  -3   6 -10    9.95    1.03
   3  -6  10   11.17    1.33
  -3   6 -11    0.81    0.32
   3  -6  11    1.60    0.93
  -3   6 -11    1.73    0.60
   3  -6  11    1.69    0.90
  -3   6 -12   18.14    0.91
   3  -6  12   19.98    1.92
  -3   6 -12   18.38    1.49
   3  -6  12   15.68    1.58
   3  -6  13   -0.12    1.88
   3  -6  13    1.76    0.88
   3  -6  14   26.68    2.38
   3  -6  14   21.96    1.97
   3  -6  15   37.03    2.85
   3  -6  15   32.61    2.42
   3  -6  16   77.81    4.31
   3  -6  16   74.64    3.81
   3  -6  17   -1.24    1.16
   3  -6  17   -0.83    1.02
   3  -6  18    1.16    0.85
  -3   5  17    1.36    1.03
  -3   5  16    3.98    1.05
  -3   5  15   42.42    3.01
  -3   5  14   75.89    3.99
  -3   5  14   74.76    2.89
  -3   5  13   69.90    3.63
  -3   5  13   69.99    2.71
  -3   5  12  479.60   12.56
  -3   5  12  474.28   11.16
  -3   5  12  481.79   10.05
  -3   5  11   10.12    1.04
  -3   5  11   11.52    0.80
  -3   5  10    1.59    0.58
  -3   5  10    0.32    0.30
  -3   5   9   99.28    3.49
  -3   5   9   95.09    2.88
  -3   5   8  421.88    9.85
  -3   5   8  397.80    9.00
  -3   5   7   75.71    2.93
  -3   5   7   73.00    2.48
  -3   5   6    1.12    0.64
  -3   5   6    0.68    0.37
  -3   5   5   12.04    0.94
  -3   5   5   13.92    1.16
  -3   5   4  217.66    5.53
   3  -5  -4  218.44    5.60
  -3   5   3  626.90   12.88
  -3   5   3  628.05   13.59
   3  -5  -3  651.65   13.68
  -3   5   2  220.26    5.14
  -3   5   2  227.24    5.77
   3  -5  -2  229.09    5.79
  -3   5   1  119.60    3.24
   3  -5  -1  126.92    3.77
  -3   5   1  121.26    3.70
  -3   5   0   41.98    1.66
   3  -5   0   45.04    2.05
  -3   5   0   44.62    1.99
  -3   5  -1  102.49    3.40
   3  -5   1  103.01    3.43
   3  -5   2    0.31    0.46
  -3   5  -2    1.20    0.51
   3  -5   2    0.68    0.67
   3  -5   3  304.85    7.39
   3  -5   3  301.80    7.66
  -3   5  -3  315.21    7.71
   3  -5   4  220.80    5.94
   3  -5   4  228.61    6.17
  -3   5  -4  235.13    6.20
   3  -5   5  494.04   11.40
   3  -5   5  490.35   11.54
  -3   5  -5  508.72   11.55
   3  -5   6   26.99    1.72
   3  -5   6   24.59    1.67
  -3   5  -6   27.55    1.71
   3  -5   7    1.50    0.59
  -3   5  -7    0.60    0.62
   3  -5   7    0.68    0.59
  -3   5  -8    0.93    0.32
   3  -5   8   -0.03    0.59
  -3   5  -8    0.56    0.45
  -3   5  -8    0.17    0.47
   3  -5   8    0.98    0.70
   3  -5   9  411.72   10.52
  -3   5  -9  417.55    8.93
  -3   5  -9  408.37    9.83
  -3   5  -9  426.21   10.30
   3  -5   9  438.72   10.48
   3  -5  10   18.45    1.68
  -3   5 -10   17.40    0.95
  -3   5 -10   16.97    1.31
   3  -5  10   16.85    1.53
  -3   5 -10   19.18    1.56
  -3   5 -11    3.73    0.51
   3  -5  11    3.33    0.83
  -3   5 -11    3.67    0.76
   3  -5  11    4.32    0.93
  -3   5 -12    9.00    0.75
   3  -5  12    9.60    1.37
  -3   5 -12    9.26    1.10
   3  -5  12   10.70    1.23
  -3   5 -13    3.12    0.53
   3  -5  13    2.89    0.96
   3  -5  13    4.20    1.00
   3  -5  14   12.97    1.70
   3  -5  14   11.87    1.42
   3  -5  15   82.98    4.15
   3  -5  15   68.83    3.44
   3  -5  16    8.35    1.47
   3  -5  16   10.66    1.38
   3  -5  17   32.36    2.74
   3  -5  17   34.13    2.46
   3  -5  18   16.02    2.03
   3  -5  18    9.42    1.41
  -3   4  17    7.39    1.34
  -3   4  16   14.79    1.91
  -3   4  15   -0.35    0.89
  -3   4  14  133.70    5.43
  -3   4  14  131.20    4.06
  -3   4  13    1.72    0.35
  -3   4  13    3.46    1.06
  -3   4  13    2.33    0.58
  -3   4  12   13.89    1.58
  -3   4  12   14.10    1.17
  -3   4  12   14.54    0.85
  -3   4  11   15.20    1.20
  -3   4  11   15.19    0.90
  -3   4  10   13.21    1.11
  -3   4  10   13.33    0.85
  -3   4   9    0.51    0.45
  -3   4   9    0.33    0.30
  -3   4   8    1.93    0.71
  -3   4   8    2.33    0.60
  -3   4   8    1.52    0.36
  -3   4   7    4.32    0.74
  -3   4   7    4.01    0.55
  -3   4   6  283.06    7.09
  -3   4   6  281.20    6.58
  -3   4   5   39.35    1.92
  -3   4   5   40.12    1.67
  -3   4   4    1.72    0.45
  -3   4   4    1.40    0.62
  -3   4   3   12.13    0.94
   3  -4  -3   12.19    0.99
   3  -4  -2 2819.90   54.80
  -3   4   2 2792.77   54.76
  -3   4   1  703.51   14.53
  -3   4   1  709.85   15.06
   3  -4  -1  738.87   15.12
  -3   4   0  655.10   13.66
   3  -4   0  676.96   14.15
  -3   4   0  662.58   14.12
  -3   4  -1    1.09    0.40
  -3   4  -1    1.14    0.48
   3  -4   1    1.15    0.60
  -3   4  -2  281.37    6.68
   3  -4   2  289.75    7.02
  -3   4  -2  289.01    6.98
   3  -4   3  109.56    3.33
  -3   4  -3  105.51    3.42
   3  -4   3  109.60    3.50
   3  -4   4  114.14    3.57
  -3   4  -4  116.12    3.64
   3  -4   4  116.83    3.68
   3  -4   5   60.03    2.51
   3  -4   5   67.50    2.63
  -3   4  -5   67.37    2.60
   3  -4   6    5.92    0.88
  -3   4  -6    6.59    0.83
   3  -4   6    5.65    0.88
   3  -4   7    0.59    0.55
  -3   4  -7    0.86    0.53
   3  -4   7    0.34    0.55
  -3   4  -8   28.71    1.24
   3  -4   8   28.54    1.82
  -3   4  -8   26.65    1.54
  -3   4  -8   28.03    1.72
   3  -4   8   28.99    1.77
   3  -4   9   84.26    3.46
  -3   4  -9   83.67    2.51
  -3   4  -9   82.48    3.03
  -3   4  -9   83.47    3.19
   3  -4   9   86.11    3.28
  -3   4 -10   36.05    1.51
   3  -4  10   35.23    2.19
  -3   4 -10   37.29    1.97
  -3   4 -10   38.63    2.08
   3  -4  10   36.32    2.07
  -3   4 -11  169.38    4.41
   3  -4  11  174.07    5.72
  -3   4 -11  170.84    5.19
  -3   4 -11  184.23    5.48
   3  -4  11  169.48    5.30
   3  -4  12   14.13    1.55
  -3   4 -12   14.50    1.00
  -3   4 -12   13.93    1.28
  -3   4 -12   14.32    1.35
   3  -4  12   13.95    1.32
  -3   4 -13   19.90    1.24
   3  -4  13   21.07    1.92
   3  -4  13   21.05    1.67
   3  -4  14    2.30    0.94
  -3   4 -14   -0.38    0.41
   3  -4  14    1.28    0.72
   3  -4  15  148.68    5.76
  -3   4 -15  141.40    4.55
   3  -4  15  143.94    5.03
   3  -4  16    0.87    0.96
   3  -4  16    0.03    0.59
   3  -4  17   32.26    2.72
   3  -4  17   25.99    1.97
   3  -4  18    0.04    1.03
   3  -4  18    1.17    0.69
   3  -4  19    3.31    1.14
  -3   3  18    0.88    0.92
  -3   3  17    9.20    1.68
  -3   3  16    5.99    1.26
  -3   3  15   37.00    2.72
  -3   3  15   37.66    1.83
  -3   3  14   66.38    3.54
  -3   3  14   64.08    1.98
  -3   3  14   69.75    2.67
  -3   3  13   83.15    3.96
  -3   3  13   84.01    2.45
  -3   3  13   87.48    3.02
  -3   3  13   80.99    2.45
  -3   3  12   47.62    1.71
  -3   3  12   50.56    2.90
  -3   3  12   49.00    2.14
  -3   3  12   44.68    1.70
  -3   3  11   34.71    2.33
  -3   3  11   34.03    1.75
  -3   3  11   31.52    1.38
  -3   3  10   80.28    2.83
  -3   3  10   72.78    2.35
  -3   3   9  213.61    6.13
  -3   3   9  201.88    5.29
  -3   3   9  180.63    4.69
  -3   3   8  138.91    4.05
  -3   3   8  130.66    3.56
  -3   3   7  135.37    3.99
  -3   3   7  127.87    3.51
  -3   3   6   85.36    2.94
  -3   3   6   82.94    2.57
  -3   3   5   32.38    1.66
  -3   3   5   30.48    1.37
  -3   3   4    8.23    0.73
  -3   3   4    8.48    0.89
  -3   3   3   53.58    2.13
  -3   3   3   50.75    1.89
  -3   3   2   42.06    1.84
  -3   3   2   42.08    1.71
   3  -3  -2   39.33    1.71
  -3   3   1   16.23    1.05
   3  -3  -1   15.82    1.07
  -3   3   0    9.15    0.71
   3  -3   0   10.56    0.93
  -3   3   0   10.74    0.87
  -3   3  -1   12.04    0.82
  -3   3  -1   10.29    0.90
   3  -3   1   11.47    0.97
  -3   3  -2   24.36    1.24
   3  -3   2   24.47    1.38
  -3   3  -2   23.22    1.32
   3  -3   3   10.24    0.93
  -3   3  -3    8.16    0.80
  -3   3  -3    8.92    0.89
   3  -3   3    9.33    0.94
   3  -3   4  383.82    8.77
   3  -3   4  391.29    8.88
  -3   3  -4  386.08    8.80
   3  -3   5   69.26    2.59
  -3   3  -5   72.66    2.57
   3  -3   5   66.70    2.52
   3  -3   6   28.00    1.64
   3  -3   6   27.79    1.56
  -3   3  -6   28.43    1.54
   3  -3   7   30.89    1.77
  -3   3  -7   28.63    1.55
   3  -3   7   30.34    1.66
  -3   3  -7   28.91    1.58
  -3   3  -8  219.66    5.20
   3  -3   8  223.56    6.10
  -3   3  -8  212.47    5.69
   3  -3   8  215.74    5.81
  -3   3  -8  220.81    5.81
   3  -3   9   14.46    1.32
  -3   3  -9   13.27    0.91
  -3   3  -9   13.32    1.11
  -3   3  -9   13.67    1.15
   3  -3   9   15.13    1.22
   3  -3  10  201.70    5.97
  -3   3 -10  196.83    4.94
  -3   3 -10  199.31    5.58
   3  -3  10  198.12    5.55
  -3   3 -10  194.15    5.45
  -3   3 -11    9.23    0.80
   3  -3  11    8.77    1.17
  -3   3 -11    7.32    0.90
  -3   3 -11    9.01    0.98
   3  -3  11    6.44    0.89
   3  -3  12   77.39    3.50
  -3   3 -12   80.71    2.73
  -3   3 -12   78.80    3.26
  -3   3 -12   80.09    3.15
   3  -3  12   81.05    3.16
   3  -3  13   28.76    2.14
  -3   3 -13   27.73    1.52
  -3   3 -13   27.04    1.73
   3  -3  13   23.78    1.67
  -3   3 -14    1.89    0.65
  -3   3 -14    0.54    0.44
   3  -3  14    1.34    0.81
  -3   3 -14    0.75    0.44
   3  -3  14    2.03    0.72
  -3   3 -15   50.48    2.54
  -3   3 -15   48.04    2.26
   3  -3  15   49.64    3.02
  -3   3 -15   51.58    2.23
   3  -3  15   49.88    2.56
   3  -3  16   20.49    2.08
   3  -3  16   22.95    1.73
   3  -3  17   10.16    1.49
   3  -3  17   12.14    1.32
   3  -3  18    8.10    1.48
   3  -3  18    6.86    1.03
   3  -3  19   26.93    2.53
   3  -3  20    0.15    0.94
  -3   2  18    7.71    1.60
  -3   2  17   -0.86    1.00
  -3   2  16    1.98    0.96
  -3   2  15   31.33    2.45
  -3   2  15   28.09    1.56
  -3   2  14    1.15    0.89
  -3   2  14    1.16    0.37
  -3   2  14    0.51    0.41
  -3   2  13   22.55    1.92
  -3   2  13   23.34    1.19
  -3   2  13   24.58    1.46
  -3   2  12    0.65    0.33
  -3   2  12   -0.07    0.68
  -3   2  12    0.34    0.41
  -3   2  11   10.97    0.82
  -3   2  11   12.27    1.43
  -3   2  11   12.90    1.03
  -3   2  10    1.61    0.58
  -3   2  10    1.55    0.49
   3  -2 -10    1.54    0.51
  -3   2   9    7.15    1.05
  -3   2   9    8.21    0.82
   3  -2  -9    7.28    0.79
  -3   2   8    1.82    0.50
   3  -2  -8    1.80    0.47
  -3   2   7  946.17   19.10
   3  -2  -7  893.11   18.99
  -3   2   6   70.62    2.51
   3  -2  -6   67.04    2.44
  -3   2   5  164.02    4.27
  -3   2   5  138.66    3.81
  -3   2   4    0.47    0.47
  -3   2   4    0.34    0.38
  -3   2   3    3.48    0.55
  -3   2   3    3.04    0.66
  -3   2   2  177.43    4.49
  -3   2   2  163.85    4.22
  -3   2   1   19.10    1.17
  -3   2   1   18.23    1.01
  -3   2   0 1347.14   27.24
   3  -2   0 1406.63   27.35
  -3   2  -1 1086.14   22.17
   3  -2   1 1126.79   22.23
  -3   2  -2  145.93    3.75
   3  -2   2  145.80    3.92
  -3   2  -2  146.83    3.87
  -3   2  -3   12.11    0.90
   3  -2   3   14.84    1.06
  -3   2  -3   14.47    0.98
   3  -2   4  115.98    3.35
  -3   2  -4  115.78    3.34
   3  -2   4  113.95    3.33
  -3   2  -4  113.29    3.30
  -3   2  -5  261.88    6.45
   3  -2   5  268.71    6.49
   3  -2   5  263.92    6.35
  -3   2  -5  267.01    6.32
   3  -2   6  779.88   16.34
   3  -2   6  781.03   16.16
  -3   2  -6  757.94   16.08
  -3   2  -7    9.22    0.75
   3  -2   7    9.29    1.00
  -3   2  -7    8.98    0.88
   3  -2   7    8.85    0.92
  -3   2  -7    8.79    0.83
   3  -2   8    5.16    0.82
  -3   2  -8    6.21    0.63
  -3   2  -8    5.28    0.73
  -3   2  -8    6.43    0.75
   3  -2   8    6.74    0.81
  -3   2  -9   67.53    2.30
   3  -2   9   67.74    2.85
  -3   2  -9   68.89    2.67
  -3   2  -9   66.75    2.51
   3  -2   9   70.95    2.59
  -3   2 -10  438.41    9.79
   3  -2  10  447.39   10.71
  -3   2 -10  449.94   10.42
   3  -2  10  449.69   10.17
  -3   2 -10  430.85   10.04
  -3   2 -11    0.21    0.39
   3  -2  11   -0.23    0.57
  -3   2 -11    0.52    0.61
  -3   2 -11   -0.09    0.39
   3  -2  11    0.17    0.44
  -3   2 -12   81.37    2.84
   3  -2  12   81.56    3.48
  -3   2 -12   81.02    3.30
   3  -2  12   78.62    2.97
  -3   2 -12   81.84    3.01
  -3   2 -13    1.64    0.55
   3  -2  13    1.48    0.69
  -3   2 -13    0.88    0.52
   3  -2  13    0.43    0.44
  -3   2 -14    0.05    0.54
  -3   2 -14    0.50    0.53
   3  -2  14   -0.67    0.75
  -3   2 -14   -0.08    0.34
   3  -2  14   -0.23    0.48
  -3   2 -15    1.67    0.58
   3  -2  15    0.04    0.80
  -3   2 -15    0.27    0.53
  -3   2 -15    0.42    0.34
   3  -2  15    1.67    0.64
   3  -2  16    7.75    1.32
  -3   2 -16    3.44    0.70
  -3   2 -16    5.16    0.86
   3  -2  16    7.70    1.00
   3  -2  17    5.00    1.15
   3  -2  17    4.69    0.82
   3  -2  18   21.02    2.17
   3  -2  18   19.52    1.51
   3  -2  19    4.98    1.21
   3  -2  20    0.17    0.93
  -3   1  19   14.02    2.00
  -3   1  18   32.65    2.76
  -3   1  17    7.37    1.50
  -3   1  16   -0.50    0.80
  -3   1  15    1.12    0.89
  -3   1  14   55.09    3.13
   3  -1 -14   52.69    2.33
  -3   1  14   55.66    2.34
  -3   1  14   57.29    2.17
  -3   1  13  119.91    4.73
  -3   1  13  125.62    3.60
  -3   1  13  123.67    3.86
   3  -1 -13  118.02    3.86
  -3   1  12   80.08    2.68
  -3   1  12   84.58    3.71
   3  -1 -12   79.41    2.95
  -3   1  12   81.80    2.88
  -3   1  11    2.51    0.51
  -3   1  11    3.72    0.93
  -3   1  11    2.45    0.72
  -3   1  11    2.83    0.62
   3  -1 -11    2.56    0.58
  -3   1  10    6.46    0.68
  -3   1  10    6.23    1.05
  -3   1  10    7.95    1.05
  -3   1  10    8.15    0.86
   3  -1 -10    6.53    0.77
  -3   1   9  196.10    5.79
   3  -1  -9  187.58    5.18
  -3   1   9  200.20    5.19
  -3   1   8    8.93    0.83
   3  -1  -8    8.71    0.85
  -3   1   7   22.03    1.29
   3  -1  -7   21.28    1.30
  -3   1   6   36.36    1.67
   3  -1  -6   38.14    1.72
  -3   1   5  196.13    5.00
   3  -1  -5  195.91    5.03
  -3   1   4    1.66    0.51
   3  -1  -4    1.28    0.45
   3  -1  -3  274.19    6.49
  -3   1   3  283.95    6.56
  -3   1   2  104.53    3.03
   3  -1  -2   99.53    2.94
  -3   1   1    8.95    0.90
   3  -1  -1    7.06    0.70
  -3   1   1    6.22    0.67
  -3   1   0    0.28    0.42
  -3   1   0    1.65    0.61
  -3   1  -1  281.14    6.40
  -3   1  -1  279.11    6.30
   3  -1   2    1.89    0.60
  -3   1  -2    1.73    0.59
  -3   1  -2    1.69    0.48
  -3   1  -3  682.97   14.15
  -3   1  -3  687.11   14.13
   3  -1   3  693.66   14.17
  -3   1  -4   17.30    1.08
  -3   1  -4   19.55    1.07
   3  -1   4   17.37    1.10
   3  -1   5  510.46   10.92
  -3   1  -5  494.15   10.84
  -3   1  -5  506.56   10.69
   3  -1   5  497.31   10.68
  -3   1  -6   93.05    3.01
   3  -1   6   96.23    3.07
  -3   1  -6   94.14    2.97
   3  -1   6   92.96    2.82
  -3   1  -6   95.28    2.80
  -3   1  -7  237.99    5.66
   3  -1   7  243.74    6.12
  -3   1  -7  237.11    5.98
  -3   1  -7  242.25    5.74
   3  -1   7  240.84    5.77
   3  -1   8    1.83    0.68
  -3   1  -8    0.98    0.43
  -3   1  -8    0.39    0.46
   3  -1   8    0.27    0.43
  -3   1  -8    0.68    0.40
   3  -1   9  158.17    4.71
  -3   1  -9  155.81    4.21
  -3   1  -9  153.82    4.56
   3  -1   9  157.17    4.24
  -3   1  -9  158.35    4.21
  -3   1 -10    0.43    0.41
   3  -1  10    1.71    0.74
  -3   1 -10    0.82    0.46
  -3   1 -10    1.91    0.51
   3  -1  10    1.75    0.49
  -3   1 -11   65.58    2.49
   3  -1  11   64.68    2.89
  -3   1 -11   69.41    2.89
   3  -1  11   70.33    2.50
  -3   1 -11   63.34    2.35
   3  -1  12  219.96    6.44
  -3   1 -12  214.02    5.79
  -3   1 -12  219.37    6.33
  -3   1 -12  220.59    5.68
   3  -1  12  224.15    5.71
  -3   1 -13   63.71    2.45
  -3   1 -13   68.54    2.71
   3  -1  13   65.78    3.10
  -3   1 -13   65.47    2.10
   3  -1  13   65.30    2.51
  -3   1 -14  283.94    7.24
   3  -1  14  300.24    8.34
  -3   1 -14  300.22    7.66
  -3   1 -14  291.02    6.59
   3  -1  14  309.20    7.37
  -3   1 -15    2.13    0.64
  -3   1 -15    0.41    0.49
   3  -1  15    2.60    0.91
  -3   1 -15    0.78    0.31
   3  -1  15    1.34    0.44
  -3   1 -16  142.29    4.82
   3  -1  16  152.26    5.54
  -3   1 -16  142.82    4.37
   3  -1  16  150.06    4.44
   3  -1  17    8.90    1.43
   3  -1  17   10.02    1.02
   3  -1  18  103.10    4.66
   3  -1  19    0.03    0.84
   3  -1  20   12.63    1.86
   3  -1  21    3.26    1.31
  -3   0  19    9.37    1.71
  -3   0  18   30.03    2.58
  -3   0  17    4.61    1.13
  -3   0  16   11.68    1.66
  -3   0  15   23.20    2.10
  -3   0  15   24.15    1.43
  -3   0  14   19.75    1.85
   3   0 -14   17.92    1.41
  -3   0  14   19.86    1.31
  -3   0  13   30.76    1.60
  -3   0  13   27.35    2.07
  -3   0  13   28.45    1.66
   3   0 -13   28.84    1.74
  -3   0  12   44.60    2.57
  -3   0  12   44.61    1.98
   3   0 -12   45.11    2.20
  -3   0  12   47.29    2.14
  -3   0  12   52.74    2.60
  -3   0  11    1.35    0.46
  -3   0  11    1.63    0.74
   3   0 -11    2.20    0.59
  -3   0  11    1.01    0.48
  -3   0  11    1.16    0.51
  -3   0  10    1.23    0.46
  -3   0  10    1.55    0.69
  -3   0  10    1.04    0.44
   3   0 -10    1.63    0.53
  -3   0  10    0.57    0.53
  -3   0   9   53.30    2.57
  -3   0   9   51.42    2.03
  -3   0   9   51.08    2.42
   3   0  -9   50.69    2.19
  -3   0   9   53.27    2.19
  -3   0   8  362.79    8.34
   3   0  -8  354.12    8.43
  -3   0   7    5.63    0.70
   3   0  -7    5.61    0.73
  -3   0   6   16.73    1.10
   3   0  -6   16.80    1.14
   3   0  -5   44.53    1.86
  -3   0   5   42.98    1.79
   3   0  -4   25.74    1.35
  -3   0   4   23.15    1.28
   3   0  -3    1.54    0.46
  -3   0   3    1.84    0.58
  -3   0   2    3.16    0.65
   3   0  -2    2.76    0.54
   3   0  -1  695.51   14.19
  -3   0   1  678.42   14.15
   3   0   0   10.71    0.80
  -3   0   0    9.34    0.82
  -3   0  -1    1.50    0.53
   3   0   1    1.39    0.48
  -3   0  -2    7.14    0.72
   3   0   2    6.01    0.62
  -3   0  -2    7.64    0.68
  -3   0  -3   75.90    2.15
  -3   0  -3   69.58    2.16
  -3   0  -4    8.87    0.74
  -3   0  -4    8.06    0.66
  -3   0  -4    9.28    0.71
   3   0   4    8.62    0.75
  -3   0  -5  323.04    7.32
  -3   0  -5  326.02    6.92
  -3   0  -5  318.45    7.08
   3   0   5  329.60    7.14
  -3   0  -6   76.09    2.35
   3   0   6   76.35    2.55
  -3   0  -6   73.29    2.48
  -3   0  -6   76.35    2.50
  -3   0  -6   73.77    2.24
  -3   0  -6   75.38    2.08
   3   0   6   72.93    2.26
  -3   0  -7  932.27   18.96
   3   0   7  934.84   19.23
  -3   0  -7  923.48   19.21
   3   0   7  947.16   18.77
  -3   0  -7  916.41   18.69
   3   0   8   10.56    0.99
  -3   0  -8    9.47    0.85
  -3   0  -8    9.28    0.90
  -3   0  -8    9.26    0.70
   3   0   8    9.20    0.74
   3   0   9  175.70    4.86
  -3   0  -9  169.07    4.55
  -3   0  -9  167.29    4.83
  -3   0  -9  166.66    4.24
   3   0   9  171.64    4.29
   3   0  10    2.34    0.67
  -3   0 -10    4.19    0.67
  -3   0 -10    2.71    0.63
   3   0  10    2.93    0.51
  -3   0 -10    2.56    0.45
  -3   0 -11  201.35    5.42
   3   0  11  207.07    5.79
   3   0  11  209.74    5.92
  -3   0 -11  207.56    5.83
  -3   0 -11  183.40    4.82
   3   0  11  205.41    5.01
  -3   0 -12   14.58    1.32
   3   0  12   13.40    1.40
   3   0  12   15.39    1.36
  -3   0 -12   11.00    1.01
  -3   0 -12   13.84    0.69
  -3   0 -12   14.84    0.97
   3   0  12   14.14    0.96
  -3   0 -13   53.30    2.02
   3   0  13   55.97    2.80
   3   0  13   53.41    2.67
  -3   0 -13   53.55    2.44
  -3   0 -13   53.20    1.54
   3   0  13   54.39    2.06
  -3   0 -14   41.46    1.82
   3   0  14   45.78    2.62
  -3   0 -14   45.83    2.31
   3   0  14   45.18    2.54
  -3   0 -14   44.83    1.30
   3   0  14   47.89    1.94
   3   0  15  139.85    5.05
  -3   0 -15  132.01    3.72
  -3   0 -15  138.57    4.54
   3   0  15  143.59    4.95
  -3   0 -15  117.21    2.73
  -3   0 -15  123.78    2.74
   3   0  15  143.06    3.83
   3   0  16   36.18    2.42
  -3   0 -16   37.10    2.23
   3   0  16   36.96    2.55
  -3   0 -16   38.01    1.75
   3   0  16   40.22    1.79
   3   0  17  108.76    4.58
   3   0  17  110.95    4.80
   3   0  17  113.18    3.46
   3   0  18    8.22    1.32
   3   0  19   61.89    3.54
   3   0  20   34.13    2.68
   3   0  21    2.47    0.96
   3   0  22   29.19    2.65
  -3  -1  19   12.42    1.86
  -3  -1  18   77.31    4.19
  -3  -1  17   19.53    2.06
  -3  -1  16   19.59    1.96
  -3  -1  15    1.49    0.53
  -3  -1  15    0.84    0.78
  -3  -1  14    5.70    1.09
  -3  -1  14    7.65    0.91
   3   1 -14    6.44    0.92
  -3  -1  13   12.22    1.12
  -3  -1  13   14.06    1.52
   3   1 -13   11.87    1.20
  -3  -1  13   14.22    1.31
  -3  -1  12  124.05    4.54
  -3  -1  12  123.45    3.95
   3   1 -12  132.83    4.25
  -3  -1  12  129.40    4.36
  -3  -1  11   17.27    1.51
  -3  -1  11   19.04    1.33
   3   1 -11   17.23    1.31
  -3  -1  11   17.26    1.26
  -3  -1  11   19.31    1.46
  -3  -1  10    4.52    0.83
  -3  -1  10    4.17    0.67
  -3  -1  10    4.50    0.69
   3   1 -10    5.19    0.77
  -3  -1  10    3.20    0.65
  -3  -1   9    2.94    0.60
  -3  -1   9    4.38    0.85
  -3  -1   9    3.24    0.60
   3   1  -9    3.32    0.66
  -3  -1   9    1.75    0.58
  -3  -1   8    1.69    0.55
  -3  -1   8    2.36    0.71
   3   1  -8    3.69    0.66
  -3  -1   8    1.80    0.52
  -3  -1   7    3.52    0.59
   3   1  -7    2.48    0.52
  -3  -1   7    3.78    0.65
   3   1  -6  546.27   11.82
  -3  -1   6  538.15   11.76
   3   1  -5   13.97    1.00
  -3  -1   5   11.13    0.92
   3   1  -4  245.74    5.82
  -3  -1   4  231.45    5.73
  -3  -1   3    8.12    0.80
   3   1  -3    9.35    0.79
  -3  -1   2   35.22    1.53
   3   1  -2   34.59    1.49
  -3  -1   1  408.52    8.90
   3   1  -1  413.26    8.87
   3   1   0  119.10    3.15
  -3  -1   0  117.39    3.15
   3   1   1  363.85    7.96
  -3  -1  -1  379.49    7.97
   3   1   2   53.45    1.74
  -3  -1  -2   53.93    1.73
   3   1   3   15.07    0.84
  -3  -1  -3   17.55    0.85
   3   1   4   92.59    2.42
  -3  -1  -4   94.70    2.43
  -3  -1  -4   96.37    2.57
  -3  -1  -5   20.85    1.13
  -3  -1  -5   20.34    1.12
  -3  -1  -5   20.89    1.05
  -3  -1  -5   19.19    0.84
   3   1   5   19.41    0.83
  -3  -1  -5   19.66    0.92
  -3  -1  -6  266.40    6.22
  -3  -1  -6  275.66    6.17
  -3  -1  -6  265.29    6.12
  -3  -1  -6  245.83    5.48
  -3  -1  -6  264.91    5.73
  -3  -1  -7  693.72   14.31
  -3  -1  -7  685.33   14.13
   3   1   7  709.31   14.20
  -3  -1  -7  695.08   14.15
  -3  -1  -7  631.38   13.24
  -3  -1  -7  684.88   13.60
  -3  -1  -8   47.99    2.06
   3   1   8   47.74    2.11
   3   1   8   49.70    2.02
  -3  -1  -8   48.14    1.96
  -3  -1  -8   44.06    1.27
   3   1   8   49.42    1.63
  -3  -1  -8   48.76    1.59
   3   1   9   59.18    2.45
  -3  -1  -9   59.06    2.41
  -3  -1  -9   57.84    2.25
   3   1   9   58.00    2.29
  -3  -1  -9   50.83    1.37
  -3  -1  -9   56.97    1.77
   3   1   9   57.13    1.81
   3   1  10   26.80    1.55
   3   1  10   28.53    1.62
  -3  -1 -10   26.99    1.53
   3   1  10   26.19    1.68
  -3  -1 -10   31.42    1.75
   3   1  10   26.08    1.17
  -3  -1 -10   24.94    1.11
  -3  -1 -11  222.84    5.95
   3   1  11  222.67    6.02
   3   1  11  218.69    5.94
  -3  -1 -11  233.23    6.29
   3   1  11  225.31    6.27
   3   1  11  224.67    5.17
  -3  -1 -11  209.04    5.04
   3   1  12  153.25    4.73
   3   1  12  148.91    4.61
  -3  -1 -12  144.92    4.56
  -3  -1 -12  154.91    4.92
   3   1  12  148.57    4.90
  -3  -1 -12  146.98    3.75
   3   1  12  152.46    3.82
   3   1  13  124.41    4.18
   3   1  13  124.67    4.25
  -3  -1 -13  118.75    4.12
   3   1  13  122.75    4.46
  -3  -1 -13  118.93    3.24
   3   1  13  127.67    3.33
   3   1  14    0.86    0.66
   3   1  14    0.10    0.46
  -3  -1 -14    0.40    0.54
  -3  -1 -14   -0.82    0.42
   3   1  14    1.22    0.71
   3   1  14   -0.21    0.30
   3   1  15  294.52    8.10
  -3  -1 -15  290.29    8.00
  -3  -1 -15  292.21    6.63
   3   1  15  290.42    8.45
   3   1  15  292.64    6.68
   3   1  16    9.22    1.26
  -3  -1 -16    9.31    1.28
   3   1  16    8.36    1.36
   3   1  16    7.41    0.67
   3   1  17  220.63    6.98
  -3  -1 -17  221.80    6.90
   3   1  17  222.83    7.39
   3   1  18   41.08    2.70
   3   1  18   40.07    2.89
   3   1  19   38.91    2.62
   3   1  19   34.46    2.76
   3   1  20    2.40    0.90
   3   1  20    1.46    0.83
   3   1  21    3.20    0.99
   3   1  22    2.33    0.99
  -3  -2  19   26.56    2.55
  -3  -2  18   22.78    2.26
  -3  -2  17   35.57    2.68
  -3  -2  16    1.84    0.90
  -3  -2  16    1.99    0.65
  -3  -2  15   53.09    3.06
  -3  -2  15   55.10    2.57
  -3  -2  14   13.45    1.20
  -3  -2  14   12.48    1.44
   3   2 -14   13.65    1.32
  -3  -2  14   13.47    1.32
  -3  -2  13   -0.06    0.65
  -3  -2  13    0.86    0.56
   3   2 -13    0.86    0.53
  -3  -2  13    0.67    0.56
  -3  -2  12   57.33    2.59
  -3  -2  12   62.71    2.95
   3   2 -12   59.36    2.66
  -3  -2  12   55.78    2.56
  -3  -2  11   87.04    3.17
  -3  -2  11   86.31    3.43
   3   2 -11   87.28    3.26
  -3  -2  11   84.80    3.16
  -3  -2  10   82.13    3.23
  -3  -2  10   87.12    3.13
   3   2 -10   86.54    3.18
  -3  -2  10   87.35    3.11
  -3  -2   9   45.55    2.18
  -3  -2   9   44.92    2.07
   3   2  -9   45.23    2.11
  -3  -2   9   44.81    2.07
  -3  -2   9   43.02    2.00
  -3  -2   8  218.73    5.84
  -3  -2   8  214.18    5.73
   3   2  -8  224.39    5.87
  -3  -2   8  225.21    5.84
  -3  -2   7  101.52    3.30
  -3  -2   7  102.05    3.27
  -3  -2   7  105.02    3.34
   3   2  -7  103.44    3.36
  -3  -2   6  138.34    4.01
   3   2  -6  145.26    4.12
  -3  -2   6  139.71    4.04
  -3  -2   5    3.94    0.66
   3   2  -5    2.61    0.54
   3   2  -4   24.80    1.34
  -3  -2   4   25.04    1.37
   3   2  -3   52.33    2.00
  -3  -2   3   55.83    2.07
  -3  -2   2    3.98    0.67
   3   2  -2    4.23    0.62
   3   2  -1    2.79    0.52
  -3  -2   1    3.61    0.66
  -3  -2   0 1410.49   27.90
   3   2   0 1414.66   27.88
  -3  -2  -1   21.70    1.09
   3   2   1   21.34    1.05
   3   2   2 4926.07   94.76
  -3  -2  -2 4961.95   94.76
   3   2   3    0.38    0.34
  -3  -2  -3    0.39    0.40
  -3  -2  -4  181.57    4.47
   3   2   4  184.69    4.20
  -3  -2  -4  189.17    4.20
  -3  -2  -4  190.31    4.58
  -3  -2  -5   91.53    2.72
  -3  -2  -5   97.81    2.82
   3   2   5   87.90    2.28
  -3  -2  -5   91.39    2.26
  -3  -2  -6  391.35    8.64
   3   2   6  399.26    8.69
  -3  -2  -6  398.57    8.66
  -3  -2  -6  392.65    8.40
   3   2   6  371.75    7.81
  -3  -2  -6  389.35    7.78
  -3  -2  -6  373.48    8.01
  -3  -2  -7    0.19    0.41
   3   2   7    0.14    0.55
   3   2   7    0.04    0.42
  -3  -2  -7    0.58    0.54
  -3  -2  -7    0.29    0.39
  -3  -2  -7    0.38    0.17
  -3  -2  -7    0.53    0.29
   3   2   8  299.59    7.06
  -3  -2  -8  283.94    6.76
  -3  -2  -8  296.58    7.04
  -3  -2  -8  299.93    7.15
   3   2   8  281.28    7.08
  -3  -2  -8  284.49    6.14
   3   2   9    6.96    0.86
   3   2   9    7.19    0.83
  -3  -2  -9    7.14    0.89
   3   2   9    5.03    0.84
  -3  -2  -9    6.17    0.85
  -3  -2  -9    6.27    0.47
   3   2  10   75.07    2.75
  -3  -2 -10   78.98    2.93
   3   2  10   77.85    2.89
  -3  -2 -10   82.18    3.06
   3   2  10   78.08    3.03
  -3  -2 -10   74.01    2.02
  -3  -2 -11   -0.53    0.57
   3   2  11    0.35    0.49
   3   2  11    0.73    0.43
  -3  -2 -11    0.11    0.21
  -3  -2 -11   -0.40    0.47
   3   2  11   -1.09    0.72
   3   2  12   19.13    1.43
   3   2  12   22.48    1.51
  -3  -2 -12   19.42    1.45
  -3  -2 -12   22.39    1.64
  -3  -2 -12   22.30    0.90
   3   2  12   20.05    1.62
   3   2  13    5.70    0.89
  -3  -2 -13    6.16    0.95
   3   2  13    7.75    1.00
  -3  -2 -13    5.50    0.43
   3   2  13    6.20    1.07
   3   2  14  103.78    3.97
   3   2  14  104.74    3.85
  -3  -2 -14  108.37    4.03
   3   2  14  102.30    4.17
  -3  -2 -15   13.31    1.38
   3   2  15   13.79    1.38
   3   2  15   13.87    1.54
   3   2  16   40.74    2.40
  -3  -2 -16   40.05    2.49
   3   2  16   42.54    2.75
   3   2  17   88.60    3.81
  -3  -2 -17   84.30    3.90
   3   2  17   86.15    4.17
   3   2  18  193.24    6.37
   3   2  18  190.46    6.89
   3   2  19   35.01    2.47
   3   2  19   39.57    2.96
   3   2  20    0.22    0.75
   3   2  20    0.89    0.97
   3   2  21    4.71    1.17
   3   2  21    5.80    1.37
   3   2  22    1.71    1.07
  -3  -3  19   16.84    1.97
  -3  -3  18    9.03    1.57
  -3  -3  17   75.77    3.91
  -3  -3  16    0.41    0.88
  -3  -3  16   -0.02    0.73
  -3  -3  15    0.05    0.69
  -3  -3  15    1.03    0.71
  -3  -3  14    0.60    0.64
  -3  -3  14    0.60    0.54
   3   3 -14    0.28    0.71
  -3  -3  13   -0.10    0.66
  -3  -3  13    1.05    0.52
   3   3 -13    1.89    0.69
  -3  -3  13    0.89    0.56
  -3  -3  12   16.41    1.48
  -3  -3  12   16.30    1.42
   3   3 -12   18.53    1.48
  -3  -3  12   17.63    1.33
  -3  -3  11   98.74    3.63
  -3  -3  11  103.94    3.77
   3   3 -11  100.75    3.69
  -3  -3  11   98.38    3.35
  -3  -3  10   16.11    1.36
  -3  -3  10   15.72    1.30
   3   3 -10   16.72    1.34
  -3  -3  10   17.26    1.21
  -3  -3   9   60.82    2.49
  -3  -3   9   59.28    2.55
   3   3  -9   63.82    2.64
  -3  -3   9   54.68    2.24
  -3  -3   8    6.33    0.86
  -3  -3   8    6.58    0.79
   3   3  -8    7.10    0.86
  -3  -3   8    6.77    0.73
  -3  -3   7  249.12    6.15
  -3  -3   7  252.04    6.48
   3   3  -7  250.18    6.49
  -3  -3   6  122.21    3.48
  -3  -3   6  124.34    3.81
   3   3  -6  122.34    3.81
  -3  -3   6  122.35    3.80
  -3  -3   5  143.54    4.16
  -3  -3   5  145.89    4.17
   3   3  -5  144.34    4.19
  -3  -3   4    5.65    0.77
   3   3  -4    5.40    0.71
  -3  -3   4    6.01    0.80
  -3  -3   3    3.71    0.71
   3   3  -3    1.81    0.50
  -3  -3   3    2.65    0.63
  -3  -3   2   80.26    2.66
   3   3  -2   81.55    2.65
  -3  -3   1 4111.76   79.65
   3   3  -1 4137.46   79.65
   3   3   0  891.86   18.33
  -3  -3   0  913.70   18.35
   3   3   1   10.54    0.82
  -3  -3  -1    9.06    0.84
   3   3   2  849.80   17.30
  -3  -3  -2  869.05   17.31
  -3  -3  -3   83.73    2.32
  -3  -3  -3   88.18    2.43
   3   3   3   83.97    2.40
  -3  -3  -3   85.63    2.53
  -3  -3  -4    9.79    0.74
   3   3   4   10.47    0.68
  -3  -3  -4   10.52    0.71
  -3  -3  -4   10.02    0.85
   3   3   5   69.81    2.27
  -3  -3  -5   68.82    2.24
  -3  -3  -5   68.44    1.91
   3   3   5   67.01    1.89
  -3  -3  -5   69.63    2.38
   3   3   6  674.83   14.14
  -3  -3  -6  674.44   14.18
   3   3   6  662.16   13.40
   3   3   6  697.94   14.28
  -3  -3  -6  668.98   13.79
  -3  -3  -6  685.56   14.28
   3   3   7  623.36   13.37
  -3  -3  -7  633.79   13.39
   3   3   7  627.15   13.41
  -3  -3  -7  624.13   12.90
  -3  -3  -7  638.79   13.44
   3   3   7  610.33   12.27
  -3  -3  -8  833.11   16.96
   3   3   8  856.59   17.58
  -3  -3  -8  825.99   17.47
   3   3   8  842.71   17.54
  -3  -3  -8  858.08   17.56
  -3  -3  -8  806.55   16.28
   3   3   9   43.10    2.06
  -3  -3  -9   42.69    2.04
  -3  -3  -9   45.55    2.10
   3   3   9   42.99    2.08
  -3  -3  -9   41.67    1.21
  -3  -3 -10   68.08    2.81
   3   3  10   75.01    2.88
  -3  -3 -10   72.48    2.90
   3   3  10   71.36    2.87
  -3  -3 -10   70.14    1.71
   3   3  11    0.11    0.46
   3   3  11    2.27    0.60
  -3  -3 -11   -0.45    0.64
  -3  -3 -11    0.78    0.50
  -3  -3 -11    0.75    0.17
   3   3  11    0.57    0.64
   3   3  12  208.32    6.10
   3   3  12  210.59    5.70
  -3  -3 -12  202.51    6.06
  -3  -3 -12  221.70    6.36
   3   3  12  212.32    6.28
   3   3  13   47.81    2.52
   3   3  13   47.68    2.25
  -3  -3 -13   48.31    2.51
   3   3  13   44.13    2.51
   3   3  14   70.97    2.95
  -3  -3 -14   70.92    3.24
   3   3  14   73.65    3.42
  -3  -3 -15    4.40    0.97
   3   3  15    4.54    0.83
   3   3  15    4.98    1.13
  -3  -3 -16   13.25    1.54
   3   3  16   11.47    1.25
   3   3  16    8.64    1.32
  -3  -3 -17    9.66    1.46
   3   3  17   11.47    1.34
   3   3  17   13.83    1.74
   3   3  18   82.32    3.70
   3   3  18   86.74    4.31
   3   3  19   11.80    1.39
   3   3  19   14.28    1.91
   3   3  20    4.97    0.98
   3   3  20    4.26    1.28
   3   3  21    0.19    0.73
  -3  -4  18   22.06    2.15
  -3  -4  17   16.10    1.80
  -3  -4  16   21.68    2.00
  -3  -4  16   22.99    1.87
  -3  -4  15    1.14    0.79
  -3  -4  15    0.17    0.57
  -3  -4  14    3.21    0.80
  -3  -4  14    3.35    0.85
  -3  -4  13    5.79    1.05
  -3  -4  13    4.88    0.94
  -3  -4  13    6.71    0.86
  -3  -4  12   15.99    1.47
  -3  -4  12   19.72    1.55
  -3  -4  12   16.76    1.18
   3   4 -12   15.45    1.38
  -3  -4  11  146.48    4.66
  -3  -4  11  147.37    4.19
   3   4 -11  149.33    4.88
  -3  -4  11  151.71    4.99
  -3  -4  10    7.69    0.91
  -3  -4  10    6.70    0.97
   3   4 -10    5.75    0.91
  -3  -4  10    5.93    0.70
  -3  -4   9    4.34    0.69
  -3  -4   9    4.36    0.80
   3   4  -9    5.16    0.83
  -3  -4   9    4.84    0.62
  -3  -4   8   23.53    1.37
  -3  -4   8   22.98    1.57
   3   4  -8   24.11    1.60
  -3  -4   8   21.20    1.14
  -3  -4   7  113.00    3.83
  -3  -4   7  113.40    3.34
   3   4  -7  116.13    3.84
  -3  -4   6    0.35    0.61
  -3  -4   6    0.92    0.41
   3   4  -6    1.05    0.51
  -3  -4   5  441.30   10.22
  -3  -4   5  436.86    9.36
   3   4  -5  453.96   10.25
  -3  -4   4    4.05    0.69
  -3  -4   4    2.83    0.41
   3   4  -4    3.36    0.66
  -3  -4   3   60.46    2.38
   3   4  -3   61.32    2.39
  -3  -4   2    5.26    0.74
   3   4  -2    4.77    0.65
  -3  -4   1  184.54    4.86
   3   4  -1  184.11    4.81
  -3  -4   0   31.01    1.56
   3   4   0   31.56    1.48
  -3  -4  -1  716.20   14.49
  -3  -4  -1  691.00   13.68
   3   4   1  689.12   14.44
  -3  -4  -2   45.64    1.40
   3   4   2   48.44    1.79
  -3  -4  -2   48.30    1.71
  -3  -4  -3   24.97    1.03
   3   4   3   22.27    1.12
  -3  -4  -3   24.18    1.24
   3   4   4  190.56    4.51
  -3  -4  -4  188.98    4.50
   3   4   4  180.60    4.42
  -3  -4  -4  193.69    4.79
  -3  -4  -5  494.78   10.57
   3   4   5  491.56   10.57
   3   4   5  485.55   10.27
   3   4   5  505.56   10.83
  -3  -4  -5  505.67   10.83
  -3  -4  -6   13.64    0.99
   3   4   6   13.67    0.99
   3   4   6   13.40    0.76
   3   4   6   13.49    1.05
  -3  -4  -6   14.04    1.11
  -3  -4  -7  465.22   10.12
   3   4   7  453.60   10.11
   3   4   7  442.24    9.22
   3   4   7  444.52   10.21
  -3  -4  -7  443.24    9.49
  -3  -4  -7  465.20   10.24
  -3  -4  -8    4.96    0.72
   3   4   8    6.30    0.83
  -3  -4  -8    6.07    0.86
   3   4   8    3.96    0.74
  -3  -4  -8    7.22    0.66
   3   4   8    5.66    0.41
  -3  -4  -9   22.27    0.77
  -3  -4  -9   24.60    1.55
   3   4   9   22.03    1.49
   3   4   9   24.50    1.58
  -3  -4  -9   24.91    1.61
   3   4   9   22.46    0.72
  -3  -4  -9   21.77    0.76
  -3  -4 -10    3.08    0.82
   3   4  10    1.93    0.66
  -3  -4 -10    2.89    0.73
   3   4  10    3.47    0.73
   3   4  11    9.66    1.06
  -3  -4 -11    9.69    1.09
   3   4  11    9.43    1.09
  -3  -4 -11    9.69    1.21
   3   4  12   72.77    3.17
  -3  -4 -12   74.86    3.21
   3   4  12   69.63    3.14
  -3  -4 -13   63.21    2.98
   3   4  13   56.38    2.93
  -3  -4 -14   11.84    1.39
   3   4  14   10.08    1.33
  -3  -4 -15   11.22    1.40
   3   4  15   12.94    1.51
  -3  -4 -16    0.58    0.76
   3   4  16   -1.54    0.87
   3   4  17    2.37    0.97
   3   4  18   53.10    3.38
   3   4  19   46.95    3.26
   3   4  20    0.35    1.01
  -3  -5  17    0.16    0.85
  -3  -5  16    5.66    1.09
  -3  -5  16    4.64    1.01
  -3  -5  15    1.65    0.85
  -3  -5  15    1.09    0.75
  -3  -5  14   18.51    1.71
  -3  -5  14   18.94    1.65
  -3  -5  13   21.19    1.70
  -3  -5  13   24.89    1.94
  -3  -5  12   93.26    2.95
  -3  -5  12  103.63    3.73
  -3  -5  12   96.93    3.89
  -3  -5  11   10.34    0.82
  -3  -5  11   11.72    1.30
  -3  -5  11   13.20    1.19
  -3  -5  10  357.32    8.48
  -3  -5  10  337.80    7.72
   3   5 -10  360.24    9.13
  -3  -5  10  350.62    9.21
  -3  -5   9  161.45    4.47
  -3  -5   9  147.73    3.88
   3   5  -9  163.73    5.10
  -3  -5   9  168.40    5.22
  -3  -5   8   28.79    1.86
  -3  -5   8   30.79    1.51
   3   5  -8   32.18    1.93
  -3  -5   8   28.70    1.19
  -3  -5   7  112.03    3.90
  -3  -5   7  109.82    3.15
   3   5  -7  118.88    3.98
  -3  -5   7  104.30    2.80
  -3  -5   6  185.11    5.51
  -3  -5   6  190.59    4.60
   3   5  -6  199.24    5.65
  -3  -5   5  179.07    5.26
  -3  -5   5  179.25    4.21
   3   5  -5  186.42    5.28
  -3  -5   4    3.62    0.76
  -3  -5   4    2.80    0.35
   3   5  -4    2.73    0.64
  -3  -5   3   33.85    1.82
  -3  -5   3   32.95    0.99
   3   5  -3   37.88    1.86
  -3  -5   2    1.61    0.64
   3   5  -2    0.42    0.45
  -3  -5   1    2.09    0.71
   3   5  -1    3.70    0.70
  -3  -5   0  115.72    3.54
   3   5   0  118.57    3.56
  -3  -5   0  114.36    2.98
  -3  -5  -1    2.72    0.64
  -3  -5  -1    2.10    0.27
   3   5   1    2.37    0.58
  -3  -5  -1    3.70    0.53
  -3  -5  -2    0.69    0.28
  -3  -5  -2    0.11    0.50
   3   5   2    0.06    0.39
  -3  -5  -2   -0.09    0.40
  -3  -5  -3   52.45    1.65
   3   5   3   52.62    1.67
  -3  -5  -3   53.80    1.97
   3   5   3   52.45    1.98
  -3  -5  -3   53.10    1.97
  -3  -5  -4    2.75    0.54
   3   5   4    2.82    0.49
  -3  -5  -4    3.00    0.47
   3   5   4    3.01    0.52
   3   5   4    2.27    0.55
  -3  -5  -4    3.67    0.67
  -3  -5  -5   80.60    2.54
   3   5   5   80.19    2.53
  -3  -5  -5   82.18    2.43
   3   5   5   80.32    2.47
   3   5   5   79.83    2.75
  -3  -5  -5   85.11    2.79
  -3  -5  -6  106.63    3.25
   3   5   6  109.56    3.23
  -3  -5  -6  107.90    2.88
   3   5   6  103.90    2.92
   3   5   6  109.20    3.47
  -3  -5  -6  110.52    3.46
   3   5   7   33.53    1.66
  -3  -5  -7   35.01    1.72
  -3  -5  -7   33.73    1.25
   3   5   7   31.66    1.29
  -3  -5  -7   34.03    1.30
  -3  -5  -7   35.79    1.83
   3   5   7   34.70    1.79
  -3  -5  -8   45.28    2.08
   3   5   8   46.20    2.10
  -3  -5  -8   45.13    1.42
   3   5   8   42.76    1.46
   3   5   8   45.22    2.18
  -3  -5  -8   44.13    1.57
  -3  -5  -8   44.91    2.17
  -3  -5  -9   33.32    1.06
  -3  -5  -9   34.28    1.90
   3   5   9   32.28    1.84
   3   5   9   33.52    1.17
   3   5   9   34.17    1.92
  -3  -5  -9   35.03    1.95
  -3  -5  -9   31.34    1.33
  -3  -5 -10   50.02    2.42
   3   5  10   47.00    2.34
   3   5  10   46.98    1.35
  -3  -5 -10   47.64    2.42
   3   5  10   53.88    2.53
   3   5  11   23.85    1.74
  -3  -5 -11   22.73    1.72
   3   5  11   23.02    1.68
  -3  -5 -12    0.92    0.69
   3   5  12   -0.30    0.69
  -3  -5 -13   62.41    3.06
   3   5  13   62.08    3.09
  -3  -5 -14   17.36    1.72
   3   5  14   16.80    1.64
  -3  -5 -15   33.10    2.40
   3   5  15   34.22    2.43
  -3  -5 -16   33.43    2.53
   3   5  16   32.96    2.50
   3   5  17   18.44    1.90
   3   5  18    1.08    0.92
   3   5  19   58.84    3.72
   3   5  20   26.16    2.55
  -3  -6  16   11.77    1.62
  -3  -6  15   10.55    1.33
  -3  -6  15   12.95    1.64
  -3  -6  14    9.70    1.25
  -3  -6  14    9.80    1.35
  -3  -6  13   64.33    2.90
  -3  -6  13   61.35    3.28
  -3  -6  12  125.52    4.18
  -3  -6  12  118.86    4.68
  -3  -6  11   24.96    1.06
  -3  -6  11   29.50    1.70
  -3  -6  11   23.67    1.87
  -3  -6  10   81.92    2.22
  -3  -6  10   84.23    2.94
  -3  -6  10   83.31    3.61
  -3  -6   9   22.19    0.87
  -3  -6   9   21.88    1.32
  -3  -6   9   24.29    1.86
  -3  -6   8    3.26    0.54
  -3  -6   8    3.91    0.95
   3   6  -8    1.79    0.64
  -3  -6   8    2.52    0.28
  -3  -6   7   11.45    1.25
  -3  -6   7   12.69    0.84
   3   6  -7   12.36    1.25
  -3  -6   7   11.30    0.53
  -3  -6   6   77.68    2.24
  -3  -6   6   81.82    3.26
   3   6  -6   83.72    3.24
  -3  -6   6   75.36    1.87
  -3  -6   5   12.26    0.66
  -3  -6   5   12.73    1.27
   3   6  -5   12.89    1.21
  -3  -6   4  923.13   19.61
   3   6  -4  967.43   19.73
  -3  -6   4  899.60   17.81
  -3  -6   3   12.40    1.22
   3   6  -3   13.08    1.15
  -3  -6   3   11.57    0.58
  -3  -6   2  215.75    5.97
   3   6  -2  230.58    6.08
  -3  -6   2  216.76    4.83
  -3  -6   1    1.88    0.67
   3   6  -1    3.06    0.74
  -3  -6   1    2.17    0.37
  -3  -6   0  830.59   17.49
   3   6   0  837.45   17.53
  -3  -6   0  813.77   16.58
  -3  -6  -1  106.43    3.47
   3   6   1  111.34    3.53
  -3  -6  -1  110.26    3.02
  -3  -6  -2  143.38    4.11
   3   6   2  143.38    4.16
  -3  -6  -2  145.35    3.84
   3   6   3   57.61    1.78
  -3  -6  -3   58.53    2.20
   3   6   3   56.70    2.22
  -3  -6  -3   58.02    2.13
   3   6   3   56.69    2.11
  -3  -6  -4  516.92   11.10
   3   6   4  499.96   10.73
   3   6   4  506.72   11.18
   3   6   4  516.71   11.23
  -3  -6  -4  522.13   11.23
  -3  -6  -5    7.87    0.79
   3   6   5    8.10    0.76
   3   6   5    8.17    0.79
   3   6   5    7.18    0.84
  -3  -6  -5    7.92    0.96
  -3  -6  -6  123.69    3.41
   3   6   6  127.81    3.66
   3   6   6  125.61    3.53
   3   6   6  127.43    3.95
  -3  -6  -6  126.87    3.93
   3   6   7   11.83    1.03
  -3  -6  -7   13.64    0.84
  -3  -6  -7   16.16    1.28
   3   6   7   12.22    1.09
   3   6   7   11.68    0.85
   3   6   8  255.93    6.55
   3   6   8  266.10    6.88
  -3  -6  -8  256.92    6.80
  -3  -6  -8  245.49    5.60
   3   6   8  249.55    5.87
  -3  -6  -8  257.69    5.71
   3   6   9    0.71    0.63
  -3  -6  -9    0.65    0.27
  -3  -6  -9    0.85    0.31
  -3  -6  -9    1.07    0.67
   3   6   9    0.05    0.47
   3   6   9    0.72    0.29
   3   6  10   -0.56    0.68
  -3  -6 -10    0.44    0.60
   3   6  10    0.30    0.47
   3   6  10    0.33    0.25
  -3  -6 -10    0.13    0.21
   3   6  11    6.24    1.00
   3   6  11    5.22    0.44
  -3  -6 -11    5.30    0.97
   3   6  12   69.10    3.13
   3   6  12   65.06    1.62
   3   6  12   65.52    1.62
  -3  -6 -12   64.35    3.14
  -3  -6 -13  502.90   12.46
   3   6  13  487.33   12.25
  -3  -6 -14   94.89    4.15
   3   6  14   94.65    4.07
  -3  -6 -15    8.56    1.36
   3   6  15    5.58    1.10
  -3  -6 -16   21.39    2.06
   3   6  16   26.04    2.22
   3   6  17   12.95    1.74
   3   6  18    1.44    0.96
   3   6  19   26.54    2.51
   3   6  20   -0.10    1.02
  -3  -7  16    4.03    1.22
  -3  -7  15    0.80    0.82
  -3  -7  14    1.50    0.90
  -3  -7  13    7.51    1.33
  -3  -7  12    1.72    0.92
  -3  -7  11   68.48    3.48
  -3  -7  10   63.76    3.27
  -3  -7   9    5.77    1.09
  -3  -7   8    9.49    1.26
  -3  -7   7  209.00    6.47
   3   7  -6  168.95    5.46
  -3  -7   6  171.03    5.55
  -3  -7   5    0.67    0.70
   3   7  -5    0.01    0.52
  -3  -7   4  205.21    5.88
   3   7  -4  218.38    5.98
  -3  -7   4  185.77    3.90
  -3  -7   3   60.63    2.75
   3   7  -3   68.55    2.88
  -3  -7   3   59.69    1.61
  -3  -7   2   83.51    3.27
   3   7  -2   92.57    3.40
  -3  -7   2   83.63    2.23
  -3  -7   1    0.04    0.53
   3   7  -1    0.40    0.49
  -3  -7   1    0.54    0.28
  -3  -7   0   26.00    1.61
   3   7   0   25.31    1.61
  -3  -7   0   24.26    1.13
  -3  -7  -1   60.15    2.53
   3   7   1   63.81    2.62
  -3  -7  -1   60.76    2.08
  -3  -7  -2 1303.76   25.97
   3   7   2 1280.37   25.23
  -3  -7  -2 1323.55   26.48
   3   7   3    9.14    0.83
  -3  -7  -3    9.01    0.86
   3   7   3    9.45    0.65
  -3  -7  -3    8.26    0.94
   3   7   4   30.91    1.58
  -3  -7  -4   30.66    1.61
  -3  -7  -4   32.71    1.63
   3   7   4   29.54    1.30
  -3  -7  -5    0.79    0.52
   3   7   5    0.52    0.50
   3   7   5    0.90    0.44
  -3  -7  -5    1.26    0.51
   3   7   6  203.60    5.61
  -3  -7  -6  201.58    5.62
   3   7   6  200.12    5.22
  -3  -7  -6  204.47    5.16
   3   7   7   32.28    1.84
  -3  -7  -7   30.15    1.81
   3   7   7   31.78    1.66
  -3  -7  -7   29.74    1.42
   3   7   8  468.54   10.80
  -3  -7  -8  440.60    9.16
  -3  -7  -8  463.06   10.77
   3   7   8  441.61   10.32
  -3  -7  -8  430.55    9.48
   3   7   9    1.61    0.63
  -3  -7  -9    1.50    0.73
   3   7   9    1.53    0.69
  -3  -7  -9    1.60    0.33
   3   7   9    1.91    0.43
  -3  -7  -9    1.61    0.39
   3   7  10    3.41    0.79
  -3  -7 -10    3.66    0.89
   3   7  10    2.41    0.43
  -3  -7 -10    3.22    0.41
   3   7  11   17.19    1.52
  -3  -7 -11   16.58    1.61
   3   7  11   13.96    0.85
  -3  -7 -11   15.23    0.62
   3   7  12   74.86    3.34
  -3  -7 -12   75.98    3.51
   3   7  12   69.99    2.07
   3   7  13    5.90    1.02
  -3  -7 -13    6.49    1.16
   3   7  13    6.71    0.46
   3   7  13    6.76    0.47
  -3  -7 -14   62.72    3.42
   3   7  14   70.13    3.48
  -3  -7 -15   -0.23    0.80
   3   7  15    2.20    0.98
   3   7  16   38.66    2.76
   3   7  17   -0.29    0.81
   3   7  18    3.46    1.16
   3   7  19   83.40    4.52
  -3  -8  16    1.46    1.03
  -3  -8  15    1.72    0.89
  -3  -8  14    8.34    1.45
  -3  -8  13    2.67    1.09
  -3  -8  12    4.67    1.14
  -3  -8  11   41.79    2.76
  -3  -8  10    1.90    0.92
  -3  -8   9  150.67    5.48
  -3  -8   8   15.41    1.67
  -3  -8   7    1.25    0.74
  -3  -8   6   11.95    1.41
  -3  -8   5  301.10    8.34
  -3  -8   4   55.67    2.82
  -3  -8   3  214.48    4.65
   3   8  -3  243.38    6.69
  -3  -8   3  240.24    6.70
  -3  -8   2   26.81    1.06
   3   8  -2   30.37    1.94
  -3  -8   2   28.49    1.93
  -3  -8   1    1.97    0.64
   3   8  -1    1.89    0.67
  -3  -8   1    2.44    0.41
  -3  -8   0    0.35    0.33
  -3  -8   0   -0.83    0.62
  -3  -8  -1   23.31    1.24
  -3  -8  -1   24.10    1.65
  -3  -8  -2  145.08    4.04
   3   8   2  143.61    3.37
  -3  -8  -2  148.79    4.57
   3   8   3  291.78    7.12
  -3  -8  -3  297.79    7.17
   3   8   3  291.69    6.48
  -3  -8  -3  302.29    7.52
  -3  -8  -4  202.45    5.44
   3   8   4  205.92    5.45
   3   8   4  193.33    4.84
  -3  -8  -4  205.67    5.55
   3   8   5   23.66    1.49
  -3  -8  -5   21.36    1.48
   3   8   5   21.41    1.22
  -3  -8  -5   22.29    1.40
  -3  -8  -6    2.57    0.67
   3   8   6    3.25    0.65
   3   8   6    3.04    0.60
  -3  -8  -6    1.85    0.52
   3   8   7   87.68    3.34
  -3  -8  -7   82.87    3.29
   3   8   7   82.03    2.95
  -3  -8  -7   78.84    2.72
   3   8   8  186.66    5.60
  -3  -8  -8  173.52    5.51
  -3  -8  -8  179.37    4.03
   3   8   8  178.71    5.18
  -3  -8  -8  180.58    4.67
  -3  -8  -9   37.39    1.14
  -3  -8  -9   36.44    2.23
   3   8   9   34.92    1.99
  -3  -8  -9   34.56    1.51
   3   8  10    0.20    0.54
  -3  -8 -10   -0.18    0.64
   3   8  10   -0.10    0.36
  -3  -8 -10    1.03    0.37
   3   8  11    5.06    0.92
  -3  -8 -11    5.34    1.14
   3   8  11    4.82    0.61
  -3  -8 -11    5.06    0.46
   3   8  12  214.23    6.38
  -3  -8 -12  211.67    6.66
   3   8  12  207.77    4.99
  -3  -8 -12  189.75    4.07
   3   8  13   95.38    4.07
   3   8  13   92.04    2.68
  -3  -8 -13  100.13    4.34
  -3  -8 -14   62.78    3.46
   3   8  14   65.95    3.38
   3   8  14   61.85    1.84
   3   8  14   61.70    1.82
   3   8  15   34.79    2.54
   3   8  16    3.57    1.06
   3   8  17   12.64    1.73
   3   8  18   21.68    2.28
   3   8  19    0.01    0.98
  -3  -9  15   11.18    1.71
  -3  -9  14    6.38    1.32
  -3  -9  13   -0.57    0.86
  -3  -9  12   20.79    2.08
  -3  -9  11   26.15    2.36
  -3  -9  10   21.55    2.07
  -3  -9   9   51.35    3.11
  -3  -9   8   -1.04    0.91
  -3  -9   7   48.63    2.89
  -3  -9   6    1.67    0.73
  -3  -9   5    0.18    0.65
  -3  -9   4   65.57    3.16
  -3  -9   3  495.59   12.16
  -3  -9   2   34.23    2.19
  -3  -9   1   19.09    1.01
  -3  -9   1   22.62    1.75
  -3  -9   0   31.62    1.44
   3   9   0   32.12    2.02
  -3  -9   0   31.04    2.05
  -3  -9  -1  749.13   15.72
   3   9   1  769.89   16.80
  -3  -9  -1  734.04   16.67
  -3  -9  -2    2.85    0.60
   3   9   2    2.61    0.69
   3   9   2    2.85    0.34
  -3  -9  -2    2.22    0.75
   3   9   3  767.63   16.45
  -3  -9  -3  793.84   16.53
   3   9   3  769.95   15.63
  -3  -9  -3  755.90   16.82
   3   9   4    0.27    0.42
  -3  -9  -4    0.07    0.50
   3   9   4   -0.16    0.31
  -3  -9  -4    0.32    0.49
   3   9   5   57.82    2.50
  -3  -9  -5   55.52    2.52
   3   9   5   53.44    2.08
  -3  -9  -5   57.71    2.47
  -3  -9  -6   13.74    1.31
   3   9   6   12.91    1.22
  -3  -9  -6   12.48    1.09
   3   9   6   13.14    1.03
   3   9   7   61.03    2.80
  -3  -9  -7   63.05    2.90
   3   9   7   62.51    2.54
  -3  -9  -7   62.28    2.46
  -3  -9  -8   24.24    0.88
  -3  -9  -8   22.94    1.78
   3   9   8   22.68    1.55
  -3  -9  -8   23.54    1.39
  -3  -9  -9   54.04    2.85
   3   9   9   56.92    2.64
  -3  -9  -9   58.46    2.21
  -3  -9 -10    0.76    0.85
   3   9  10    2.23    0.72
  -3  -9 -10    1.17    0.42
   3   9  11    0.75    0.61
  -3  -9 -11   -0.85    0.67
   3   9  11    0.18    0.38
  -3  -9 -11    0.58    0.36
   3   9  12   45.68    2.65
  -3  -9 -12   42.30    2.77
   3   9  12   44.55    1.96
  -3  -9 -12   46.31    1.50
   3   9  13   77.60    3.64
   3   9  13   75.16    2.58
   3   9  14   83.78    3.94
   3   9  15   75.90    3.89
   3   9  16    2.60    1.09
   3   9  17   -0.01    0.96
   3   9  18  102.84    5.05
   3   9  19   13.49    2.08
  -3 -10  14   35.56    2.96
  -3 -10  13    3.39    1.13
  -3 -10  12    2.17    1.02
  -3 -10  11    0.96    0.93
  -3 -10  10   73.71    3.97
  -3 -10   9   19.08    2.04
  -3 -10   8   20.70    2.01
  -3 -10   7    3.98    1.05
  -3 -10   6   23.59    2.09
  -3 -10   5   27.74    2.21
  -3 -10   4    0.55    0.76
  -3 -10   3   18.79    1.79
  -3 -10   2   43.07    2.56
  -3 -10   1    0.01    0.70
  -3 -10   0    0.13    0.62
  -3 -10  -1   60.02    2.91
  -3 -10  -2   33.96    1.74
   3  10   2   32.04    2.02
   3  10   2   30.83    1.12
  -3 -10  -2   33.32    2.10
   3  10   3  144.08    4.38
  -3 -10  -3  147.54    4.47
   3  10   3  146.60    3.70
  -3 -10  -3  151.15    4.87
   3  10   4   98.42    3.48
  -3 -10  -4   99.00    3.55
   3  10   4   97.99    2.93
  -3 -10  -4   98.66    3.68
   3  10   5  119.16    4.08
  -3 -10  -5  119.31    4.12
   3  10   5  119.33    3.53
  -3 -10  -5  118.05    4.06
  -3 -10  -6    1.35    0.74
   3  10   6    0.85    0.61
   3  10   6    0.37    0.45
  -3 -10  -6   -0.21    0.51
  -3 -10  -7  226.38    6.69
   3  10   7  226.98    6.11
  -3 -10  -7  227.41    6.17
  -3 -10  -8    5.94    1.11
   3  10   8    5.05    0.84
  -3 -10  -8    5.81    0.80
  -3 -10  -9  244.91    7.43
   3  10   9  246.12    6.91
  -3 -10  -9  253.87    6.41
  -3 -10 -10    0.74    0.76
   3  10  10    1.13    0.60
  -3 -10 -10    1.93    0.51
   3  10  11   88.14    3.72
  -3 -10 -11   88.63    2.82
   3  10  12    1.47    0.74
   3  10  12    0.61    0.46
  -3 -10 -12    1.83    0.44
   3  10  13  187.04    6.33
   3  10  14   10.51    1.41
   3  10  15   11.47    1.58
   3  10  16    1.57    1.04
   3  10  17   18.95    2.09
   3  10  18    2.93    1.06
  -3 -11  12    3.94    1.31
  -3 -11  11    0.37    0.87
  -3 -11  10   27.34    2.51
  -3 -11   9    6.37    1.33
  -3 -11   8   42.02    2.99
  -3 -11   7    3.98    1.12
  -3 -11   6   10.55    1.54
  -3 -11   5   25.95    2.23
  -3 -11   4   38.83    2.67
  -3 -11   3   25.97    2.16
  -3 -11   2   36.88    2.49
  -3 -11   1    0.45    0.79
  -3 -11   0   86.41    3.82
  -3 -11  -1    7.65    1.22
   3  11   2  336.00    7.05
  -3 -11  -2  333.62    9.04
   3  11   3    3.01    0.69
   3  11   3    3.59    0.45
  -3 -11  -3    2.79    0.75
   3  11   4    8.95    1.01
   3  11   4    9.58    0.80
  -3 -11  -4    8.22    1.04
   3  11   5   10.71    1.22
   3  11   5    9.43    0.87
  -3 -11  -5    9.67    1.16
   3  11   6   18.19    1.27
  -3 -11  -6   15.82    1.44
   3  11   7    1.70    0.52
  -3 -11  -7    2.70    0.71
   3  11   8   22.41    1.60
  -3 -11  -8   25.06    1.67
   3  11   9    4.87    0.89
  -3 -11  -9    4.81    0.80
   3  11  10    1.56    0.69
  -3 -11 -10    3.73    0.69
   3  11  11    1.34    0.74
  -3 -11 -11    2.05    0.53
   3  11  12   19.57    1.81
  -3 -11 -12   20.01    1.20
   3  11  13   11.59    1.53
   3  11  14   71.23    3.73
   3  11  15   26.90    2.33
   3  11  16    1.14    0.98
   3  11  17   18.08    2.17
   3  11  18   13.59    2.03
  -3 -12  10   30.38    2.73
  -3 -12   9   68.39    4.08
  -3 -12   8   16.99    2.02
  -3 -12   7   -0.58    0.83
  -3 -12   6   15.90    1.87
  -3 -12   5   17.76    1.96
  -3 -12   4    0.83    0.91
  -3 -12   3   30.97    2.45
  -3 -12   2   28.09    2.31
  -3 -12   1   34.31    2.47
  -3 -12   0   24.97    2.12
  -3 -12  -1   -0.33    0.71
  -3 -12  -2  105.24    4.33
   3  12   3   60.52    2.68
   3  12   3   63.47    2.02
  -3 -12  -3   63.87    3.20
   3  12   4   89.17    3.48
   3  12   4   90.33    2.80
  -3 -12  -4   87.07    3.76
   3  12   5    7.97    0.82
  -3 -12  -5    5.74    1.06
   3  12   6   66.11    2.60
  -3 -12  -6   62.35    3.04
   3  12   7    0.95    0.54
  -3 -12  -7    0.31    0.54
   3  12   8   29.15    1.88
  -3 -12  -8   26.33    1.83
   3  12   9    3.95    0.85
  -3 -12  -9    3.04    0.79
   3  12  10   85.06    3.66
  -3 -12 -10   89.23    3.32
   3  12  11    1.62    0.77
  -3 -12 -11   -0.46    0.48
   3  12  12    1.52    0.87
   3  12  13   13.11    1.60
   3  12  14   19.95    2.00
   3  12  15    9.63    1.60
   3  12  16   49.85    3.34
   3  12  17   26.36    2.45
  -3 -13   7   91.79    4.79
  -3 -13   6    0.82    0.96
  -3 -13   5   61.50    3.71
  -3 -13   4    5.38    1.23
  -3 -13   3  113.30    5.09
  -3 -13   2    0.02    0.85
  -3 -13   1   -0.08    0.88
  -3 -13   0    1.27    0.84
  -3 -13  -1   16.18    1.82
  -3 -13  -2    8.71    1.32
  -3 -13  -3    3.92    1.06
   3  13   4    0.75    0.35
  -3 -13  -4   -1.19    0.86
   3  13   5   21.12    1.30
  -3 -13  -5   20.53    1.81
   3  13   6   20.91    1.40
  -3 -13  -6   21.42    1.78
   3  13   7   28.85    1.78
  -3 -13  -7   29.44    2.12
   3  13   8  143.84    4.79
  -3 -13  -8  154.08    5.16
   3  13   9   83.92    3.53
  -3 -13  -9   81.22    3.45
   3  13  10  116.22    4.49
  -3 -13 -10  124.89    4.30
   3  13  11    6.58    1.19
  -3 -13 -11    6.20    0.95
   3  13  12    1.34    0.82
   3  13  13    9.93    1.39
   3  13  14   10.77    1.63
   3  13  15   -0.33    0.82
   3  13  16   37.79    3.01
  -3 -14   5    0.84    1.19
  -3 -14   4    8.85    1.50
  -3 -14   3    2.29    0.94
  -3 -14   2    1.34    0.93
  -3 -14   1    7.82    1.40
  -3 -14   0    2.04    1.06
  -3 -14  -1   12.16    1.68
  -3 -14  -2   18.99    1.94
  -3 -14  -3  129.90    5.27
  -3 -14  -4   -0.06    0.84
  -3 -14  -5   22.36    2.03
  -3 -14  -6   14.94    1.66
   3  14   7   56.70    2.58
  -3 -14  -7   55.92    3.04
   3  14   8    1.62    0.66
  -3 -14  -8    1.54    0.77
   3  14   9  140.64    4.90
  -3 -14  -9  141.92    5.03
   3  14  10   12.53    1.44
  -3 -14 -10   15.28    1.45
   3  14  11  233.01    7.28
   3  14  12   32.40    2.43
   3  14  13    0.61    0.74
   3  14  14   -0.64    0.85
   3  14  15   12.72    1.69
   3  14  16   56.65    3.71
  -3 -15   2   10.66    1.72
  -3 -15   1   16.77    2.03
  -3 -15   0   26.09    2.46
  -3 -15  -1    6.04    1.32
  -3 -15  -2   -0.78    0.87
  -3 -15  -3   15.33    1.87
  -3 -15  -4    5.31    1.58
  -3 -15  -5   25.78    2.28
  -3 -15  -6    3.13    0.97
  -3 -15  -7    1.00    1.07
  -3 -15  -8   15.42    1.68
  -3 -15  -9   50.23    2.91
   3  15  13   -0.42    0.84
   3  15  14    3.40    1.10
  -3 -16  -1   -0.50    0.89
  -3 -16  -2   12.98    1.88
  -3 -16  -3   -1.17    0.92
  -3 -16  -4    5.31    1.24
  -3 -16  -5    5.58    1.33
  -3 -16  -6    1.57    0.96
  -3 -16  -7    8.55    1.43
  -3 -16  -8    0.24    0.90
  -3 -17  -4   86.20    4.62
  -3 -17  -5   -1.22    1.03
  -3 -17  -6    2.13    1.01
  -3 -17  -7    0.65    0.95
   4 -15  -5    6.74    1.51
   4 -15  -4   13.66    1.85
   4 -15  -3    5.43    1.55
  -4  14   9   24.65    2.48
  -4  14   8    0.68    0.90
   4 -14  -6   18.86    2.04
   4 -14  -5   34.27    2.72
   4 -14  -4    0.96    0.88
   4 -14  -3    5.78    1.41
   4 -14  -2   -1.31    1.09
   4 -14  -1    4.86    1.25
   4 -14   0   -1.42    0.85
   4 -14   1    2.94    1.16
   4 -14   2   75.35    4.39
   4 -14   8   73.00    4.23
  -4  13  11    1.84    0.97
  -4  13  10    5.80    1.47
  -4  13   9   20.88    2.23
  -4  13   8    3.57    1.10
   4 -13  -7    0.50    0.74
   4 -13  -6    4.47    1.12
   4 -13  -5   90.09    4.32
   4 -13  -4    4.02    1.14
   4 -13  -3   25.08    2.27
   4 -13  -2   -0.59    0.81
   4 -13  -1   90.04    4.47
   4 -13   0    6.85    1.46
   4 -13   1   41.36    3.07
   4 -13   2   -1.10    1.00
   4 -13   3   13.42    1.88
   4 -13   4    7.76    1.44
   4 -13   5    0.94    0.87
   4 -13   6   11.47    1.67
   4 -13   7    4.94    1.18
   4 -13   8    7.07    1.48
   4 -13   9    4.67    1.22
  -4  12  11    2.75    1.13
  -4  12  10    9.44    1.49
  -4  12   9   -0.31    0.84
  -4  12   8    3.92    1.22
   4 -12  -7    1.49    0.85
   4 -12  -6   39.16    2.68
   4 -12  -5   19.19    1.84
   4 -12  -4    8.20    1.36
   4 -12  -3    2.75    1.00
   4 -12  -2    4.23    1.13
   4 -12  -1    0.93    0.78
   4 -12   0    3.73    1.11
   4 -12   1  110.68    4.99
   4 -12   2   53.29    3.38
   4 -12   3  186.01    6.95
   4 -12   4    0.56    0.98
   4 -12   5   33.75    2.42
   4 -12   5   33.90    2.83
   4 -12   6    1.57    0.91
   4 -12   6    0.84    1.04
   4 -12   7   37.81    2.78
   4 -12   7   48.16    3.37
   4 -12   8    1.40    0.99
   4 -12   8    0.06    0.85
   4 -12   9    0.55    0.89
   4 -12  10    0.16    0.92
  -4  11  12   11.74    1.79
  -4  11  12   11.08    1.60
  -4  11  11   22.00    2.11
  -4  11  10    2.40    0.96
  -4  11   9   15.91    1.84
  -4  11   8   85.64    4.22
   4 -11  -7    3.44    0.92
   4 -11  -6   56.77    3.05
   4 -11  -5    0.63    0.64
   4 -11  -4  189.93    6.38
   4 -11  -3    1.02    0.71
   4 -11  -2    0.97    0.79
   4 -11  -1    2.86    1.01
   4 -11   0   30.40    2.35
  -4  11  -1    2.41    0.75
   4 -11   1    1.15    0.94
  -4  11  -2   17.17    1.49
   4 -11   2   18.39    1.95
   4 -11   3   29.49    2.45
   4 -11   4   40.62    2.88
   4 -11   5    4.09    0.97
   4 -11   5    4.50    1.14
   4 -11   6   12.61    1.56
   4 -11   6   15.55    1.89
   4 -11   7   39.12    2.72
   4 -11   7   44.36    3.14
   4 -11   8   59.13    3.45
   4 -11   8   60.66    3.75
   4 -11   9   97.83    4.72
   4 -11   9  109.14    5.16
   4 -11  10    6.57    1.46
   4 -11  10    6.97    1.46
   4 -11  11    4.52    1.11
   4 -11  11    2.22    1.11
   4 -11  12    6.70    1.52
  -4  10  13    3.10    1.15
  -4  10  12   22.46    2.02
  -4  10  11   72.44    3.75
  -4  10  10    6.85    1.32
  -4  10   9   -0.06    0.76
  -4  10   8   -0.80    0.78
   4 -10  -7    8.04    1.18
  -4  10   7    9.91    1.42
   4 -10  -6    4.77    0.98
   4 -10  -5   78.09    3.53
   4 -10  -4   73.02    3.42
   4 -10  -3    7.22    1.14
   4 -10  -2    7.42    1.18
   4 -10  -1    1.10    0.75
   4 -10   0   95.85    4.18
   4 -10   1   40.62    2.62
   4 -10   2   79.92    3.89
   4 -10   3   23.10    2.09
   4 -10   4    8.57    1.20
   4 -10   4    5.63    1.14
   4 -10   5   -0.32    0.74
   4 -10   5    0.20    0.86
   4 -10   6   69.32    3.41
   4 -10   6   66.81    3.68
   4 -10   7    0.19    0.67
   4 -10   7   -0.16    0.80
   4 -10   8   37.54    2.62
   4 -10   8   38.43    2.82
   4 -10   9    4.90    1.11
   4 -10   9    6.54    1.40
   4 -10  10   32.87    2.62
   4 -10  10   28.71    2.51
   4 -10  11   13.45    1.86
   4 -10  11   11.90    1.68
   4 -10  12   15.82    2.00
   4 -10  12   18.53    2.17
   4 -10  13   12.18    1.91
   4 -10  13    9.90    1.68
  -4   9  14   -1.41    0.95
  -4   9  13    9.20    1.76
  -4   9  13   12.48    1.52
  -4   9  12    2.45    0.94
  -4   9  11   56.41    3.16
  -4   9  10    4.40    1.05
  -4   9   9  354.69    9.85
  -4   9   8    1.27    0.48
  -4   9   8    0.66    0.69
  -4   9   7    5.26    1.08
  -4   9   7    6.35    0.95
  -4   9   6    0.68    0.54
   4  -9  -6    0.77    0.57
   4  -9  -5  159.78    5.26
   4  -9  -4   26.77    1.93
   4  -9  -3   47.51    2.62
   4  -9  -2    0.17    0.64
   4  -9  -1   -0.54    0.72
   4  -9   0    4.44    0.98
   4  -9   1   24.92    1.97
   4  -9   2   10.14    1.36
   4  -9   3   55.28    3.05
   4  -9   4    0.94    0.72
   4  -9   4    0.39    0.74
   4  -9   5   16.94    1.59
   4  -9   5   15.36    1.69
   4  -9   6  205.15    6.46
   4  -9   6  200.27    6.78
   4  -9   7   63.26    3.26
   4  -9   7   65.89    3.54
   4  -9   8  249.06    7.76
   4  -9   8  249.58    7.98
   4  -9   9    9.65    1.48
   4  -9   9    9.48    1.51
   4  -9  10    1.07    0.95
   4  -9  10   -0.36    0.86
   4  -9  11   17.40    2.00
   4  -9  11   15.64    1.86
   4  -9  12    8.65    1.50
   4  -9  12    9.92    1.54
   4  -9  13    0.79    0.81
   4  -9  13    2.05    1.00
   4  -9  14    2.45    1.14
   4  -9  14    1.60    1.05
   4  -9  15   -0.02    0.85
   4  -9  16   10.07    1.79
  -4   8  14    6.38    1.44
  -4   8  13   12.11    1.87
  -4   8  13   13.49    1.44
  -4   8  12   32.54    2.26
  -4   8  11   38.80    2.47
  -4   8  10   10.44    1.41
  -4   8   9   32.25    2.25
  -4   8   9   28.42    1.70
  -4   8   8   37.29    2.40
  -4   8   8   33.46    1.88
  -4   8   7   87.66    3.74
  -4   8   7   80.16    3.18
  -4   8   6   15.18    1.32
  -4   8   6   17.17    1.64
   4  -8  -6   15.84    1.41
  -4   8   5   24.75    1.67
   4  -8  -5   27.47    1.97
  -4   8   4   20.69    1.57
   4  -8  -4   19.25    1.54
  -4   8   3  492.78   11.86
   4  -8  -3  503.05   11.99
   4  -8  -2   16.54    1.48
  -4   8   2   16.04    1.44
   4  -8  -1    0.79    0.65
  -4   8   1   -0.18    0.55
   4  -8   0    0.20    0.65
   4  -8   1   26.53    1.93
   4  -8   2   66.26    3.18
   4  -8   3    1.36    0.78
   4  -8   4    0.78    0.56
   4  -8   4    1.63    0.84
   4  -8   5   70.85    3.17
   4  -8   5   70.02    3.42
   4  -8   6    8.02    1.23
   4  -8   6    9.63    1.33
   4  -8   7   83.36    3.67
   4  -8   7   79.38    3.76
   4  -8   8   13.73    1.57
   4  -8   8   11.18    1.49
  -4   8  -9  133.09    3.47
   4  -8   9  141.20    5.27
  -4   8  -9  123.31    4.35
   4  -8   9  143.54    5.37
   4  -8  10   14.81    1.72
  -4   8 -10   12.45    0.76
  -4   8 -10   10.07    1.14
   4  -8  10   15.18    1.74
   4  -8  11   62.57    3.56
   4  -8  11   64.44    3.54
   4  -8  12    1.42    0.87
   4  -8  12    1.01    0.86
   4  -8  13    4.82    1.22
   4  -8  13    7.75    1.46
   4  -8  14   66.06    3.96
   4  -8  14   67.66    3.84
   4  -8  15    2.68    1.03
   4  -8  15    4.14    1.12
   4  -8  16    1.65    1.07
   4  -8  17   -0.01    0.89
   4  -8  18   -0.98    0.97
  -4   7  15   10.53    1.76
  -4   7  14   77.38    4.34
  -4   7  13    0.46    0.89
  -4   7  13    0.87    0.62
  -4   7  12    0.21    0.59
  -4   7  11   18.90    1.68
  -4   7  10  354.97    9.34
  -4   7  10  339.88    8.23
  -4   7   9    9.89    1.24
  -4   7   9    9.05    0.93
  -4   7   8   97.76    2.51
  -4   7   8   96.01    3.90
  -4   7   8   92.63    3.31
  -4   7   7    6.89    0.52
  -4   7   7    6.85    0.85
  -4   7   7    7.25    1.10
  -4   7   6    1.18    0.31
  -4   7   6    1.20    0.64
  -4   7   6    1.48    0.51
  -4   7   5    4.20    0.47
  -4   7   5    3.05    0.83
  -4   7   5    3.75    0.72
   4  -7  -5    4.41    0.84
  -4   7   4   72.74    2.23
   4  -7  -4   72.30    2.97
  -4   7   4   71.09    2.91
  -4   7   3  155.25    4.07
  -4   7   3  166.53    5.00
   4  -7  -3  164.80    5.03
  -4   7   2   30.11    1.84
   4  -7  -2   31.84    1.91
  -4   7   1    2.63    0.73
   4  -7  -1    2.41    0.77
   4  -7   0   20.76    1.60
  -4   7   0   23.02    1.63
   4  -7   1    7.84    1.05
  -4   7  -1    7.54    0.95
  -4   7  -2  167.51    5.28
   4  -7   2  163.61    5.32
   4  -7   3  505.01   12.21
   4  -7   4  119.65    4.12
   4  -7   4  120.03    4.43
   4  -7   5   46.46    2.40
   4  -7   5   44.39    2.57
   4  -7   6    8.99    1.16
   4  -7   6    7.62    1.15
   4  -7   7  157.77    5.27
   4  -7   7  149.94    5.32
   4  -7   8   62.27    3.12
   4  -7   8   63.42    3.21
   4  -7   9  111.63    4.44
  -4   7  -9   98.18    3.71
   4  -7   9  109.54    4.41
  -4   7 -10   12.37    0.83
   4  -7  10   12.54    1.58
  -4   7 -10   11.79    1.23
   4  -7  10   13.90    1.56
   4  -7  11   14.20    1.72
  -4   7 -11   13.77    0.83
  -4   7 -11   12.90    1.33
   4  -7  11   14.94    1.65
   4  -7  12    1.28    0.98
   4  -7  12   -0.72    0.73
   4  -7  13   41.78    2.94
   4  -7  13   41.11    2.77
   4  -7  14    0.09    1.01
   4  -7  14    1.29    0.87
   4  -7  15   63.84    3.90
   4  -7  15   54.91    3.37
   4  -7  16    4.66    1.37
   4  -7  16    2.80    1.02
   4  -7  17   20.84    2.16
   4  -7  18    0.43    0.90
  -4   6  16    0.88    0.99
  -4   6  15    2.30    1.20
  -4   6  14   11.51    1.67
  -4   6  14   10.72    1.20
  -4   6  13    2.11    1.07
  -4   6  13    2.97    0.75
  -4   6  12   21.14    1.66
  -4   6  11    0.12    0.53
  -4   6  11    0.25    0.33
  -4   6  10   36.63    2.24
  -4   6  10   38.31    1.77
  -4   6   9   45.56    2.48
  -4   6   9   42.98    1.95
  -4   6   8  203.54    6.10
  -4   6   8  193.33    5.31
  -4   6   7    0.73    0.45
  -4   6   7    0.26    0.59
  -4   6   6    0.78    0.42
  -4   6   6    1.19    0.59
  -4   6   5    1.09    0.43
  -4   6   5    1.28    0.63
  -4   6   4  164.15    4.10
  -4   6   4  160.80    4.78
   4  -6  -4  166.97    4.93
  -4   6   3    1.42    0.40
   4  -6  -3    1.16    0.63
  -4   6   3    2.19    0.61
  -4   6   2 1814.69   36.62
  -4   6   2 1898.99   37.56
   4  -6  -2 1911.24   37.64
  -4   6   1   14.48    0.97
   4  -6  -1   14.93    1.28
  -4   6   1   13.69    1.22
  -4   6   0   30.02    1.50
  -4   6   0   29.90    1.81
   4  -6   0   32.26    1.87
   4  -6   1   23.03    1.62
  -4   6  -1   27.03    1.73
  -4   6  -2    4.13    0.67
   4  -6   2    4.18    0.86
  -4   6  -3    0.80    0.48
   4  -6   3    0.78    0.65
   4  -6   4  328.11    8.21
   4  -6   4  316.83    8.47
  -4   6  -4  330.98    8.50
   4  -6   5   96.86    3.58
   4  -6   5   94.30    3.75
  -4   6  -5   99.12    3.75
   4  -6   6  138.78    4.61
   4  -6   6  135.43    4.74
  -4   6  -6  142.35    4.77
   4  -6   7   -0.32    0.65
   4  -6   7   -0.01    0.62
   4  -6   8  160.77    5.37
   4  -6   8  158.53    5.34
   4  -6   9  275.07    7.74
  -4   6  -9  245.77    6.90
   4  -6   9  268.37    7.62
  -4   6 -10   97.67    2.87
   4  -6  10  100.82    4.19
  -4   6 -10   95.14    3.61
   4  -6  10   95.05    4.01
   4  -6  11   11.32    1.48
  -4   6 -11   10.77    0.82
  -4   6 -11   10.36    1.19
   4  -6  11   12.43    1.46
   4  -6  12    2.26    0.86
  -4   6 -12    3.71    0.55
   4  -6  12    6.12    1.18
   4  -6  13   62.37    3.50
  -4   6 -13   56.99    2.03
   4  -6  13   62.29    3.31
   4  -6  14   11.52    1.59
   4  -6  14   10.75    1.44
   4  -6  15   46.53    3.21
   4  -6  15   37.71    2.66
   4  -6  16   33.33    2.79
   4  -6  16   25.37    2.24
   4  -6  17   25.43    2.53
   4  -6  17   29.35    2.38
   4  -6  18   -0.82    0.94
  -4   5  16   -0.45    0.92
  -4   5  15   58.76    3.74
  -4   5  14    0.95    0.86
  -4   5  14    1.09    0.62
  -4   5  13   38.74    2.86
  -4   5  13   38.31    2.16
  -4   5  12   18.27    1.49
  -4   5  11    1.23    0.52
  -4   5  11    1.60    0.45
  -4   5  10    3.01    0.70
  -4   5  10    3.56    0.56
  -4   5   9   29.51    1.89
  -4   5   9   28.45    1.51
  -4   5   8   12.35    1.27
  -4   5   8   11.73    0.98
  -4   5   7   52.41    2.56
  -4   5   7   49.08    2.08
  -4   5   6   32.34    1.96
  -4   5   6   30.34    1.62
  -4   5   5   67.38    2.87
  -4   5   5   66.23    2.55
  -4   5   4    8.91    1.07
  -4   5   4    9.14    0.94
  -4   5   3   65.23    2.81
   4  -5  -3   68.13    2.68
  -4   5   3   66.96    2.62
  -4   5   2 1063.57   21.85
  -4   5   2 1099.74   22.59
   4  -5  -2 1111.24   22.64
  -4   5   1  814.33   17.01
  -4   5   1  838.28   17.68
   4  -5  -1  838.38   17.72
  -4   5   0  850.01   17.86
  -4   5   0  877.67   18.49
   4  -5   0  882.51   18.52
  -4   5  -1  154.77    4.35
  -4   5  -1  165.72    4.79
   4  -5   1  163.25    4.81
  -4   5  -2  112.48    3.54
   4  -5   2  116.20    3.86
  -4   5  -2  121.31    3.90
  -4   5  -3   28.48    1.73
   4  -5   3   28.41    1.76
   4  -5   4  139.03    4.31
  -4   5  -4  144.41    4.53
   4  -5   4  137.29    4.47
   4  -5   5    9.19    1.06
   4  -5   5    6.44    0.94
  -4   5  -5    8.71    1.03
   4  -5   6   26.51    1.75
   4  -5   6   27.89    1.82
  -4   5  -6   26.26    1.74
   4  -5   7    3.65    0.82
  -4   5  -7    3.07    0.75
   4  -5   7    5.01    0.93
   4  -5   8   45.78    2.49
   4  -5   8   46.57    2.45
  -4   5  -8   45.19    2.39
  -4   5  -9   28.57    1.39
   4  -5   9   29.84    2.01
  -4   5  -9   30.09    1.77
  -4   5  -9   29.28    1.94
   4  -5   9   29.88    1.99
  -4   5 -10   21.49    1.19
   4  -5  10   22.25    1.82
  -4   5 -10   21.23    1.53
   4  -5  10   20.25    1.68
   4  -5  11    2.52    0.84
  -4   5 -11    2.97    0.51
  -4   5 -11    2.18    0.67
   4  -5  11    3.51    0.91
   4  -5  12   12.50    1.54
  -4   5 -12   10.99    0.89
   4  -5  12   12.43    1.39
   4  -5  13    6.89    1.25
  -4   5 -13    5.28    0.68
   4  -5  13    3.47    0.94
   4  -5  14  112.95    4.90
  -4   5 -14  103.93    3.28
   4  -5  14  106.90    4.37
   4  -5  15   12.05    1.70
  -4   5 -15   12.19    1.00
   4  -5  15   11.70    1.42
   4  -5  16  133.90    5.73
   4  -5  16  131.24    5.10
   4  -5  17    9.64    1.67
   4  -5  17    5.85    1.15
   4  -5  18    1.13    1.16
   4  -5  18    1.65    0.79
  -4   4  17    1.77    1.07
  -4   4  16   -0.53    1.01
  -4   4  15   25.38    2.39
  -4   4  14    5.03    1.03
  -4   4  14    5.47    0.84
  -4   4  13  100.35    4.57
  -4   4  13   92.26    3.50
  -4   4  12    9.36    1.06
  -4   4  12    8.78    0.79
  -4   4  11   48.15    2.38
  -4   4  11   49.22    1.97
  -4   4  10   84.79    3.25
  -4   4  10   79.71    2.71
  -4   4   9  372.30    9.03
  -4   4   9  350.56    8.24
  -4   4   8    6.08    0.86
  -4   4   8    5.70    0.68
  -4   4   7  316.83    7.97
  -4   4   7  302.39    7.32
  -4   4   6    1.35    0.65
  -4   4   6    1.94    0.52
  -4   4   5    5.36    0.69
  -4   4   5    5.69    0.88
  -4   4   4   18.66    1.38
  -4   4   4   18.87    1.23
  -4   4   3   92.34    3.35
  -4   4   3   98.16    3.17
  -4   4   2    4.85    0.71
  -4   4   2    5.09    0.82
   4  -4  -2    5.18    0.76
  -4   4   1  422.33    9.76
   4  -4  -1  431.47    9.84
  -4   4   0   49.32    1.92
  -4   4   0   54.65    2.26
   4  -4   0   52.52    2.25
  -4   4  -1  727.29   15.46
  -4   4  -1  752.99   15.92
   4  -4   1  746.66   15.91
  -4   4  -2   40.81    1.81
  -4   4  -2   41.88    2.00
   4  -4   2   43.88    2.07
  -4   4  -3    4.75    0.70
   4  -4   3    4.16    0.79
  -4   4  -3    4.19    0.71
  -4   4  -4  313.63    7.69
   4  -4   4  315.97    7.86
  -4   4  -4  319.33    7.84
   4  -4   5  317.69    7.94
  -4   4  -5  326.15    8.03
   4  -4   5  321.17    8.05
   4  -4   6   80.98    3.13
   4  -4   6   78.92    3.10
  -4   4  -6   86.31    3.16
   4  -4   7    1.33    0.64
  -4   4  -7    0.56    0.45
   4  -4   7    1.18    0.61
   4  -4   8  201.52    5.93
   4  -4   8  193.53    5.72
  -4   4  -8  197.39    5.70
  -4   4  -9   85.19    2.70
   4  -4   9   89.32    3.56
  -4   4  -9   82.30    3.18
   4  -4   9   87.51    3.41
  -4   4  -9   82.05    3.28
  -4   4 -10   55.81    2.12
   4  -4  10   60.86    2.97
  -4   4 -10   58.04    2.63
  -4   4 -10   60.10    2.74
   4  -4  10   57.86    2.83
   4  -4  11    1.39    0.73
  -4   4 -11    0.83    0.43
  -4   4 -11    2.33    0.75
  -4   4 -11    1.40    0.53
   4  -4  11    1.11    0.66
   4  -4  12   48.53    2.77
  -4   4 -12   47.43    1.97
  -4   4 -12   46.47    2.44
   4  -4  12   47.43    2.53
   4  -4  13    4.70    1.11
  -4   4 -13    4.09    0.67
   4  -4  13    6.03    1.04
  -4   4 -14   41.06    1.95
   4  -4  14   42.84    2.78
   4  -4  14   44.04    2.55
   4  -4  15   67.25    3.72
  -4   4 -15   70.15    2.70
   4  -4  15   65.53    3.23
  -4   4 -16   67.57    2.75
   4  -4  16   72.46    3.95
   4  -4  16   71.49    3.38
   4  -4  17    3.93    1.00
   4  -4  17    1.97    0.79
   4  -4  18   31.71    2.75
   4  -4  18   32.65    2.29
   4  -4  19    2.59    1.21
  -4   3  17    1.13    0.97
  -4   3  16    3.34    0.99
  -4   3  15   19.55    2.09
  -4   3  14   49.74    3.17
  -4   3  14   52.01    2.43
  -4   3  13   68.32    2.41
  -4   3  13   74.11    3.82
  -4   3  13   74.09    2.97
  -4   3  12   13.34    1.62
  -4   3  12   13.36    1.20
  -4   3  12   12.80    0.97
  -4   3  11    4.74    0.80
  -4   3  11    4.32    0.60
  -4   3  10    4.19    0.74
  -4   3  10    3.35    0.58
  -4   3   9    0.67    0.47
  -4   3   9    1.10    0.43
  -4   3   8   -0.14    0.49
  -4   3   8    0.38    0.32
  -4   3   7  230.69    6.00
  -4   3   7  200.01    5.32
  -4   3   6   96.03    3.37
  -4   3   6   89.52    2.94
  -4   3   5  134.83    4.11
  -4   3   5  120.67    3.63
  -4   3   4    2.51    0.70
  -4   3   4    1.26    0.50
  -4   3   3  710.73   14.72
  -4   3   3  644.69   14.25
  -4   3   2  230.10    5.86
  -4   3   2  207.32    5.46
  -4   3   1 1284.04   25.67
  -4   3   1 1214.39   25.35
   4  -3  -1 1272.92   25.52
  -4   3   0   38.56    1.76
   4  -3   0   35.10    1.76
  -4   3  -1    5.45    0.67
   4  -3   1    4.57    0.77
  -4   3  -1    6.66    0.86
  -4   3  -2   11.21    0.92
   4  -3   2   11.15    1.08
  -4   3  -2   12.36    1.08
  -4   3  -3   40.83    1.85
  -4   3  -3   45.56    2.03
   4  -3   3   46.51    2.04
  -4   3  -4   11.59    0.98
  -4   3  -4   10.08    1.00
   4  -3   4   13.11    1.10
  -4   3  -5  790.26   17.02
   4  -3   5  803.10   17.06
   4  -3   5  812.71   17.09
  -4   3  -5  805.54   17.05
   4  -3   6    2.65    0.72
  -4   3  -6    1.99    0.50
   4  -3   6    3.24    0.72
   4  -3   7   14.29    1.25
  -4   3  -7   13.45    1.13
   4  -3   7   14.55    1.22
   4  -3   8   82.00    3.20
  -4   3  -8   80.24    3.00
   4  -3   8   80.76    3.06
  -4   3  -8   80.25    3.02
  -4   3  -9  145.73    4.04
   4  -3   9  149.61    4.87
  -4   3  -9  147.86    4.57
   4  -3   9  152.48    4.64
  -4   3  -9  150.31    4.57
  -4   3 -10   15.54    1.09
   4  -3  10   15.10    1.48
  -4   3 -10   17.02    1.36
   4  -3  10   15.98    1.32
  -4   3 -10   16.45    1.34
   4  -3  11  101.20    3.98
  -4   3 -11   96.54    3.15
  -4   3 -11  104.56    3.75
   4  -3  11   97.64    3.62
  -4   3 -11  100.90    3.63
   4  -3  12   34.35    2.28
  -4   3 -12   36.24    1.77
  -4   3 -12   38.01    2.17
   4  -3  12   36.17    2.08
  -4   3 -12   34.14    1.97
   4  -3  13   18.41    1.74
  -4   3 -13   18.47    1.28
   4  -3  13   19.22    1.54
  -4   3 -13   18.73    1.50
   4  -3  14   18.73    1.82
  -4   3 -14   18.25    1.31
   4  -3  14   18.03    1.52
  -4   3 -14   18.61    1.52
  -4   3 -15   83.30    3.13
   4  -3  15   82.56    4.02
   4  -3  15   79.10    3.40
   4  -3  16    1.42    0.81
  -4   3 -16    1.64    0.60
   4  -3  16    1.08    0.65
   4  -3  17   83.27    4.27
  -4   3 -17   78.74    3.22
   4  -3  17   80.14    3.48
   4  -3  18    0.85    0.98
   4  -3  18    0.74    0.61
   4  -3  19   10.47    2.02
  -4   2  17   10.75    1.72
  -4   2  16   13.59    1.80
  -4   2  15    2.09    1.01
  -4   2  15    0.72    0.49
  -4   2  14  114.23    4.90
  -4   2  14  110.73    3.37
  -4   2  14  110.69    3.81
  -4   2  13    6.52    0.76
  -4   2  13    5.19    1.09
  -4   2  13    5.54    0.83
  -4   2  12  151.14    4.30
  -4   2  12  159.74    5.71
  -4   2  12  160.53    4.80
  -4   2  11   20.12    1.43
  -4   2  10  230.39    6.05
   4  -2 -10  207.65    5.93
  -4   2   9    1.58    0.55
   4  -2  -9    1.19    0.51
  -4   2   8   22.67    1.46
   4  -2  -8   20.48    1.41
  -4   2   7   11.75    1.07
   4  -2  -7    9.56    0.96
  -4   2   6    7.55    0.92
   4  -2  -6    6.34    0.80
  -4   2   5   13.55    1.15
   4  -2  -5   12.94    1.07
  -4   2   5   11.13    0.93
  -4   2   4   10.89    1.04
  -4   2   4   11.34    0.90
  -4   2   3   12.28    1.07
  -4   2   3    8.74    0.88
  -4   2   2  187.46    4.94
  -4   2   2  167.28    4.57
  -4   2   1    1.77    0.53
  -4   2   1    1.37    0.61
  -4   2   0   78.90    2.75
  -4   2   0   75.65    2.61
  -4   2  -1  108.83    3.34
  -4   2  -1  102.25    3.20
   4  -2   1  113.02    3.37
  -4   2  -2   21.79    1.25
   4  -2   2   21.04    1.36
  -4   2  -3  577.06   12.38
  -4   2  -3  570.55   12.47
   4  -2   3  587.10   12.53
  -4   2  -4   90.13    2.95
  -4   2  -4   93.04    3.01
   4  -2   4   92.00    3.06
  -4   2  -5    0.76    0.48
  -4   2  -5    1.83    0.50
   4  -2   5    1.90    0.63
  -4   2  -6  149.00    4.35
   4  -2   6  152.11    4.39
   4  -2   6  148.50    4.25
  -4   2  -6  145.27    4.21
   4  -2   7   15.18    1.23
   4  -2   7   14.71    1.14
  -4   2  -7   12.95    1.03
   4  -2   8   10.35    1.10
  -4   2  -8   11.79    1.07
  -4   2  -8   12.70    1.04
   4  -2   8   10.89    1.02
  -4   2  -9   23.78    1.33
   4  -2   9   24.52    1.67
  -4   2  -9   22.63    1.50
   4  -2   9   24.09    1.49
  -4   2  -9   22.65    1.43
  -4   2 -10    7.81    0.79
   4  -2  10    7.91    1.04
  -4   2 -10    9.05    1.07
  -4   2 -10    7.54    0.87
   4  -2  10    6.17    0.87
   4  -2  11    6.93    1.09
  -4   2 -11    5.89    0.74
  -4   2 -11    6.92    0.92
   4  -2  11    5.69    0.82
  -4   2 -11    6.19    0.84
   4  -2  12   12.15    1.36
  -4   2 -12   10.67    0.97
  -4   2 -12    9.79    1.15
  -4   2 -12   12.68    1.13
   4  -2  12   10.48    1.08
   4  -2  13    0.90    0.71
  -4   2 -13    0.92    0.47
  -4   2 -13   -0.02    0.45
   4  -2  13    1.08    0.54
   4  -2  14  109.84    4.39
  -4   2 -14   99.26    3.53
   4  -2  14  101.09    3.66
  -4   2 -14  100.50    3.67
  -4   2 -15   25.93    1.71
   4  -2  15   28.06    2.19
  -4   2 -15   27.08    1.75
  -4   2 -15   25.70    1.41
   4  -2  15   24.78    1.70
   4  -2  16   38.55    2.69
  -4   2 -16   37.43    2.15
  -4   2 -16   39.20    2.20
   4  -2  16   40.50    2.20
   4  -2  17  128.60    5.33
  -4   2 -17  120.05    4.38
   4  -2  17  129.13    4.42
  -4   2 -18   -0.73    0.70
   4  -2  18    0.73    0.84
   4  -2  18    1.88    0.68
   4  -2  19    1.20    0.94
   4  -2  20    0.43    0.86
  -4   1  18    8.49    1.73
  -4   1  17    0.89    0.82
  -4   1  16   -0.17    0.84
  -4   1  15    1.76    0.82
  -4   1  15    2.91    0.65
  -4   1  14   74.02    3.77
  -4   1  14   74.94    2.76
  -4   1  14   78.76    3.10
  -4   1  13   29.06    2.24
  -4   1  13   31.11    1.65
  -4   1  13   30.25    1.80
   4  -1 -13   28.74    1.79
  -4   1  12  164.86    5.70
  -4   1  12  160.67    4.54
   4  -1 -12  155.50    4.89
  -4   1  12  161.58    4.92
  -4   1  11   45.30    2.00
  -4   1  11   50.64    2.84
  -4   1  11   49.08    2.27
   4  -1 -11   47.91    2.31
  -4   1  10   16.49    1.63
   4  -1 -10   18.86    1.38
  -4   1  10   20.75    1.43
   4  -1  -9   15.71    1.26
  -4   1   9   19.23    1.38
  -4   1   8  251.41    6.55
   4  -1  -8  257.49    6.65
  -4   1   7   42.39    2.02
   4  -1  -7   42.44    2.02
   4  -1  -6  166.32    4.73
  -4   1   6  164.67    4.70
  -4   1   5    9.04    0.92
   4  -1  -5    9.18    0.93
   4  -1  -4   15.84    1.16
  -4   1   4   16.21    1.21
  -4   1   3   45.75    2.02
   4  -1  -3   48.50    2.03
   4  -1  -2  252.06    6.27
  -4   1   2  258.17    6.36
  -4   1   1    0.77    0.63
   4  -1  -1    1.32    0.50
  -4   1   0   20.96    1.34
   4  -1   0   18.33    1.16
  -4   1   0   16.93    1.18
  -4   1  -1   21.38    1.30
  -4   1  -1   20.46    1.18
  -4   1  -2   82.86    2.67
  -4   1  -2   75.63    2.57
  -4   1  -3   34.80    1.60
   4  -1   3   35.71    1.67
  -4   1  -3   32.44    1.56
  -4   1  -4  721.27   15.39
  -4   1  -4  744.23   15.27
  -4   1  -4  747.32   15.35
   4  -1   4  728.11   15.38
  -4   1  -5   31.65    1.60
  -4   1  -5   31.70    1.52
   4  -1   5   33.32    1.59
  -4   1  -6 1390.57   28.17
  -4   1  -6 1389.05   27.94
   4  -1   6 1403.15   27.99
  -4   1  -7   13.74    1.12
   4  -1   7   15.44    1.20
  -4   1  -7   15.71    1.07
   4  -1   7   14.02    1.09
  -4   1  -8    0.48    0.38
   4  -1   8    0.40    0.54
  -4   1  -8    0.71    0.47
   4  -1   8    0.57    0.50
  -4   1  -8    0.61    0.40
   4  -1   9   84.54    3.15
  -4   1  -9   80.22    2.76
  -4   1  -9   84.07    3.09
  -4   1  -9   78.95    2.76
   4  -1   9   81.69    2.80
   4  -1  10  155.23    4.80
  -4   1 -10  145.70    4.26
  -4   1 -10  153.22    4.69
  -4   1 -10  144.89    4.22
   4  -1  10  151.88    4.31
   4  -1  11  219.20    6.25
  -4   1 -11  213.38    5.65
  -4   1 -11  220.05    6.15
  -4   1 -11  202.05    5.51
   4  -1  11  213.16    5.62
   4  -1  12   82.49    3.46
  -4   1 -12   80.21    2.97
  -4   1 -12   81.61    3.36
  -4   1 -12   80.94    2.89
   4  -1  12   82.26    2.94
  -4   1 -13   15.73    1.25
   4  -1  13   15.36    1.52
  -4   1 -13   14.44    1.11
   4  -1  13   14.89    1.19
   4  -1  14   54.26    2.92
  -4   1 -14   52.02    2.43
  -4   1 -14   54.72    2.37
   4  -1  14   50.94    2.30
  -4   1 -15   12.97    1.16
  -4   1 -15   15.11    1.34
   4  -1  15   15.31    1.63
  -4   1 -15   13.76    0.87
   4  -1  15   15.24    1.26
  -4   1 -16  124.11    4.05
  -4   1 -16  123.90    4.38
   4  -1  16  125.55    5.02
  -4   1 -16  126.32    3.33
   4  -1  16  125.76    4.10
  -4   1 -17    0.46    0.60
   4  -1  17    2.35    0.88
   4  -1  17    3.25    0.70
   4  -1  18   28.05    2.38
  -4   1 -18   24.62    1.87
   4  -1  18   26.51    1.69
   4  -1  19    5.83    1.24
   4  -1  20    3.06    1.10
   4  -1  21   12.01    1.76
  -4   0  18    4.45    1.23
  -4   0  17   34.17    2.77
  -4   0  16    0.59    0.85
  -4   0  15   18.87    1.95
  -4   0  14    0.95    0.76
  -4   0  14   -0.33    0.46
  -4   0  14    1.61    0.67
  -4   0  13  379.72    9.15
  -4   0  13  381.33   10.38
  -4   0  13  399.31    9.52
   4   0 -13  370.83    9.53
  -4   0  12    3.90    0.97
  -4   0  12    4.02    0.71
   4   0 -12    3.66    0.77
  -4   0  12    3.53    0.72
  -4   0  11    4.80    0.71
  -4   0  11    4.68    1.00
   4   0 -11    5.75    0.89
  -4   0  11    5.32    0.76
  -4   0  11    6.18    1.00
  -4   0  10    3.19    0.62
  -4   0  10    4.65    0.87
  -4   0  10    3.87    0.74
   4   0 -10    3.22    0.70
  -4   0   9  103.14    3.52
   4   0  -9  104.84    3.65
  -4   0   8  149.02    4.43
   4   0  -8  147.89    4.54
  -4   0   7   68.67    2.63
   4   0  -7   65.90    2.67
  -4   0   6  105.39    3.39
   4   0  -6  103.91    3.47
  -4   0   5  372.95    8.70
   4   0  -5  370.96    8.76
   4   0  -4   68.24    2.56
  -4   0   4   63.97    2.44
  -4   0   3    5.60    0.75
   4   0  -3    5.65    0.75
   4   0  -2    1.98    0.59
  -4   0   2    2.50    0.71
   4   0  -1   40.42    1.78
  -4   0   1   37.92    1.75
  -4   0   0    9.79    0.96
   4   0   0   10.73    0.92
  -4   0  -1    5.47    0.87
   4   0   1    3.65    0.60
   4   0   2   35.83    1.57
  -4   0  -2   35.88    1.61
  -4   0  -2   34.60    1.56
   4   0   3   64.85    2.17
  -4   0  -3   69.90    2.31
  -4   0  -3   64.78    2.23
  -4   0  -4  380.63    8.17
  -4   0  -4  357.06    8.16
  -4   0  -5  200.05    5.08
  -4   0  -5  201.41    4.82
  -4   0  -5  195.28    4.90
  -4   0  -6  306.43    7.34
  -4   0  -6  314.48    6.95
  -4   0  -6  305.82    7.10
   4   0   6  317.51    7.20
  -4   0  -7   17.92    1.24
  -4   0  -7   18.06    1.22
  -4   0  -7   17.78    0.98
  -4   0  -7   19.12    1.11
   4   0   7   19.20    1.16
  -4   0  -8    0.52    0.42
   4   0   8    0.94    0.61
  -4   0  -8    0.92    0.53
  -4   0  -8    0.06    0.37
   4   0   8    0.62    0.47
  -4   0  -8    1.02    0.40
  -4   0  -8    0.33    0.30
   4   0   9    1.86    0.66
  -4   0  -9    2.87    0.57
  -4   0  -9    2.16    0.62
   4   0   9    2.12    0.49
  -4   0  -9    1.91    0.44
  -4   0  -9    1.78    0.36
  -4   0 -10   32.25    1.84
   4   0  10   29.36    1.80
  -4   0 -10   30.63    1.65
  -4   0 -10   31.46    1.28
  -4   0 -10   29.47    1.45
   4   0  10   30.33    1.51
   4   0  11   -0.54    0.56
  -4   0 -11   -0.81    0.55
  -4   0 -11   -0.19    0.47
   4   0  11    0.22    0.44
  -4   0 -11    0.26    0.29
  -4   0 -11    0.79    0.31
  -4   0 -12 1537.81   32.41
   4   0  12 1599.46   32.40
  -4   0 -12 1589.94   31.88
  -4   0 -12 1563.00   30.67
  -4   0 -12 1536.25   31.27
   4   0  12 1585.85   31.38
   4   0  13   80.21    3.43
  -4   0 -13   79.61    3.10
  -4   0 -13   79.59    2.21
  -4   0 -13   71.57    2.58
   4   0  13   82.49    2.78
   4   0  14  148.79    5.15
  -4   0 -14  148.94    4.76
  -4   0 -14  149.15    3.52
  -4   0 -14  147.95    3.48
  -4   0 -14  149.29    4.26
   4   0  14  150.69    4.28
  -4   0 -15    0.08    0.38
  -4   0 -15    1.44    0.54
   4   0  15    0.43    0.67
  -4   0 -15    1.40    0.25
  -4   0 -15    1.50    0.28
   4   0  15    2.62    0.56
   4   0  16  343.42    9.54
  -4   0 -16  348.22    9.08
  -4   0 -16  335.16    8.13
   4   0  16  347.90    8.23
  -4   0 -17   20.30    1.70
   4   0  17   14.99    1.70
   4   0  17   19.25    1.28
   4   0  18   70.52    3.66
  -4   0 -18   67.17    3.32
   4   0  19    2.51    1.06
   4   0  20    0.00    0.89
   4   0  21    1.34    0.99
   4   0  22   18.59    2.16
  -4  -1  18    3.24    1.09
  -4  -1  17    2.15    0.98
  -4  -1  16   -1.17    1.59
  -4  -1  15    5.18    0.79
  -4  -1  15    6.38    1.17
  -4  -1  14   22.64    1.60
  -4  -1  14   21.31    1.96
  -4  -1  13   63.85    3.25
  -4  -1  13   64.62    2.76
   4   1 -13   66.02    2.99
  -4  -1  12   60.25    3.05
  -4  -1  12   60.09    2.60
  -4  -1  12   59.34    2.67
   4   1 -12   56.76    2.76
  -4  -1  12   62.22    2.90
  -4  -1  11  114.38    4.30
  -4  -1  11  109.12    3.76
   4   1 -11  120.55    4.17
  -4  -1  11  117.49    3.96
  -4  -1  11  111.57    4.11
  -4  -1  10   14.83    1.18
  -4  -1  10   14.58    1.43
   4   1 -10   16.18    1.36
  -4  -1  10   17.13    1.33
  -4  -1  10   13.91    1.29
  -4  -1   9  199.09    5.41
   4   1  -9  201.49    5.68
  -4  -1   9  189.40    5.43
  -4  -1   8   11.86    1.13
   4   1  -8   10.33    1.01
   4   1  -7   62.69    2.57
  -4  -1   7   61.45    2.50
  -4  -1   6    0.46    0.47
   4   1  -6    0.79    0.49
  -4  -1   5  168.04    4.70
   4   1  -5  171.67    4.80
   4   1  -4   19.38    1.31
  -4  -1   4   20.43    1.28
   4   1  -3    5.47    0.74
  -4  -1   3    5.59    0.78
  -4  -1   2    7.53    0.87
   4   1  -2    7.54    0.85
   4   1  -1   57.89    2.18
  -4  -1   1   54.67    2.13
   4   1   0  131.09    3.63
  -4  -1   0  123.73    3.57
  -4  -1  -1  358.73    7.96
   4   1   1  352.26    8.04
  -4  -1  -2    6.70    0.75
   4   1   2    8.54    0.79
  -4  -1  -3  457.74    9.86
   4   1   3  465.37    9.92
   4   1   4   73.96    2.26
  -4  -1  -4   70.12    2.24
  -4  -1  -5  860.06   17.67
   4   1   5  881.03   17.66
  -4  -1  -5  895.63   17.85
  -4  -1  -6  344.50    7.77
  -4  -1  -6  333.62    7.64
  -4  -1  -6  320.32    7.17
  -4  -1  -6  329.42    7.36
  -4  -1  -7  330.91    7.74
  -4  -1  -7  344.24    7.70
  -4  -1  -7  340.42    7.71
  -4  -1  -7  311.34    7.01
  -4  -1  -7  318.75    7.23
  -4  -1  -8    9.90    0.98
  -4  -1  -8    9.64    0.88
  -4  -1  -8   10.06    0.93
  -4  -1  -8    9.13    0.61
  -4  -1  -8   10.35    0.75
  -4  -1  -9   33.02    1.79
  -4  -1  -9   32.07    1.68
  -4  -1  -9   29.75    1.61
  -4  -1  -9   28.39    1.10
  -4  -1  -9   31.75    1.37
  -4  -1 -10  193.82    5.43
   4   1  10  193.28    5.32
  -4  -1 -10  181.69    5.12
  -4  -1 -10  178.00    4.12
  -4  -1 -10  186.33    4.58
  -4  -1 -11  126.89    4.19
   4   1  11  124.56    4.03
  -4  -1 -11  117.73    3.87
  -4  -1 -11  113.43    2.76
  -4  -1 -11  120.58    3.31
  -4  -1 -12   61.45    2.79
   4   1  12   56.50    2.63
  -4  -1 -12   54.54    2.48
  -4  -1 -12   53.37    1.42
   4   1  12   58.14    2.08
  -4  -1 -12   56.70    2.00
   4   1  13  246.26    6.76
  -4  -1 -13  241.46    6.55
  -4  -1 -13  223.38    5.53
   4   1  14   49.06    2.59
  -4  -1 -14   49.36    2.48
  -4  -1 -14   47.06    1.85
  -4  -1 -15   -0.46    0.73
   4   1  15    1.59    0.71
  -4  -1 -15    1.29    0.37
  -4  -1 -16    0.66    0.61
   4   1  16    0.94    0.66
  -4  -1 -16    1.01    0.39
  -4  -1 -17   16.09    1.58
   4   1  17   14.35    1.60
  -4  -1 -18  169.59    5.87
   4   1  18  165.21    5.98
  -4  -1 -19    3.91    1.13
   4   1  19    0.73    0.80
   4   1  20   15.42    1.87
   4   1  21   -1.69    1.14
   4   1  22   30.98    2.68
   4   1  23    2.25    1.29
  -4  -2  19    1.27    1.08
  -4  -2  18   41.64    3.11
  -4  -2  17   -0.17    0.79
  -4  -2  16    1.12    0.77
  -4  -2  15   20.97    1.96
  -4  -2  15   19.80    1.61
  -4  -2  14   23.73    2.03
  -4  -2  14   24.63    1.75
  -4  -2  13    0.96    0.72
  -4  -2  13    0.33    0.57
   4   2 -13    1.42    0.66
  -4  -2  13    1.52    0.74
  -4  -2  12   38.58    2.34
  -4  -2  12   36.19    2.09
   4   2 -12   39.89    2.28
  -4  -2  12   38.84    2.18
  -4  -2  11    1.89    0.67
  -4  -2  11    1.01    0.62
  -4  -2  11    2.38    0.68
   4   2 -11    1.70    0.55
  -4  -2  11    2.95    0.77
  -4  -2  10   40.97    2.24
  -4  -2  10   37.76    2.03
   4   2 -10   42.31    2.22
  -4  -2  10   40.18    2.11
  -4  -2  10   37.25    2.05
  -4  -2   9   97.35    3.57
  -4  -2   9   97.06    3.43
  -4  -2   9   95.98    3.50
   4   2  -9  104.74    3.66
  -4  -2   8    0.28    0.47
   4   2  -8    0.24    0.43
  -4  -2   8    0.83    0.54
  -4  -2   7  218.27    5.85
  -4  -2   7  214.69    5.90
   4   2  -7  233.00    6.10
  -4  -2   6  642.74   14.31
   4   2  -6  672.05   14.44
  -4  -2   5  636.13   13.80
   4   2  -5  620.75   13.73
   4   2  -4  445.83    9.97
  -4  -2   4  424.18    9.85
  -4  -2   3    0.97    0.51
   4   2  -3    1.50    0.56
   4   2  -2  246.03    6.03
  -4  -2   2  236.52    5.96
   4   2  -1  476.98   10.40
  -4  -2   1  468.19   10.36
  -4  -2   0   69.37    2.42
   4   2   0   71.43    2.41
  -4  -2  -1    3.07    0.69
   4   2   1    3.78    0.59
  -4  -2  -2   72.17    2.35
   4   2   2   74.20    2.35
   4   2   3   64.98    2.12
  -4  -2  -3   62.76    2.10
  -4  -2  -4   16.27    0.98
   4   2   4   15.54    0.93
  -4  -2  -5   98.75    2.94
   4   2   5   90.85    2.61
  -4  -2  -5   96.62    2.63
  -4  -2  -6    2.20    0.58
  -4  -2  -6    2.46    0.45
   4   2   6    1.71    0.41
  -4  -2  -6    2.62    0.64
  -4  -2  -7 1589.72   31.29
  -4  -2  -7 1585.91   31.28
  -4  -2  -7 1597.64   31.10
   4   2   7 1485.02   30.33
  -4  -2  -7 1592.63   30.37
  -4  -2  -8    1.45    0.52
  -4  -2  -8    1.56    0.50
  -4  -2  -8    1.11    0.56
  -4  -2  -8    1.06    0.24
  -4  -2  -8    1.65    0.42
  -4  -2  -9   52.22    2.32
  -4  -2  -9   52.99    2.17
  -4  -2  -9   56.12    2.35
  -4  -2  -9   52.29    1.43
  -4  -2  -9   51.12    1.75
   4   2  10    1.50    0.68
  -4  -2 -10    2.72    0.68
  -4  -2 -10    1.69    0.65
  -4  -2 -10    1.28    0.14
  -4  -2 -10    1.91    0.38
  -4  -2 -11  288.94    7.52
   4   2  11  295.28    7.81
  -4  -2 -11  310.85    7.84
  -4  -2 -11  288.36    6.51
   4   2  12   67.47    2.83
  -4  -2 -12   67.83    2.89
   4   2  12   67.48    3.07
  -4  -2 -12   71.39    3.07
  -4  -2 -12   67.91    2.08
   4   2  13  278.08    7.33
  -4  -2 -13  280.12    7.41
   4   2  13  282.37    7.74
  -4  -2 -13  259.00    5.99
   4   2  14    5.39    1.06
  -4  -2 -14    5.19    0.52
   4   2  14    6.63    1.02
  -4  -2 -14    4.04    0.92
   4   2  15   17.94    1.75
  -4  -2 -15   16.86    0.86
  -4  -2 -15   16.72    1.51
   4   2  15   15.10    1.43
   4   2  16   39.63    2.66
  -4  -2 -16   34.76    1.30
   4   2  16   33.44    2.22
  -4  -2 -16   34.60    2.29
   4   2  17   15.08    1.81
  -4  -2 -17   15.57    1.63
   4   2  17   16.96    1.69
   4   2  18   28.13    2.34
   4   2  18   24.74    2.06
  -4  -2 -18   26.95    2.14
  -4  -2 -19   37.51    2.71
   4   2  19   35.55    2.85
   4   2  19   36.07    2.59
   4   2  20    1.06    0.85
   4   2  21    2.03    0.92
  -4  -3  18   18.40    2.06
  -4  -3  17    1.21    0.87
  -4  -3  16   18.31    1.93
  -4  -3  15    1.55    0.80
  -4  -3  15    1.28    0.58
  -4  -3  14    8.13    1.25
  -4  -3  14    8.58    1.18
  -4  -3  13   10.45    1.32
  -4  -3  13   11.89    1.26
  -4  -3  13   11.03    1.14
  -4  -3  12  241.31    7.02
  -4  -3  12  259.66    7.30
   4   3 -12  255.33    7.26
  -4  -3  12  255.97    6.85
  -4  -3  11   39.48    2.22
  -4  -3  11   39.30    2.17
   4   3 -11   35.51    2.15
  -4  -3  11   35.26    1.96
  -4  -3  10   13.41    1.28
  -4  -3  10   13.35    1.23
   4   3 -10   14.71    1.33
  -4  -3  10   14.87    1.25
  -4  -3   9    1.63    0.63
  -4  -3   9    1.27    0.57
  -4  -3   9    2.32    0.65
   4   3  -9    3.05    0.73
  -4  -3   8  370.35    8.93
  -4  -3   8  371.31    9.16
   4   3  -8  391.06    9.34
  -4  -3   8  371.04    9.19
  -4  -3   7   20.42    1.46
   4   3  -7   20.77    1.49
  -4  -3   7   22.42    1.52
  -4  -3   6   82.79    3.03
   4   3  -6   80.89    3.06
  -4  -3   6   79.62    3.01
  -4  -3   5    2.41    0.64
  -4  -3   5    1.79    0.60
   4   3  -5    2.99    0.62
   4   3  -4  345.67    8.19
  -4  -3   4  328.72    8.10
  -4  -3   3    1.52    0.66
   4   3  -3    0.97    0.46
  -4  -3   2  294.57    7.19
   4   3  -2  303.61    7.24
  -4  -3   1  305.92    7.33
   4   3  -1  309.38    7.30
   4   3   0 1266.88   25.69
  -4  -3   0 1287.53   25.77
   4   3   1  674.85   14.28
  -4  -3  -1  693.75   14.38
  -4  -3  -2 1698.90   33.39
   4   3   2 1683.08   33.37
   4   3   3   17.11    1.00
  -4  -3  -3   17.96    1.08
  -4  -3  -4  180.02    4.53
   4   3   4  182.30    4.47
  -4  -3  -4  188.39    4.49
  -4  -3  -5   74.67    2.46
   4   3   5   77.94    2.29
  -4  -3  -5   79.08    2.31
  -4  -3  -5   75.10    2.60
  -4  -3  -6    6.45    0.71
   4   3   6    6.92    0.59
  -4  -3  -6    7.40    0.62
  -4  -3  -6    8.39    0.90
  -4  -3  -7   11.16    0.98
  -4  -3  -7   11.96    0.91
  -4  -3  -7   11.56    1.01
  -4  -3  -7   10.29    0.63
   4   3   7   11.47    0.68
  -4  -3  -8   -0.50    0.52
   4   3   8    0.16    0.52
  -4  -3  -8    0.25    0.37
  -4  -3  -8    0.84    0.61
  -4  -3  -8    0.47    0.26
   4   3   8    0.28    0.23
  -4  -3  -8    0.47    0.29
  -4  -3  -9    5.31    0.79
  -4  -3  -9    5.54    0.70
   4   3   9    5.72    0.87
  -4  -3  -9    6.22    0.82
  -4  -3  -9    5.47    0.52
  -4  -3 -10   33.59    1.67
  -4  -3 -10   33.28    1.86
   4   3  10   34.19    1.92
  -4  -3 -10   33.39    1.90
  -4  -3 -10   32.47    1.22
  -4  -3 -11   64.54    2.78
   4   3  11   63.28    2.77
  -4  -3 -11   63.91    2.81
   4   3  11   63.60    2.84
  -4  -3 -11   62.76    1.84
   4   3  12   44.34    2.33
  -4  -3 -12   43.66    2.29
  -4  -3 -12   47.87    2.44
   4   3  12   43.45    2.41
  -4  -3 -12   41.79    1.37
   4   3  13  161.12    5.15
  -4  -3 -13  153.13    5.03
   4   3  13  151.87    5.21
  -4  -3 -13  151.88    3.49
  -4  -3 -14    8.51    1.16
   4   3  14    9.57    1.34
  -4  -3 -14    8.26    0.49
  -4  -3 -15   54.36    2.86
   4   3  15   53.56    3.01
  -4  -3 -16   13.93    1.54
   4   3  16   14.53    1.67
  -4  -3 -17  176.03    6.21
   4   3  17  193.31    6.70
  -4  -3 -18    4.20    1.17
   4   3  18    5.31    1.37
  -4  -3 -19   94.10    4.52
   4   3  19  106.89    5.01
   4   3  20    0.15    0.85
   4   3  21    5.66    1.31
  -4  -4  17    7.09    1.34
  -4  -4  16    9.29    1.26
  -4  -4  16    8.85    1.44
  -4  -4  15   38.63    2.59
  -4  -4  15   38.82    2.55
  -4  -4  14   21.76    1.85
  -4  -4  14   21.34    1.79
  -4  -4  13   25.21    1.92
  -4  -4  13   27.35    2.05
  -4  -4  12   55.39    2.41
  -4  -4  12   55.81    2.76
  -4  -4  12   57.04    2.90
  -4  -4  11   29.18    1.97
  -4  -4  11   31.35    1.96
  -4  -4  11   34.32    1.77
  -4  -4  10    8.15    1.11
  -4  -4  10    8.34    1.03
   4   4 -10    7.39    1.02
  -4  -4  10    6.97    0.83
  -4  -4   9   76.80    2.88
  -4  -4   9   74.65    3.15
   4   4  -9   76.89    3.22
  -4  -4   9   69.52    2.64
  -4  -4   8  142.18    4.19
  -4  -4   8  140.65    4.64
   4   4  -8  147.59    4.72
  -4  -4   7  185.61    4.95
  -4  -4   7  187.15    5.51
   4   4  -7  192.32    5.59
  -4  -4   6  344.38    7.95
  -4  -4   6  347.31    8.65
  -4  -4   6  344.85    8.64
   4   4  -6  362.71    8.77
  -4  -4   5  119.11    3.96
  -4  -4   5  119.71    3.95
   4   4  -5  123.72    4.01
  -4  -4   4   50.39    2.30
  -4  -4   4   52.02    2.31
   4   4  -4   52.57    2.32
  -4  -4   3    9.11    1.00
   4   4  -3    8.54    0.93
  -4  -4   3    8.23    0.99
  -4  -4   2 1402.43   28.64
   4   4  -2 1422.57   28.66
  -4  -4   1   53.69    2.23
   4   4  -1   53.14    2.20
  -4  -4   0 2240.10   44.34
   4   4   0 2256.33   44.33
  -4  -4  -1  133.44    3.86
   4   4   1  134.84    3.82
  -4  -4  -2  104.16    3.11
   4   4   2   98.91    3.05
  -4  -4  -3   13.95    0.83
  -4  -4  -3   12.63    0.98
   4   4   3   15.07    1.00
  -4  -4  -4    9.49    0.78
   4   4   4   10.02    0.78
  -4  -4  -4    9.44    0.80
  -4  -4  -4    8.09    0.83
  -4  -4  -5    0.25    0.43
   4   4   5    0.26    0.33
  -4  -4  -5    0.20    0.42
  -4  -4  -5    0.41    0.57
  -4  -4  -6   11.14    0.92
   4   4   6   11.61    0.76
  -4  -4  -6   10.99    0.77
  -4  -4  -6   10.92    1.02
   4   4   7  232.42    5.92
  -4  -4  -7  233.81    5.91
   4   4   7  228.14    5.23
  -4  -4  -7  230.44    6.02
   4   4   8    1.68    0.62
  -4  -4  -8    1.26    0.55
  -4  -4  -8    1.46    0.57
  -4  -4  -8    1.22    0.41
   4   4   8    1.28    0.29
   4   4   9   15.78    1.29
  -4  -4  -9   14.57    1.23
   4   4   9   15.92    1.29
  -4  -4  -9   14.74    1.26
  -4  -4  -9   13.72    0.99
   4   4   9   14.90    0.70
  -4  -4  -9   14.52    0.80
  -4  -4 -10  171.21    5.01
   4   4  10  168.55    4.98
  -4  -4 -10  165.14    4.41
   4   4  10  160.63    5.04
  -4  -4 -10  164.92    4.97
   4   4  10  157.13    3.41
  -4  -4 -10  160.24    3.74
   4   4  11   36.51    2.08
  -4  -4 -11   36.96    2.10
  -4  -4 -11   37.48    2.09
   4   4  11   33.77    2.05
  -4  -4 -11   35.23    1.15
   4   4  12  149.54    4.98
  -4  -4 -12  150.22    4.99
   4   4  12  154.21    5.09
  -4  -4 -12  154.72    3.36
  -4  -4 -13   10.95    1.27
   4   4  13    9.47    1.26
  -4  -4 -14   57.01    2.94
   4   4  14   55.36    2.95
  -4  -4 -15    4.95    1.01
   4   4  15    5.85    1.17
  -4  -4 -16    0.02    0.75
   4   4  16   -0.92    0.91
  -4  -4 -17   21.43    1.99
   4   4  17   28.27    2.31
  -4  -4 -18   16.42    1.83
   4   4  18   20.74    2.15
  -4  -4 -19   39.47    2.91
   4   4  19   37.31    2.87
   4   4  20   27.62    2.60
  -4  -5  16   10.84    1.45
  -4  -5  16   11.13    1.47
  -4  -5  15   27.94    2.14
  -4  -5  15   27.53    2.15
  -4  -5  14    3.24    0.86
  -4  -5  14    5.42    1.02
  -4  -5  13    0.83    0.66
  -4  -5  13    1.72    0.80
  -4  -5  12    4.25    0.87
  -4  -5  12    2.52    0.70
  -4  -5  11   27.99    1.47
  -4  -5  11   28.44    1.79
  -4  -5  11   26.93    2.02
  -4  -5  10   21.77    1.80
  -4  -5  10   21.97    1.48
  -4  -5  10   20.42    1.22
  -4  -5   9    2.06    0.52
  -4  -5   9    3.51    0.92
   4   5  -9    2.04    0.67
  -4  -5   9    3.19    0.55
  -4  -5   8   34.60    2.13
  -4  -5   8   34.88    1.70
   4   5  -8   37.99    2.21
  -4  -5   7   15.18    1.42
  -4  -5   7   13.91    0.98
   4   5  -7   16.68    1.40
  -4  -5   6    2.68    0.79
  -4  -5   6    0.95    0.36
   4   5  -6    0.81    0.53
  -4  -5   5  292.67    6.62
  -4  -5   5  294.14    7.72
   4   5  -5  312.90    7.84
  -4  -5   4   70.42    2.09
  -4  -5   4   71.14    2.91
   4   5  -4   79.38    3.03
  -4  -5   3  311.67    7.89
   4   5  -3  318.30    7.93
  -4  -5   2  143.57    4.49
   4   5  -2  153.90    4.55
  -4  -5   1  785.36   16.95
   4   5  -1  805.14   17.06
  -4  -5   0 1338.56   27.59
   4   5   0 1382.19   27.71
  -4  -5  -1 1352.93   27.18
  -4  -5  -1 1311.30   26.08
   4   5   1 1424.71   27.31
  -4  -5  -2  212.67    4.82
   4   5   2  226.44    5.65
  -4  -5  -2  220.96    5.33
  -4  -5  -3    3.01    0.43
   4   5   3    3.04    0.58
  -4  -5  -3    2.92    0.60
  -4  -5  -4  169.69    4.27
   4   5   4  181.08    4.65
  -4  -5  -4  173.59    4.68
  -4  -5  -5    0.23    0.37
   4   5   5    0.37    0.35
  -4  -5  -5    0.24    0.51
   4   5   6   39.13    1.72
  -4  -5  -6   38.13    1.71
   4   5   6   37.18    1.54
  -4  -5  -6   33.95    1.79
   4   5   7   94.33    3.11
  -4  -5  -7   94.87    3.13
   4   5   7   94.25    2.72
   4   5   7   94.34    3.29
  -4  -5  -7   94.93    3.29
  -4  -5  -8    1.13    0.45
   4   5   8    2.26    0.62
   4   5   8    1.40    0.34
   4   5   8    2.69    0.62
  -4  -5  -8    0.90    0.59
  -4  -5  -8    1.39    0.40
  -4  -5  -9    7.55    0.93
   4   5   9    7.87    0.99
   4   5   9    6.86    0.54
  -4  -5  -9    7.26    0.70
   4   5   9    7.12    0.98
  -4  -5  -9    9.91    1.11
  -4  -5 -10   67.77    1.94
  -4  -5 -10   74.14    2.96
   4   5  10   70.35    2.90
   4   5  10   72.45    3.02
  -4  -5 -10   70.84    2.98
  -4  -5 -10   66.19    2.36
   4   5  10   69.22    1.91
  -4  -5 -11   94.51    3.54
   4   5  11   91.90    3.51
  -4  -5 -11   87.85    2.14
   4   5  11   88.10    3.59
  -4  -5 -11   89.06    3.48
   4   5  11   81.48    1.97
  -4  -5 -11   83.63    2.12
  -4  -5 -12  334.91    8.89
   4   5  12  336.41    8.88
  -4  -5 -13   17.91    1.61
   4   5  13   18.64    1.67
  -4  -5 -14  129.21    4.82
   4   5  14  129.71    4.87
  -4  -5 -15    2.90    0.93
   4   5  15    2.81    0.88
  -4  -5 -16    4.14    1.15
   4   5  16    1.21    0.81
  -4  -5 -17    3.50    1.14
   4   5  17    4.59    1.05
  -4  -5 -18   34.25    2.68
   4   5  18   33.48    2.65
   4   5  19    2.49    1.07
   4   5  20   19.65    2.21
  -4  -6  16   51.85    3.16
  -4  -6  15    6.67    1.28
  -4  -6  14   43.61    2.47
  -4  -6  14   39.37    2.79
  -4  -6  13    0.56    0.56
  -4  -6  13    1.58    0.90
  -4  -6  12   27.46    1.78
  -4  -6  12   21.15    1.87
  -4  -6  11  193.96    5.58
  -4  -6  11  203.14    6.53
  -4  -6  10   91.11    2.73
  -4  -6  10  101.86    3.38
  -4  -6  10   99.59    4.13
  -4  -6   9   97.89    3.98
  -4  -6   9   99.03    3.17
  -4  -6   9   91.12    2.67
  -4  -6   8   -0.18    0.38
  -4  -6   8    0.46    0.68
  -4  -6   8    0.67    0.32
  -4  -6   7  237.90    7.10
  -4  -6   7  248.02    5.91
   4   6  -7  264.20    7.25
  -4  -6   6   25.33    1.83
  -4  -6   6   26.48    1.20
   4   6  -6   30.32    1.93
  -4  -6   5   57.92    2.77
  -4  -6   5   62.17    1.87
   4   6  -5   68.72    2.99
  -4  -6   4    6.68    1.04
  -4  -6   4    6.33    0.46
   4   6  -4    6.67    0.95
  -4  -6   3    5.03    0.88
  -4  -6   3    3.93    0.31
   4   6  -3    5.19    0.83
  -4  -6   2    9.05    1.08
   4   6  -2    9.04    1.00
  -4  -6   1   23.34    1.59
   4   6  -1   26.25    1.59
  -4  -6   0    7.14    0.96
  -4  -6   0    7.94    0.37
   4   6   0    8.37    0.94
  -4  -6   0    9.05    0.73
  -4  -6  -1  611.73   13.31
  -4  -6  -1  598.36   11.94
   4   6   1  616.18   13.36
  -4  -6  -1  602.24   12.68
  -4  -6  -2   68.09    1.89
  -4  -6  -2   71.53    2.64
   4   6   2   71.88    2.66
  -4  -6  -2   66.54    2.33
  -4  -6  -3  490.74   10.33
  -4  -6  -3  503.41   11.09
   4   6   3  496.59   11.14
  -4  -6  -3  511.61   10.97
  -4  -6  -4    1.57    0.37
  -4  -6  -4    1.27    0.55
   4   6   4    1.24    0.47
  -4  -6  -4    1.15    0.51
  -4  -6  -5    1.48    0.55
  -4  -6  -5    1.18    0.38
   4   6   5    1.38    0.47
   4   6   5    1.20    0.46
  -4  -6  -5    1.26    0.60
  -4  -6  -6   42.69    1.82
   4   6   6   43.02    1.83
  -4  -6  -6   41.98    1.75
   4   6   6   42.12    1.75
   4   6   6   45.37    2.08
  -4  -6  -6   47.21    2.12
  -4  -6  -7   24.72    1.44
   4   6   7   23.87    1.42
  -4  -6  -7   24.77    1.26
   4   6   7   24.88    1.26
   4   6   7   24.00    1.57
  -4  -6  -7   22.60    1.55
  -4  -6  -8   69.23    2.72
   4   6   8   71.86    2.75
  -4  -6  -8   70.73    2.27
   4   6   8   71.97    2.38
   4   6   8   76.41    3.01
  -4  -6  -8   75.45    2.98
  -4  -6  -9    7.75    0.65
  -4  -6  -9    7.18    0.87
   4   6   9    9.57    1.05
   4   6   9    8.74    0.68
   4   6   9    9.53    1.08
  -4  -6  -9    7.32    1.00
  -4  -6  -9    8.19    0.70
  -4  -6 -10   53.33    1.68
  -4  -6 -10   56.67    2.56
   4   6  10   52.00    2.47
   4   6  10   49.78    1.71
  -4  -6 -10   51.03    2.57
   4   6  10   50.71    2.63
  -4  -6 -10   52.36    1.93
  -4  -6 -11  120.31    2.85
  -4  -6 -11  124.35    4.30
   4   6  11  118.16    4.21
   4   6  11  115.92    2.96
  -4  -6 -11  118.73    4.35
   4   6  12   51.99    2.70
   4   6  12   46.26    1.29
  -4  -6 -12   49.62    2.68
  -4  -6 -13    8.02    1.20
   4   6  13   10.03    1.25
  -4  -6 -14    3.27    0.97
   4   6  14    2.93    0.93
  -4  -6 -15    0.81    0.81
   4   6  15    0.87    0.77
  -4  -6 -16  254.99    8.03
   4   6  16  251.31    8.00
  -4  -6 -17    0.88    0.84
   4   6  17    1.84    0.94
  -4  -6 -18   52.61    3.40
   4   6  18   56.54    3.51
   4   6  19   26.52    2.52
   4   6  20   64.04    4.02
  -4  -7  16   33.48    2.61
  -4  -7  15    7.58    1.28
  -4  -7  14   18.87    1.97
  -4  -7  13    2.49    0.96
  -4  -7  12  112.46    3.83
  -4  -7  12  103.68    4.52
  -4  -7  11   11.46    1.06
  -4  -7  11   10.72    1.44
  -4  -7  10   21.55    1.35
  -4  -7  10   19.25    1.84
  -4  -7   9   58.65    1.63
  -4  -7   9   67.80    2.34
  -4  -7   9   70.78    3.45
  -4  -7   8  277.74    6.18
  -4  -7   8  283.99    7.87
  -4  -7   8  247.60    5.43
  -4  -7   7    4.85    0.54
  -4  -7   7    3.83    0.92
  -4  -7   7    4.26    0.38
  -4  -7   6  119.55    2.99
  -4  -7   6  117.80    4.41
  -4  -7   5  141.98    4.88
  -4  -7   4  281.81    7.68
   4   7  -4  290.36    7.71
  -4  -7   4  274.04    5.99
  -4  -7   3   59.72    2.83
   4   7  -3   65.13    2.85
  -4  -7   3   60.38    1.84
  -4  -7   2    8.75    1.10
   4   7  -2    9.62    1.13
  -4  -7   2    8.19    0.60
  -4  -7   1   33.87    1.99
   4   7  -1   37.89    2.07
  -4  -7   1   35.06    1.41
  -4  -7   0  126.08    4.19
   4   7   0  133.94    4.27
  -4  -7   0  124.05    3.42
  -4  -7  -1  240.57    6.62
   4   7   1  261.47    6.79
  -4  -7  -1  253.28    6.01
  -4  -7  -2   19.35    1.39
   4   7   2   19.99    1.40
  -4  -7  -2   18.72    1.16
  -4  -7  -3    0.48    0.52
   4   7   3    0.81    0.53
  -4  -7  -3    0.63    0.51
  -4  -7  -4    4.43    0.71
  -4  -7  -4    4.91    0.58
   4   7   4    4.44    0.71
  -4  -7  -4    5.16    0.73
  -4  -7  -5    0.46    0.46
  -4  -7  -5    0.24    0.37
   4   7   5    0.59    0.42
   4   7   5    0.51    0.51
  -4  -7  -5    0.61    0.53
  -4  -7  -6    2.42    0.61
  -4  -7  -6    2.37    0.56
   4   7   6    2.77    0.56
   4   7   6    3.37    0.65
   4   7   6    3.51    0.70
  -4  -7  -6    2.59    0.66
  -4  -7  -7  225.42    5.89
   4   7   7  223.98    5.82
  -4  -7  -7  226.33    5.62
   4   7   7  219.00    5.72
   4   7   7  229.64    6.23
  -4  -7  -7  226.97    6.22
  -4  -7  -8   11.12    1.10
   4   7   8   10.59    1.03
  -4  -7  -8   10.54    0.85
   4   7   8    8.94    0.81
   4   7   8   11.69    1.16
  -4  -7  -8   10.69    1.16
   4   7   9  299.50    7.64
  -4  -7  -9  297.39    6.76
   4   7   9  284.10    6.85
   4   7   9  311.67    8.05
  -4  -7  -9  298.04    6.71
  -4  -7  -9  302.73    7.98
  -4  -7 -10    0.10    0.33
   4   7  10    0.85    0.59
  -4  -7 -10    0.22    0.63
  -4  -7 -10    0.33    0.30
   4   7  10    0.16    0.27
   4   7  11   25.46    1.81
  -4  -7 -11   26.29    1.95
   4   7  11   26.24    1.22
  -4  -7 -11   26.03    1.05
   4   7  12    0.29    0.69
  -4  -7 -12    1.41    0.72
   4   7  12    0.32    0.28
  -4  -7 -12    0.43    0.22
   4   7  13  164.01    5.52
   4   7  13  155.38    3.55
  -4  -7 -13  166.83    5.69
  -4  -7 -14   79.11    3.79
   4   7  14   79.58    3.73
  -4  -7 -15   11.43    1.57
   4   7  15   12.59    1.58
  -4  -7 -16    6.39    1.37
   4   7  16    3.78    1.06
  -4  -7 -17    8.59    1.60
   4   7  17    5.49    1.21
   4   7  18    2.23    1.02
   4   7  19   80.33    4.41
   4   7  20    6.45    1.43
  -4  -8  16   14.15    1.84
  -4  -8  15    9.62    1.54
  -4  -8  14    5.45    1.20
  -4  -8  13    8.34    1.44
  -4  -8  12   86.77    4.27
  -4  -8  11    8.86    1.41
  -4  -8  10  105.75    4.50
  -4  -8   9    5.34    1.16
  -4  -8   8   81.22    3.84
  -4  -8   7    4.73    1.15
  -4  -8   6   89.60    3.92
  -4  -8   5    3.07    0.90
  -4  -8   5    2.03    0.22
  -4  -8   4   11.92    1.38
  -4  -8   4   12.00    0.59
  -4  -8   3   57.32    2.84
  -4  -8   3   59.67    1.76
  -4  -8   2   56.44    2.78
   4   8  -2   60.37    2.86
  -4  -8   2   56.21    1.82
  -4  -8   1    5.36    0.93
   4   8  -1    6.11    0.95
  -4  -8   1    5.50    0.58
  -4  -8   0    3.92    0.88
   4   8   0    2.97    0.71
  -4  -8   0    4.13    0.55
  -4  -8  -1   54.73    2.61
   4   8   1   62.02    2.77
  -4  -8  -1   56.56    2.09
  -4  -8  -2  707.79   15.69
   4   8   2  737.22   15.88
  -4  -8  -2  695.82   14.99
  -4  -8  -3   40.25    2.07
   4   8   3   39.14    2.07
  -4  -8  -3   38.58    1.83
   4   8   4   17.28    0.98
  -4  -8  -4   15.43    1.27
   4   8   4   18.00    1.34
  -4  -8  -4   15.90    1.22
   4   8   5  108.43    3.18
  -4  -8  -5  106.89    3.57
   4   8   5  108.33    3.69
   4   8   5  110.02    3.65
  -4  -8  -5  108.85    3.66
   4   8   6   73.20    2.58
  -4  -8  -6   73.78    2.73
   4   8   6   72.00    2.82
   4   8   6   75.26    2.96
  -4  -8  -6   75.27    3.00
   4   8   7   49.37    2.13
  -4  -8  -7   48.57    2.06
   4   8   7   49.59    2.38
  -4  -8  -7   47.78    2.36
   4   8   7   44.00    2.09
   4   8   8  228.41    6.16
   4   8   8  232.31    6.61
  -4  -8  -8  232.74    6.63
   4   8   8  229.10    6.01
  -4  -8  -8  233.75    5.85
   4   8   9  191.52    5.60
  -4  -8  -9  195.77    4.67
  -4  -8  -9  196.65    6.00
   4   8   9  187.72    5.16
  -4  -8  -9  201.74    5.03
   4   8  10   32.04    1.94
  -4  -8 -10   31.73    2.12
  -4  -8 -10   33.18    1.32
   4   8  10   29.09    1.53
  -4  -8 -10   31.99    1.39
   4   8  11    9.50    1.16
  -4  -8 -11   11.82    1.42
   4   8  11   11.10    0.88
  -4  -8 -11   11.66    0.77
   4   8  12   12.81    1.37
  -4  -8 -12   12.87    1.47
   4   8  12   12.90    0.90
  -4  -8 -12   14.07    0.74
   4   8  13   41.50    2.56
   4   8  13   42.11    1.56
  -4  -8 -13   42.94    2.71
   4   8  14    9.96    1.37
   4   8  14    8.13    0.53
  -4  -8 -14    9.04    1.41
  -4  -8 -15  106.72    4.77
   4   8  15  112.62    4.72
  -4  -8 -16    0.25    0.80
   4   8  16    0.53    1.02
  -4  -8 -17    2.46    1.08
   4   8  17    1.77    0.92
   4   8  18    0.58    0.87
   4   8  19   79.36    4.49
  -4  -9  15    5.39    1.38
  -4  -9  14    1.45    0.92
  -4  -9  13    0.14    0.87
  -4  -9  12   11.74    1.65
  -4  -9  11   12.20    1.67
  -4  -9  10    6.85    1.27
  -4  -9   9  102.50    4.57
  -4  -9   8   55.57    3.16
  -4  -9   7   14.33    1.65
  -4  -9   6    1.51    0.91
  -4  -9   5    7.61    1.26
  -4  -9   4    2.62    0.99
  -4  -9   3   50.46    1.52
  -4  -9   3   51.11    2.83
  -4  -9   2    2.23    0.83
  -4  -9   2    3.35    0.46
  -4  -9   1   17.90    1.62
  -4  -9   1   18.35    1.02
  -4  -9   0    3.40    0.91
  -4  -9   0    2.75    0.50
  -4  -9  -1   10.49    1.25
   4   9   1   10.40    1.23
  -4  -9  -1    9.09    0.81
  -4  -9  -2  187.26    5.65
   4   9   2  193.08    5.80
  -4  -9  -2  184.74    5.02
  -4  -9  -3    9.20    1.03
   4   9   3    8.45    1.06
  -4  -9  -3    9.45    0.95
   4   9   4  282.46    6.43
  -4  -9  -4  276.28    7.37
   4   9   4  289.37    7.59
  -4  -9  -4  273.84    7.12
   4   9   5    4.00    0.59
  -4  -9  -5    3.49    0.77
   4   9   5    3.33    0.73
   4   9   5    5.13    0.77
  -4  -9  -5    4.54    0.77
   4   9   6    2.83    0.53
  -4  -9  -6    3.87    0.75
   4   9   6    4.32    0.70
   4   9   6    3.38    0.66
  -4  -9  -6    3.60    0.81
  -4  -9  -7    8.24    0.93
   4   9   7    6.48    0.78
   4   9   7    6.56    0.92
  -4  -9  -7    6.53    0.95
   4   9   7    6.13    0.85
   4   9   8  522.46   11.91
  -4  -9  -8  535.09   12.58
   4   9   8  507.23   11.91
  -4  -9  -8  523.87   11.63
  -4  -9  -9    4.27    0.69
   4   9   9    5.31    0.89
  -4  -9  -9    5.72    0.55
  -4  -9  -9    3.75    0.85
   4   9   9    4.64    0.73
   4   9  10   92.48    3.59
  -4  -9 -10   94.72    3.98
  -4  -9 -10   94.93    2.51
   4   9  10   89.21    3.18
  -4  -9 -10   90.66    2.93
   4   9  11    6.33    1.04
  -4  -9 -11    4.31    0.96
   4   9  11    6.47    0.80
  -4  -9 -11    5.29    0.65
   4   9  12  112.99    4.34
  -4  -9 -12  110.82    4.60
   4   9  12  105.31    3.36
  -4  -9 -12  112.50    3.00
   4   9  13   38.22    2.48
  -4  -9 -13   35.00    2.61
   4   9  13   37.03    1.66
  -4  -9 -13   34.72    1.16
  -4  -9 -14    0.49    0.83
   4   9  14    0.44    0.71
  -4  -9 -15    0.14    0.81
   4   9  15    2.72    1.00
  -4  -9 -16    3.56    1.14
   4   9  16    4.82    1.27
   4   9  17    3.24    1.04
   4   9  18    1.74    1.10
   4   9  19   -1.67    1.19
  -4 -10  13    0.81    0.88
  -4 -10  12   -1.41    1.11
  -4 -10  11   16.99    2.08
  -4 -10  10   -0.70    1.02
  -4 -10   9   37.56    2.84
  -4 -10   8   -1.39    1.06
  -4 -10   7   15.95    1.80
  -4 -10   6    8.94    1.40
  -4 -10   5   51.06    3.03
  -4 -10   4   34.25    2.42
  -4 -10   3   70.53    3.49
  -4 -10   2   31.22    1.32
  -4 -10   2   34.67    2.39
  -4 -10   1    0.96    0.35
  -4 -10   1    0.91    0.69
  -4 -10   0    3.30    0.52
  -4 -10   0    4.21    0.99
  -4 -10  -1  363.95    8.45
  -4 -10  -1  364.48    9.64
  -4 -10  -2  319.86    7.81
  -4 -10  -2  326.37    8.73
  -4 -10  -3  102.74    3.51
  -4 -10  -3  102.66    3.92
  -4 -10  -4    1.86    0.62
   4  10   4    2.20    0.44
  -4 -10  -4    1.60    0.69
   4  10   5   48.48    1.93
   4  10   5   50.09    2.39
  -4 -10  -5   51.16    2.47
   4  10   5   50.15    2.59
  -4 -10  -5   50.50    2.47
   4  10   6   21.84    1.33
   4  10   6   22.76    1.64
  -4 -10  -6   24.18    1.73
   4  10   6   24.53    1.76
  -4 -10  -6   21.48    1.55
  -4 -10  -7    6.82    0.88
   4  10   7    7.98    0.89
  -4 -10  -7    6.64    1.07
   4  10   7    7.19    0.99
   4  10   8   23.44    1.55
  -4 -10  -8   22.47    1.80
   4  10   8   22.54    1.60
  -4 -10  -8   22.85    1.52
   4  10   9   93.85    3.53
  -4 -10  -9   92.18    3.92
   4  10   9   87.98    3.41
  -4 -10  -9   95.14    3.24
   4  10  10  271.60    7.52
  -4 -10 -10  270.12    8.04
  -4 -10 -10  277.97    5.86
   4  10  10  259.13    7.14
  -4 -10 -10  281.90    6.85
   4  10  11   46.68    2.58
  -4 -10 -11   45.09    2.82
   4  10  11   42.82    2.13
  -4 -10 -11   45.79    1.92
   4  10  12   63.06    3.15
  -4 -10 -12   64.21    3.48
   4  10  12   62.18    2.58
  -4 -10 -12   64.99    2.23
  -4 -10 -13    6.16    1.27
   4  10  13    5.90    1.12
  -4 -10 -13    6.28    0.60
  -4 -10 -14  341.45   10.12
   4  10  14  328.40    9.53
   4  10  15    1.76    1.03
   4  10  16    0.78    0.79
   4  10  17   26.83    2.41
   4  10  18   42.45    3.17
  -4 -11  11    6.14    1.53
  -4 -11  10   16.54    2.03
  -4 -11   9   27.68    2.49
  -4 -11   8    9.19    1.57
  -4 -11   7    2.96    1.07
  -4 -11   6    8.25    1.42
  -4 -11   5   98.19    4.52
  -4 -11   4    0.23    0.80
  -4 -11   3  121.32    4.91
  -4 -11   2   -0.21    0.78
  -4 -11   1   30.41    2.20
  -4 -11   0    2.47    0.57
  -4 -11   0    1.52    0.74
  -4 -11  -1   19.85    1.30
  -4 -11  -1   17.46    1.66
  -4 -11  -2    2.13    0.62
  -4 -11  -2    2.26    0.72
  -4 -11  -3  227.48    6.18
  -4 -11  -3  218.27    6.64
  -4 -11  -4   16.19    1.36
  -4 -11  -4   16.96    1.50
  -4 -11  -5   20.43    1.60
   4  11   5   20.76    1.19
  -4 -11  -5   19.19    1.63
  -4 -11  -6   27.48    1.90
   4  11   6   31.41    1.60
  -4 -11  -6   28.50    1.91
  -4 -11  -7  266.19    7.68
   4  11   7  277.25    6.95
  -4 -11  -7  262.08    7.28
  -4 -11  -8    3.02    0.83
   4  11   8    4.09    0.76
  -4 -11  -8    3.51    0.78
   4  11   9   88.20    3.42
  -4 -11  -9   81.48    3.78
   4  11   9   76.80    3.33
  -4 -11  -9   86.08    3.21
   4  11  10   14.38    1.41
  -4 -11 -10   13.07    1.54
   4  11  10   13.56    1.28
  -4 -11 -10   12.77    1.13
   4  11  11   46.40    2.60
  -4 -11 -11   49.80    3.03
   4  11  11   44.62    2.34
  -4 -11 -11   47.52    2.12
  -4 -11 -12  164.46    6.16
   4  11  12  163.64    5.68
  -4 -11 -12  167.49    4.55
  -4 -11 -13  111.19    5.04
   4  11  13  112.83    4.61
   4  11  14   41.55    2.76
   4  11  15   66.24    3.66
   4  11  16   97.95    4.70
   4  11  17   26.55    2.47
   4  11  18    0.99    0.89
  -4 -12   9   -1.55    1.18
  -4 -12   8   59.39    3.75
  -4 -12   7    5.67    1.26
  -4 -12   6    4.32    1.25
  -4 -12   5   45.90    3.14
  -4 -12   4  172.24    6.46
  -4 -12   3  100.81    4.64
  -4 -12   2   32.62    2.51
  -4 -12   1    3.69    1.01
  -4 -12   0    0.59    0.74
  -4 -12  -1   37.92    2.53
  -4 -12  -2    9.25    1.33
  -4 -12  -3    7.85    1.23
  -4 -12  -4    0.04    0.57
  -4 -12  -4    0.05    0.69
  -4 -12  -5   37.27    2.26
   4  12   5   40.84    1.73
  -4 -12  -5   35.70    2.31
  -4 -12  -6   12.42    1.41
   4  12   6   13.57    1.06
  -4 -12  -6   12.04    1.38
  -4 -12  -7    3.90    0.92
   4  12   7    5.46    0.74
  -4 -12  -7    5.18    1.01
  -4 -12  -8   31.72    2.32
   4  12   8   33.89    1.93
  -4 -12  -8   35.29    2.11
   4  12   9  105.05    3.92
  -4 -12  -9  104.34    4.50
  -4 -12  -9  109.88    3.93
   4  12  10   12.83    1.36
  -4 -12 -10   12.61    1.25
   4  12  11   -0.32    0.66
  -4 -12 -11    0.81    0.48
   4  12  12    3.09    0.97
  -4 -12 -12    3.06    0.63
   4  12  13  108.05    4.57
   4  12  14    7.84    1.39
   4  12  15   62.68    3.62
   4  12  16    9.63    1.54
   4  12  17   12.98    1.82
  -4 -13   7   12.42    1.85
  -4 -13   6   48.76    3.42
  -4 -13   5    2.95    1.05
  -4 -13   4   29.47    2.62
  -4 -13   3    3.57    1.19
  -4 -13   2  267.74    8.63
  -4 -13   1    0.20    0.77
  -4 -13   0  100.29    4.58
  -4 -13  -1   26.76    2.27
  -4 -13  -2  202.57    6.84
  -4 -13  -3   35.85    2.49
  -4 -13  -4   67.85    3.49
   4  13   5    6.99    0.73
  -4 -13  -5    5.69    1.06
   4  13   6    8.45    0.88
  -4 -13  -6    7.66    1.22
   4  13   7    6.26    0.83
  -4 -13  -7    5.37    1.03
   4  13   8   45.20    2.28
  -4 -13  -8   38.29    2.40
   4  13   9   48.83    2.54
  -4 -13  -9   53.61    2.73
   4  13  10  143.33    5.02
  -4 -13 -10  148.74    4.91
   4  13  11   57.37    3.01
  -4 -13 -11   60.89    2.72
   4  13  12    2.86    0.91
   4  13  13    3.05    1.05
   4  13  14   10.27    1.56
   4  13  15   56.02    3.47
   4  13  16   27.75    2.55
   4  13  17   18.24    2.08
  -4 -14   5  113.90    5.47
  -4 -14   4   94.08    4.83
  -4 -14   3   36.97    2.96
  -4 -14   2   34.02    2.75
  -4 -14   1    6.20    1.44
  -4 -14   0   -1.19    0.96
  -4 -14  -1   -1.35    1.15
  -4 -14  -2   52.15    3.21
  -4 -14  -3    4.67    1.10
  -4 -14  -4   90.09    4.23
  -4 -14  -5    6.87    1.22
  -4 -14  -6  181.77    6.24
  -4 -14  -7    5.47    1.10
   4  14   8   10.35    1.12
  -4 -14  -8    8.49    1.27
   4  14   9    0.21    0.61
  -4 -14  -9    0.29    0.68
   4  14  10  101.16    4.02
  -4 -14 -10  100.62    4.00
   4  14  11    0.02    0.67
   4  14  12    6.99    1.19
   4  14  13    3.48    1.14
   4  14  14    2.78    1.03
   4  14  15    1.49    1.01
   4  14  16   20.46    2.18
  -4 -15   2    6.61    1.44
  -4 -15   1   45.01    3.27
  -4 -15   0   12.96    1.84
  -4 -15  -1    4.61    1.22
  -4 -15  -2   41.66    2.98
  -4 -15  -3   87.42    4.41
  -4 -15  -4   13.49    1.76
  -4 -15  -5   10.28    1.49
  -4 -15  -6    8.12    1.41
  -4 -15  -7    7.51    1.25
  -4 -15  -8   -0.63    0.70
  -4 -15  -9    1.43    0.82
   4  15  15    0.01    0.87
  -4 -16  -1   17.41    2.10
  -4 -16  -2    0.26    0.99
  -4 -16  -3   55.22    3.57
  -4 -16  -4    2.49    1.22
  -4 -16  -5   94.67    4.63
  -4 -16  -6    0.24    0.84
  -4 -16  -7   -0.31    0.96
  -4 -16  -8   11.27    1.67
  -4 -17  -4    3.19    1.17
  -4 -17  -5    7.15    1.48
  -4 -17  -6   17.90    2.04
  -4 -17  -7   31.41    2.57
   5 -14  -6    6.69    1.38
   5 -14  -5    1.19    1.12
   5 -14  -4   28.33    2.52
   5 -14  -3    7.22    1.69
   5 -14  -2   -1.81    1.11
   5 -14  -1   13.05    1.94
   5 -14   0   72.11    4.26
  -5  13  10   32.69    2.96
  -5  13   9    1.99    0.95
  -5  13   8    0.13    0.90
  -5  13   7    0.46    0.88
   5 -13  -6   10.24    1.57
   5 -13  -5    1.96    0.98
   5 -13  -4    0.78    0.88
   5 -13  -3    1.88    1.08
   5 -13  -2   21.83    2.21
   5 -13  -1   -0.11    0.93
   5 -13   0    3.26    1.05
   5 -13   1    1.50    1.08
   5 -13   2  168.27    6.78
   5 -13   3   10.14    1.70
   5 -13   4    0.08    0.89
  -5  12  11   12.44    1.81
  -5  12  10    1.97    1.03
  -5  12   9   22.52    2.30
  -5  12   8    0.40    0.80
  -5  12   7    0.27    0.96
  -5  12   6    3.08    1.10
   5 -12  -6    1.19    0.75
   5 -12  -5   51.23    3.18
   5 -12  -4   21.39    2.08
   5 -12  -3   18.11    2.00
   5 -12  -2    0.57    0.83
   5 -12  -1   16.51    1.93
   5 -12   0   25.77    2.39
   5 -12   1   14.71    1.87
   5 -12   2    2.93    1.10
   5 -12   3    3.76    1.13
   5 -12   4   27.46    2.57
   5 -12   5    0.94    0.87
   5 -12   6    6.89    1.51
   5 -12   7   20.23    2.33
   5 -12   9   29.69    2.62
   5 -12  10   10.19    1.77
  -5  11  11   21.98    2.26
  -5  11  10    3.73    1.12
  -5  11   9    2.75    1.12
  -5  11   8   -1.08    0.94
  -5  11   7   19.85    2.09
  -5  11   6    3.23    1.02
   5 -11  -6    1.22    0.73
   5 -11  -5   73.61    3.70
   5 -11  -4    1.42    0.77
   5 -11  -3   72.73    3.72
   5 -11  -2    0.43    0.72
   5 -11  -1   14.52    1.73
   5 -11   0    0.22    0.88
   5 -11   1  184.05    6.61
   5 -11   2   21.16    2.13
   5 -11   3   25.73    2.32
   5 -11   4   -0.11    0.89
   5 -11   5   55.25    3.51
   5 -11   6    7.94    1.52
   5 -11   7   38.27    2.98
   5 -11   8    1.46    1.45
   5 -11   8    0.33    0.88
   5 -11   9   22.66    2.30
   5 -11   9   25.84    2.56
   5 -11  10   -1.69    0.99
   5 -11  10    1.66    1.07
   5 -11  11    2.91    1.13
  -5  10  12    4.35    1.11
  -5  10  11    0.37    0.76
  -5  10  10   77.87    4.05
  -5  10   9   10.31    1.54
  -5  10   8   74.49    3.94
  -5  10   7    6.78    1.29
  -5  10   6   96.29    4.47
   5 -10  -5  146.91    5.37
   5 -10  -4  171.53    5.93
   5 -10  -3   79.79    3.77
   5 -10  -2   15.51    1.67
   5 -10  -1   -0.51    0.83
   5 -10   0    9.32    1.39
   5 -10   1   12.68    1.62
   5 -10   2   21.94    2.03
   5 -10   3  113.38    4.85
   5 -10   4    4.74    1.19
   5 -10   5    0.34    0.78
   5 -10   6   14.67    1.85
   5 -10   7  150.47    5.70
   5 -10   7  159.88    6.24
   5 -10   8    1.23    0.85
   5 -10   8    2.07    1.02
   5 -10   9   42.52    2.96
   5 -10   9   41.46    3.03
   5 -10  10    2.04    0.92
   5 -10  10    4.56    1.30
   5 -10  11   20.09    2.24
   5 -10  11   22.24    2.31
   5 -10  12   17.68    2.09
   5 -10  12   17.25    2.13
   5 -10  13   36.60    3.06
  -5   9  12   72.24    3.76
  -5   9  11    3.11    0.96
  -5   9  10    0.55    0.80
  -5   9   9    2.39    1.05
  -5   9   8   15.93    1.76
  -5   9   7    1.59    0.90
  -5   9   6   10.47    1.47
  -5   9   5    1.26    0.75
   5  -9  -5    0.35    0.65
   5  -9  -4  260.65    7.65
   5  -9  -3    3.56    0.87
   5  -9  -2   45.46    2.66
   5  -9  -1    3.31    0.88
   5  -9   0  115.77    4.60
   5  -9   1   15.84    1.68
   5  -9   2   86.02    3.93
   5  -9   3   13.22    1.60
   5  -9   4   15.11    1.69
   5  -9   5    8.11    1.34
   5  -9   6   52.25    3.17
   5  -9   7   40.98    2.63
   5  -9   7   44.43    2.93
   5  -9   8   48.90    3.00
   5  -9   8   51.36    3.20
   5  -9   9   -0.17    0.80
   5  -9   9    2.97    1.14
   5  -9  10    4.57    1.08
   5  -9  10    5.50    1.28
   5  -9  11   39.27    2.95
   5  -9  11   42.41    3.02
   5  -9  12   12.91    1.78
   5  -9  12   11.31    1.64
   5  -9  13   93.15    4.80
   5  -9  13   91.63    4.73
   5  -9  14   27.06    2.72
   5  -9  14   28.20    2.63
   5  -9  15   49.03    3.52
  -5   8  13   77.89    3.74
  -5   8  12    0.37    0.88
  -5   8  11   78.46    3.84
  -5   8  10   77.80    3.80
  -5   8   9   86.36    4.05
  -5   8   8    0.43    0.51
  -5   8   8    2.07    0.81
  -5   8   7   -0.12    0.51
  -5   8   7   -0.40    0.81
  -5   8   6    2.57    0.41
  -5   8   6    2.44    0.70
  -5   8   6    3.92    1.00
  -5   8   5  127.16    3.44
  -5   8   5  126.96    4.88
  -5   8   5  122.74    4.41
  -5   8   4  267.72    6.39
   5  -8  -4  275.57    7.69
   5  -8  -3   39.75    2.39
   5  -8  -2   14.44    1.51
   5  -8  -1    2.18    0.70
   5  -8   0   16.46    1.58
   5  -8   1   21.50    1.78
   5  -8   2  231.03    7.06
   5  -8   3   45.07    2.64
   5  -8   4   31.58    2.25
   5  -8   5    5.51    1.13
   5  -8   6  137.28    5.23
   5  -8   7    2.40    0.82
   5  -8   7    3.58    1.06
   5  -8   8  100.01    4.30
   5  -8   8  102.97    4.51
   5  -8   9    3.03    0.96
   5  -8   9    3.42    1.03
  -5   8 -10    5.52    0.69
   5  -8  10    3.89    1.10
   5  -8  10    5.16    1.20
   5  -8  11    2.83    0.98
   5  -8  11    2.40    0.89
   5  -8  12    0.50    0.89
   5  -8  12    0.90    0.96
   5  -8  13    1.92    0.98
   5  -8  13    3.85    1.17
   5  -8  14   70.37    4.12
   5  -8  14   62.39    3.77
   5  -8  15    1.52    0.94
   5  -8  15    4.58    1.36
   5  -8  16   12.13    1.75
   5  -8  17    0.55    0.89
  -5   7  14   11.46    1.92
  -5   7  13    6.39    1.08
  -5   7  12    1.07    0.77
  -5   7  11   -0.21    0.68
  -5   7  10    6.10    1.16
  -5   7   9   12.71    1.51
  -5   7   9   11.08    1.25
  -5   7   8    0.86    0.65
  -5   7   8    0.88    0.58
  -5   7   7   96.76    2.81
  -5   7   7  101.19    4.15
  -5   7   7   88.64    3.46
  -5   7   6    8.84    0.73
  -5   7   6    8.71    1.04
  -5   7   6   10.58    1.36
  -5   7   5   51.81    1.92
  -5   7   5   48.51    2.78
  -5   7   5   49.88    2.46
  -5   7   4   16.59    1.06
  -5   7   4   15.80    1.62
  -5   7   4   17.65    1.45
   5  -7  -4   16.69    1.54
  -5   7   3  427.81    9.66
   5  -7  -3  438.90   10.80
  -5   7   3  442.53   10.66
  -5   7   2   16.30    1.10
   5  -7  -2   15.98    1.47
  -5   7   2   12.72    1.26
  -5   7   1    1.29    0.45
   5  -7  -1    1.95    0.84
  -5   7   1    0.45    0.58
  -5   7   0    5.36    0.72
   5  -7   0    7.20    1.08
   5  -7   1   38.13    2.28
   5  -7   2    0.53    0.61
   5  -7   3   84.24    3.61
   5  -7   4   94.12    3.93
   5  -7   5   70.05    3.34
   5  -7   6  226.21    6.98
   5  -7   7   10.41    1.30
   5  -7   7    9.71    1.37
   5  -7   8   31.07    2.21
   5  -7   8   32.43    2.34
   5  -7   9    3.48    0.92
   5  -7   9    6.03    1.16
   5  -7  10   55.89    3.20
   5  -7  10   61.36    3.29
   5  -7  11   -0.42    0.76
  -5   7 -11    1.16    0.44
   5  -7  11    1.07    0.91
  -5   7 -12    0.84    0.46
   5  -7  12   -1.17    1.01
   5  -7  12    2.15    1.06
   5  -7  13    3.08    1.00
   5  -7  13    2.96    1.01
   5  -7  14   82.08    4.35
   5  -7  14   73.03    3.94
   5  -7  15   16.77    2.00
   5  -7  15   14.69    1.83
   5  -7  16   14.65    1.99
   5  -7  16   16.60    1.96
   5  -7  17    0.00    0.97
   5  -7  18    1.97    0.97
  -5   6  15   44.31    3.47
  -5   6  14   32.84    2.85
  -5   6  13   23.23    1.87
  -5   6  12    6.51    1.07
  -5   6  11   49.92    2.79
  -5   6  10   64.31    3.19
  -5   6  10   63.09    2.60
  -5   6   9   22.23    1.86
  -5   6   9   20.52    1.44
  -5   6   8    5.11    0.95
  -5   6   8    7.36    0.90
  -5   6   7    1.53    0.78
  -5   6   7    0.56    0.47
  -5   6   6   12.06    1.12
  -5   6   6   15.00    1.52
  -5   6   5   51.85    2.70
  -5   6   5   46.53    2.29
  -5   6   4    1.01    0.38
  -5   6   4    1.33    0.52
  -5   6   4    1.85    0.70
  -5   6   3   32.67    1.56
  -5   6   3   35.76    2.20
  -5   6   3   33.90    1.95
   5  -6  -3   35.55    2.07
  -5   6   2   13.25    0.98
  -5   6   2   14.27    1.26
   5  -6  -2   14.15    1.33
  -5   6   1    4.48    0.66
   5  -6  -1    4.92    0.89
  -5   6   1    4.29    0.77
  -5   6   0    0.79    0.45
   5  -6   0    0.56    0.64
  -5   6   0   -0.27    0.55
  -5   6  -1   78.52    2.90
  -5   6  -1   88.12    3.42
   5  -6   1   85.53    3.43
  -5   6  -2   12.29    1.11
   5  -6   2   12.41    1.33
  -5   6  -2   12.50    1.29
  -5   6  -3 1026.96   21.92
   5  -6   3  997.48   21.89
   5  -6   4    1.22    0.69
   5  -6   5   10.60    1.27
   5  -6   6    4.31    0.87
   5  -6   7   54.76    2.79
   5  -6   7   51.90    2.79
   5  -6   8    3.12    0.92
   5  -6   8    3.49    0.93
   5  -6   9   38.19    2.47
   5  -6   9   40.55    2.53
   5  -6  10    2.27    0.86
   5  -6  10    2.47    0.87
  -5   6 -11   41.81    1.85
   5  -6  11   42.53    2.75
   5  -6  11   42.83    2.66
   5  -6  12  161.24    5.98
  -5   6 -12  154.46    4.34
   5  -6  12  159.64    5.71
  -5   6 -13   -0.06    0.39
   5  -6  13    1.70    0.91
   5  -6  13    0.45    0.70
   5  -6  14   14.09    1.80
   5  -6  14   12.77    1.62
   5  -6  15   80.80    4.33
   5  -6  15   70.68    3.75
   5  -6  16   36.28    2.96
   5  -6  16   36.24    2.66
   5  -6  17    0.90    1.06
   5  -6  17   -1.75    0.94
   5  -6  18   -1.41    0.90
   5  -6  19    2.53    1.06
  -5   5  15    0.21    0.90
  -5   5  14   78.92    4.39
  -5   5  14   82.81    3.51
  -5   5  13    0.44    0.58
  -5   5  12   12.54    1.40
  -5   5  11   30.06    2.03
  -5   5  10    7.04    1.11
  -5   5  10    6.73    0.84
  -5   5   9    2.28    0.82
  -5   5   9    0.90    0.45
  -5   5   8  131.50    4.69
  -5   5   8  130.59    4.12
  -5   5   7    8.38    1.16
  -5   5   7    6.40    0.86
  -5   5   6    0.32    0.61
  -5   5   6    0.31    0.70
  -5   5   5    0.47    0.66
  -5   5   5    0.16    0.41
  -5   5   4    9.71    1.00
  -5   5   4    8.69    1.13
  -5   5   3  117.63    4.18
  -5   5   3  113.78    3.85
  -5   5   2    3.53    0.83
   5  -5  -2    2.38    0.69
  -5   5   2    4.32    0.75
  -5   5   1  198.09    5.23
  -5   5   1  204.19    5.77
   5  -5  -1  206.72    5.83
  -5   5   0  203.53    5.45
  -5   5   0  218.17    6.01
   5  -5   0  215.98    6.05
  -5   5  -1   16.36    1.18
  -5   5  -1   17.16    1.41
   5  -5   1   14.95    1.35
  -5   5  -2   24.70    1.49
  -5   5  -2   27.12    1.87
   5  -5   2   24.08    1.68
  -5   5  -3  115.16    3.82
  -5   5  -3  124.26    4.17
   5  -5   3  120.65    4.17
  -5   5  -4  175.03    5.16
  -5   5  -4  183.64    5.44
   5  -5   4  170.87    5.35
  -5   5  -5  570.69   13.01
   5  -5   5  536.67   12.90
   5  -5   6   24.67    1.80
  -5   5  -6   27.16    1.83
   5  -5   7   60.20    2.86
   5  -5   7   58.48    2.83
  -5   5  -7   63.00    2.89
   5  -5   8   75.54    3.35
   5  -5   8   74.54    3.30
   5  -5   9  513.31   12.64
   5  -5   9  513.34   12.49
  -5   5 -10    0.64    0.40
   5  -5  10    0.64    0.66
  -5   5 -10    1.49    0.66
   5  -5  10    0.55    0.68
  -5   5 -11   33.00    1.66
   5  -5  11   32.14    2.30
   5  -5  11   29.38    2.10
   5  -5  12   17.15    1.81
  -5   5 -12   17.04    1.19
   5  -5  12   15.93    1.57
   5  -5  13   12.17    1.56
  -5   5 -13    9.36    0.92
   5  -5  13    7.67    1.21
  -5   5 -14    2.43    0.64
   5  -5  14    3.38    0.97
   5  -5  14    3.46    1.03
   5  -5  15  106.97    4.92
  -5   5 -15  101.97    3.41
   5  -5  15  106.71    4.49
   5  -5  16   15.20    1.94
   5  -5  16   11.06    1.48
   5  -5  17    6.08    1.34
   5  -5  17    6.95    1.32
   5  -5  18   -1.15    1.22
   5  -5  18   -0.80    0.81
   5  -5  19    4.11    1.02
  -5   4  16    5.64    1.48
  -5   4  15   44.70    3.24
  -5   4  14   53.84    3.52
  -5   4  14   51.13    2.65
  -5   4  13   12.85    1.87
  -5   4  13   11.05    1.20
  -5   4  12    0.16    0.59
  -5   4  11   18.07    1.51
  -5   4  11   16.57    1.22
  -5   4  10   12.96    1.34
  -5   4  10   10.44    0.98
  -5   4   9   15.25    1.42
  -5   4   9   14.29    1.13
  -5   4   8    2.15    0.73
  -5   4   8    1.15    0.47
  -5   4   7   37.99    2.20
  -5   4   7   32.76    1.75
  -5   4   6  275.10    7.34
  -5   4   6  252.06    6.62
  -5   4   5   -0.44    0.64
  -5   4   5    1.31    0.52
  -5   4   4    0.23    0.45
  -5   4   4    0.53    0.56
  -5   4   3   39.54    2.16
  -5   4   3   38.18    1.96
  -5   4   2  308.62    7.99
  -5   4   2  304.14    7.66
  -5   4   1    1.74    0.71
  -5   4   1    1.13    0.56
   5  -4  -1    0.97    0.56
  -5   4   0  508.39   11.74
  -5   4   0  522.66   11.98
   5  -4   0  512.60   11.80
  -5   4  -1    7.88    0.86
   5  -4   1    8.69    1.10
  -5   4  -1    6.79    0.92
  -5   4  -2  248.49    6.40
  -5   4  -2  255.53    6.74
   5  -4   2  257.77    6.77
  -5   4  -3    2.08    0.60
  -5   4  -3    2.42    0.66
   5  -4   3    1.06    0.65
  -5   4  -4  333.53    8.29
  -5   4  -4  344.74    8.52
   5  -4   4  338.36    8.51
  -5   4  -5   76.25    3.00
  -5   4  -5   79.08    3.11
   5  -4   5   79.05    3.13
   5  -4   6  101.88    3.73
  -5   4  -6  106.61    3.76
   5  -4   7    3.15    0.76
  -5   4  -7    4.60    0.87
   5  -4   7    3.14    0.77
   5  -4   8   60.59    2.86
   5  -4   8   57.80    2.73
  -5   4  -8   58.63    2.70
   5  -4   9    3.78    0.94
   5  -4   9    4.31    0.89
  -5   4  -9    4.88    0.82
  -5   4 -10   99.98    3.25
   5  -4  10  104.92    4.15
  -5   4 -10   97.39    3.74
   5  -4  10   96.84    3.82
  -5   4 -10  106.53    3.92
  -5   4 -11   94.70    3.18
   5  -4  11   99.55    4.12
   5  -4  11   96.54    3.82
   5  -4  12    3.50    0.93
  -5   4 -12    3.08    0.62
   5  -4  12    3.09    0.89
  -5   4 -13    0.02    0.50
   5  -4  13   -1.40    0.88
   5  -4  13    0.81    0.67
  -5   4 -14    7.06    0.88
   5  -4  14    7.52    1.37
   5  -4  14    7.31    1.15
  -5   4 -15  145.81    4.46
   5  -4  15  139.42    5.70
   5  -4  15  146.00    5.21
  -5   4 -16    7.09    0.90
   5  -4  16    5.88    1.32
   5  -4  16    9.07    1.33
   5  -4  17   33.52    2.78
   5  -4  17   33.05    2.32
   5  -4  18    2.99    1.17
   5  -4  18    1.38    0.68
  -5   3  16    2.47    1.13
  -5   3  15    8.08    1.52
  -5   3  14   10.69    1.76
  -5   3  14   12.30    1.28
  -5   3  13  109.54    4.90
  -5   3  13  107.88    4.06
  -5   3  12    1.64    0.70
  -5   3  11    2.57    0.63
  -5   3  11    1.81    0.51
  -5   3  10  142.67    4.58
  -5   3  10  122.32    3.95
  -5   3   9  459.84   10.41
  -5   3   9  381.61    9.50
  -5   3   8   56.90    2.65
  -5   3   8   46.22    2.12
  -5   3   7   57.83    2.66
  -5   3   7   50.94    2.23
  -5   3   6    0.23    0.52
  -5   3   6    0.40    0.38
  -5   3   5   21.13    1.55
  -5   3   5   19.97    1.31
  -5   3   4    2.14    0.68
  -5   3   4    1.88    0.49
  -5   3   3    0.00    0.60
  -5   3   3    1.14    0.53
  -5   3   2  254.93    6.70
  -5   3   2  240.08    6.30
  -5   3   1   56.87    2.54
  -5   3   1   54.33    2.29
  -5   3   0  274.67    7.12
  -5   3   0  272.68    6.91
  -5   3  -1    8.51    0.96
  -5   3  -1    8.58    0.97
   5  -3   1   10.61    1.12
  -5   3  -2   55.20    2.26
  -5   3  -2   59.40    2.47
  -5   3  -2   57.83    2.49
   5  -3   2   60.36    2.53
  -5   3  -3   17.13    1.23
  -5   3  -3   15.74    1.27
   5  -3   3   18.98    1.38
  -5   3  -4  697.89   15.32
  -5   3  -4  712.36   15.48
   5  -3   4  719.82   15.52
  -5   3  -5   55.68    2.43
  -5   3  -5   58.77    2.53
   5  -3   5   55.84    2.52
  -5   3  -6   21.12    1.47
  -5   3  -6   22.25    1.49
   5  -3   6   18.41    1.45
  -5   3  -7   53.31    2.49
  -5   3  -7   50.81    2.35
   5  -3   7   50.51    2.40
   5  -3   8  190.11    5.68
  -5   3  -8  188.75    5.48
   5  -3   8  187.97    5.51
   5  -3   9   33.93    2.08
  -5   3  -9   33.82    1.97
  -5   3  -9   32.10    1.88
   5  -3   9   31.85    1.90
  -5   3 -10  227.93    5.89
   5  -3  10  226.43    6.73
  -5   3 -10  225.29    6.46
   5  -3  10  223.96    6.40
  -5   3 -10  236.08    6.45
   5  -3  11   12.68    1.39
  -5   3 -11   12.07    1.05
  -5   3 -11   12.10    1.24
   5  -3  11   11.60    1.24
  -5   3 -11   12.86    1.24
   5  -3  12   44.85    2.65
  -5   3 -12   44.36    2.07
   5  -3  12   44.83    2.41
  -5   3 -12   44.40    2.37
  -5   3 -13   12.46    1.11
   5  -3  13   12.44    1.50
  -5   3 -13   13.30    1.34
   5  -3  13   13.90    1.38
   5  -3  14   25.46    2.12
  -5   3 -14   21.67    1.50
   5  -3  14   24.44    1.82
  -5   3 -15    7.53    0.99
   5  -3  15    6.43    1.28
   5  -3  15    9.25    1.21
   5  -3  16  147.88    5.80
  -5   3 -16  136.95    4.56
   5  -3  16  143.92    5.03
   5  -3  17   73.22    3.99
  -5   3 -17   68.98    3.00
   5  -3  17   64.05    3.17
   5  -3  18   26.90    2.51
   5  -3  18   23.20    1.92
   5  -3  19    2.85    1.13
  -5   2  17   10.17    1.83
  -5   2  16    7.90    1.43
  -5   2  15    0.47    0.86
  -5   2  14    0.73    0.85
  -5   2  14   -0.36    0.52
  -5   2  13   25.75    1.55
  -5   2  13   26.07    2.29
  -5   2  13   24.30    1.77
  -5   2  12    2.20    0.72
  -5   2  12    1.92    0.58
  -5   2  11   38.99    2.18
  -5   2  10    1.72    0.69
  -5   2   9   62.89    2.80
   5  -2  -9   61.41    2.79
  -5   2   8   45.18    2.29
   5  -2  -8   41.42    2.18
  -5   2   7  763.86   16.63
   5  -2  -7  743.71   16.55
  -5   2   6    0.87    0.69
   5  -2  -6   -0.18    0.55
  -5   2   6    0.91    0.52
  -5   2   5    9.27    1.04
   5  -2  -5    8.25    0.99
  -5   2   5    8.10    0.90
  -5   2   4   23.13    1.60
  -5   2   4   19.83    1.34
  -5   2   3  676.51   14.04
  -5   2   3  581.58   13.45
  -5   2   2  261.43    6.66
  -5   2   2  238.24    6.28
  -5   2   1  813.08   16.70
  -5   2   1  730.50   16.23
  -5   2   0    8.29    0.87
  -5   2   0    7.82    0.96
  -5   2  -1   23.73    1.54
  -5   2  -1   20.02    1.38
  -5   2  -2   36.79    1.89
  -5   2  -2   35.20    1.78
  -5   2  -3    0.73    0.54
  -5   2  -3    0.90    0.56
   5  -2   3    0.37    0.56
  -5   2  -4    0.98    0.59
   5  -2   4    1.07    0.64
  -5   2  -4    0.63    0.52
  -5   2  -4    0.42    0.45
  -5   2  -5   85.89    3.04
  -5   2  -5   82.23    2.98
   5  -2   5   83.34    3.03
  -5   2  -6   70.48    2.75
  -5   2  -6   66.57    2.65
   5  -2   6   68.40    2.70
  -5   2  -7    4.51    0.77
   5  -2   7    2.90    0.71
  -5   2  -7    3.58    0.64
  -5   2  -8   52.67    2.48
  -5   2  -8   51.92    2.32
   5  -2   8   54.55    2.42
   5  -2   9  194.19    5.75
  -5   2  -9  190.63    5.59
   5  -2   9  189.56    5.44
  -5   2  -9  190.85    5.39
  -5   2 -10  361.89    8.55
   5  -2  10  369.20    9.35
  -5   2 -10  360.88    9.07
  -5   2 -10  359.80    8.83
   5  -2  10  351.69    8.84
  -5   2 -11   70.29    2.71
   5  -2  11   70.91    3.23
  -5   2 -11   69.94    3.04
  -5   2 -11   69.19    2.84
   5  -2  11   70.20    2.90
   5  -2  12   46.48    2.64
  -5   2 -12   48.70    2.22
   5  -2  12   45.14    2.32
  -5   2 -12   47.87    2.31
   5  -2  13    1.36    0.88
  -5   2 -13   -0.47    0.55
  -5   2 -13    0.42    0.55
   5  -2  13    0.70    0.60
   5  -2  14  259.51    7.86
  -5   2 -14  263.61    6.93
  -5   2 -14  253.12    7.00
   5  -2  14  257.12    7.12
  -5   2 -15   12.94    1.23
   5  -2  15   15.41    1.70
  -5   2 -15   12.40    1.27
   5  -2  15   14.78    1.40
   5  -2  16  128.92    5.27
  -5   2 -16  125.98    4.40
  -5   2 -16  125.37    4.48
   5  -2  16  127.87    4.47
  -5   2 -17   50.95    2.68
   5  -2  17   54.55    3.34
   5  -2  17   55.33    2.78
  -5   2 -18   15.28    1.50
   5  -2  18   15.57    1.86
   5  -2  18   17.13    1.53
  -5   2 -19   -1.25    0.74
   5  -2  19    2.24    1.14
   5  -2  20    1.28    1.01
  -5   1  17    6.90    1.46
  -5   1  16    6.88    1.42
  -5   1  15    3.57    1.16
  -5   1  15    2.02    0.70
  -5   1  14   13.73    1.17
  -5   1  14   14.72    1.76
  -5   1  14   13.67    1.37
  -5   1  13   52.56    3.15
  -5   1  13   48.10    2.28
  -5   1  13   52.71    2.62
   5  -1 -13   51.91    2.70
  -5   1  12   11.23    1.08
  -5   1  12    8.53    1.33
  -5   1  12    9.41    1.13
   5  -1 -12   11.11    1.24
  -5   1  11   10.46    1.16
   5  -1 -11   10.36    1.15
  -5   1  10  110.56    3.94
   5  -1 -10  109.92    4.00
  -5   1   9   56.69    2.59
   5  -1  -9   52.98    2.55
  -5   1   8   57.49    2.62
   5  -1  -8   61.07    2.71
   5  -1  -7  148.69    4.65
  -5   1   7  143.52    4.56
  -5   1   6   31.67    1.84
   5  -1  -6   34.65    1.94
   5  -1  -5   19.62    1.45
  -5   1   5   18.37    1.40
  -5   1   4   -0.72    0.65
   5  -1  -4    0.44    0.47
   5  -1  -3  138.99    4.30
  -5   1   3  141.64    4.31
  -5   1   2   54.10    2.36
   5  -1  -2   54.20    2.36
  -5   1   1   32.86    1.75
   5  -1  -1   28.37    1.64
  -5   1   0   20.08    1.42
   5  -1   0   19.64    1.32
  -5   1   0   17.08    1.26
  -5   1  -1  100.01    3.28
  -5   1  -1   88.21    3.05
  -5   1  -2   11.93    1.06
  -5   1  -2   13.12    1.15
  -5   1  -3  227.40    5.75
  -5   1  -3  214.43    5.67
  -5   1  -4    3.38    0.67
  -5   1  -4    3.23    0.70
  -5   1  -5    5.59    0.79
  -5   1  -5    4.07    0.64
  -5   1  -5    5.25    0.75
   5  -1   5    4.06    0.82
  -5   1  -6   11.55    1.03
  -5   1  -6   11.20    0.97
  -5   1  -6   11.24    1.00
   5  -1   6   10.20    1.09
  -5   1  -7   30.72    1.75
  -5   1  -7   30.09    1.53
  -5   1  -7   31.68    1.64
   5  -1   7   31.71    1.69
  -5   1  -8   20.09    1.42
  -5   1  -8   19.36    1.21
  -5   1  -8   19.71    1.30
   5  -1   8   19.12    1.32
  -5   1  -9    3.78    0.68
  -5   1  -9    1.98    0.67
  -5   1  -9    2.29    0.67
   5  -1   9    1.35    0.48
  -5   1  -9    3.18    0.63
  -5   1  -9    2.61    0.56
  -5   1 -10   13.00    1.09
   5  -1  10   10.80    1.21
  -5   1 -10    9.48    1.07
   5  -1  10   11.02    1.08
  -5   1 -10   11.57    0.95
  -5   1 -10   12.14    1.05
  -5   1 -11  211.14    5.76
   5  -1  11  214.43    6.30
  -5   1 -11  215.77    6.21
  -5   1 -11  205.31    5.67
  -5   1 -11  206.70    5.35
   5  -1  11  212.21    5.77
   5  -1  12   17.75    1.59
  -5   1 -12   17.89    1.35
  -5   1 -12   16.82    1.25
  -5   1 -12   18.94    1.15
   5  -1  12   20.14    1.42
   5  -1  13  110.42    4.34
  -5   1 -13  107.05    3.77
  -5   1 -13  113.79    3.33
   5  -1  13  112.76    3.80
  -5   1 -13  105.54    3.65
   5  -1  14    0.23    0.68
  -5   1 -14    0.71    0.59
  -5   1 -14   -1.36    0.63
   5  -1  14    0.17    0.51
  -5   1 -14    0.47    0.38
   5  -1  15   46.15    2.80
  -5   1 -15   42.63    2.33
  -5   1 -15   45.83    1.82
  -5   1 -15   42.93    2.16
   5  -1  15   46.67    2.29
   5  -1  16  136.44    5.31
  -5   1 -16  125.68    4.50
  -5   1 -16  129.57    3.58
  -5   1 -16  130.44    4.32
   5  -1  16  129.16    4.32
   5  -1  17  198.16    6.88
  -5   1 -17  190.78    6.06
   5  -1  17  198.52    5.78
  -5   1 -18    6.56    1.03
   5  -1  18   12.45    1.68
   5  -1  18   11.25    1.21
  -5   1 -19    0.64    0.57
   5  -1  19    3.03    1.15
  -5   1 -20    0.20    0.58
   5  -1  20    0.33    0.80
   5  -1  21    2.54    0.99
  -5   0  17    1.81    1.10
  -5   0  16    9.89    1.58
  -5   0  15   -0.33    0.84
  -5   0  15    0.07    0.58
  -5   0  14    1.46    0.65
  -5   0  14    1.18    0.93
  -5   0  14    1.47    0.70
  -5   0  13   10.01    1.43
  -5   0  13    9.54    1.16
  -5   0  13   11.35    1.24
  -5   0  12   16.86    1.72
  -5   0  12   15.06    1.31
  -5   0  12   17.92    1.48
   5   0 -12   17.93    1.57
  -5   0  11    0.38    0.46
  -5   0  11    1.29    0.68
   5   0 -11    0.79    0.57
  -5   0  10    9.29    1.09
   5   0 -10    9.70    1.14
   5   0  -9    2.53    0.74
  -5   0   9    0.41    0.49
   5   0  -8  475.72   11.16
  -5   0   8  446.83   10.86
  -5   0   7   11.64    1.15
   5   0  -7   12.58    1.24
   5   0  -6  210.46    5.91
  -5   0   6  200.60    5.71
  -5   0   5   18.10    1.38
   5   0  -5   18.14    1.38
   5   0  -4   52.79    2.40
  -5   0   4   50.54    2.28
  -5   0   3  156.23    4.60
   5   0  -3  162.26    4.79
  -5   0   2  327.49    8.07
   5   0  -2  343.64    8.22
  -5   0   1   17.78    1.31
   5   0  -1   18.75    1.30
  -5   0   0    0.08    0.58
   5   0   0    0.94    0.48
  -5   0  -1   14.62    1.18
   5   0   1   14.43    1.12
   5   0   2   20.79    1.30
  -5   0  -2   21.71    1.39
  -5   0  -3    2.86    0.70
   5   0   3    2.61    0.56
  -5   0  -3    2.49    0.66
  -5   0  -4   83.66    2.76
  -5   0  -4   76.65    2.69
  -5   0  -5 1092.31   21.63
  -5   0  -5 1023.63   21.62
  -5   0  -6  206.06    5.44
  -5   0  -6  206.17    5.19
  -5   0  -6  197.98    5.24
  -5   0  -7  253.91    6.51
  -5   0  -7  258.35    6.11
  -5   0  -7  246.50    6.22
  -5   0  -8   20.12    1.40
  -5   0  -8   18.91    1.37
  -5   0  -8   20.31    1.15
  -5   0  -8   19.61    1.24
   5   0   8   21.27    1.33
  -5   0  -9   98.70    3.52
  -5   0  -9  101.99    3.54
  -5   0  -9   97.37    3.30
  -5   0  -9  100.43    2.97
  -5   0  -9   98.41    3.20
   5   0   9   98.66    3.25
  -5   0 -10   17.29    1.39
  -5   0 -10   15.88    1.22
  -5   0 -10   16.99    1.04
  -5   0 -10   16.29    1.13
   5   0  10   16.06    1.19
  -5   0 -11   66.90    2.89
  -5   0 -11   59.29    2.55
  -5   0 -11   61.28    2.11
   5   0  11   61.15    2.44
  -5   0 -11   60.86    2.36
   5   0  12   82.62    3.44
  -5   0 -12   79.89    3.08
  -5   0 -12   80.26    2.47
  -5   0 -12   75.10    2.76
   5   0  12   78.18    2.87
  -5   0 -13    8.16    0.96
   5   0  13    9.13    1.22
  -5   0 -13    9.46    0.75
  -5   0 -13    7.59    0.80
   5   0  13    8.72    0.92
  -5   0 -14    5.64    0.73
   5   0  14    7.37    1.15
  -5   0 -14    4.12    0.83
  -5   0 -14    5.98    0.57
   5   0  14    6.55    0.83
   5   0  15  117.04    4.61
  -5   0 -15  115.52    4.19
  -5   0 -15  114.84    2.99
  -5   0 -15  109.70    3.62
   5   0  15  118.84    3.83
   5   0  16   45.14    2.73
  -5   0 -16   39.25    2.32
  -5   0 -16   37.94    1.26
  -5   0 -16   39.25    1.23
  -5   0 -16   41.47    2.00
   5   0  16   40.26    2.03
   5   0  17   51.44    3.09
  -5   0 -17   46.82    2.64
   5   0  17   55.19    2.41
  -5   0 -18    2.41    0.77
   5   0  18    4.59    1.08
  -5   0 -19   13.87    1.51
   5   0  19   15.46    1.84
  -5   0 -20   -0.34    0.66
   5   0  20    0.08    0.78
   5   0  21   56.03    3.65
  -5  -1  18   10.20    1.70
  -5  -1  17   20.52    2.24
  -5  -1  16    0.51    0.81
  -5  -1  15   66.24    3.67
  -5  -1  14   52.88    3.09
  -5  -1  14   51.28    2.57
  -5  -1  14   50.04    2.68
  -5  -1  13    6.78    1.01
  -5  -1  13    7.67    1.18
  -5  -1  13    8.67    1.14
  -5  -1  12   48.18    2.76
  -5  -1  12   46.11    2.37
   5   1 -12   51.87    2.73
  -5  -1  12   49.83    2.57
  -5  -1  11    0.28    0.64
  -5  -1  11    0.23    0.55
   5   1 -11   -0.09    0.59
  -5  -1  11    0.17    0.52
  -5  -1  10    0.65    0.57
  -5  -1  10   -0.09    0.49
   5   1 -10   -0.05    0.54
   5   1  -9    7.51    1.03
  -5  -1   9    7.18    1.01
  -5  -1   8    3.14    0.72
   5   1  -8    3.29    0.75
  -5  -1   7   10.64    1.12
   5   1  -7   10.37    1.11
   5   1  -6  271.55    7.14
  -5  -1   6  262.99    6.96
   5   1  -5    3.11    0.70
  -5  -1   5    2.92    0.72
   5   1  -4    0.47    0.47
  -5  -1   4    0.06    0.53
   5   1  -3    4.68    0.72
  -5  -1   3    5.05    0.82
   5   1  -2   40.72    1.99
  -5  -1   2   39.43    1.96
  -5  -1   1   15.79    1.19
   5   1  -1   17.32    1.29
  -5  -1   0  227.74    5.87
   5   1   0  234.58    6.00
  -5  -1  -1    4.60    0.77
   5   1   1    5.37    0.74
  -5  -1  -2   43.91    1.93
   5   1   2   47.97    2.00
   5   1   3  148.64    4.09
  -5  -1  -3  139.51    3.99
   5   1   4   44.39    1.84
  -5  -1  -4   43.88    1.83
  -5  -1  -5    6.26    0.73
   5   1   5    5.52    0.66
  -5  -1  -5    5.67    0.75
  -5  -1  -6  666.06   14.07
   5   1   6  674.39   14.04
  -5  -1  -6  682.92   14.24
  -5  -1  -7   96.13    3.27
  -5  -1  -7   98.13    3.23
  -5  -1  -7   91.02    2.80
  -5  -1  -7   95.18    2.96
  -5  -1  -8  292.61    7.17
  -5  -1  -8  283.62    7.05
  -5  -1  -8  287.57    6.99
  -5  -1  -8  265.52    6.37
  -5  -1  -8  275.62    6.62
  -5  -1  -9   57.87    2.54
  -5  -1  -9   57.77    2.44
  -5  -1  -9   61.61    2.53
  -5  -1  -9   56.90    1.96
  -5  -1  -9   61.23    2.21
  -5  -1 -10   21.39    1.52
  -5  -1 -10   19.53    1.38
  -5  -1 -10   22.24    1.48
  -5  -1 -10   18.11    0.96
  -5  -1 -10   19.30    1.17
  -5  -1 -11  402.66    9.65
  -5  -1 -11  380.67    9.26
  -5  -1 -11  367.57    8.13
  -5  -1 -11  386.78    8.66
  -5  -1 -12  166.51    4.97
  -5  -1 -12  152.65    3.74
  -5  -1 -12  159.74    4.33
  -5  -1 -13   72.38    3.06
  -5  -1 -13   73.10    2.00
  -5  -1 -13   74.89    2.58
  -5  -1 -14    3.04    0.74
  -5  -1 -14    3.05    0.28
  -5  -1 -14    2.25    0.44
   5   1  15  103.99    4.16
  -5  -1 -15   99.69    3.88
  -5  -1 -15   93.61    3.03
  -5  -1 -16   -0.12    0.41
   5   1  16    0.26    0.65
  -5  -1 -16    0.73    0.63
   5   1  17   92.02    4.11
  -5  -1 -17   83.87    3.75
  -5  -1 -18   62.96    3.27
   5   1  18   68.45    3.59
  -5  -1 -19    1.49    0.85
   5   1  19    0.35    0.74
  -5  -1 -20    3.90    1.05
  -5  -2  18    1.02    0.92
  -5  -2  17   -0.32    0.94
  -5  -2  16    1.83    1.01
  -5  -2  15    1.72    0.85
  -5  -2  15    0.19    0.73
  -5  -2  14    4.15    0.91
  -5  -2  14    3.06    0.95
  -5  -2  13  107.66    4.40
  -5  -2  13  102.41    3.97
  -5  -2  12   14.34    1.42
  -5  -2  12   11.85    1.39
  -5  -2  12    9.93    1.23
  -5  -2  11  156.31    5.29
  -5  -2  11  148.66    4.94
   5   2 -11  159.11    5.28
  -5  -2  11  156.11    5.12
  -5  -2  11  158.74    5.13
  -5  -2  10   37.27    2.26
  -5  -2  10   37.80    2.12
   5   2 -10   43.25    2.38
  -5  -2  10   38.43    2.20
  -5  -2   9   22.72    1.60
  -5  -2   9   22.60    1.66
   5   2  -9   22.77    1.70
   5   2  -8    4.99    0.83
  -5  -2   8    4.88    0.83
  -5  -2   7    0.64    0.58
   5   2  -7    0.59    0.52
   5   2  -6   64.99    2.77
  -5  -2   6   58.97    2.64
   5   2  -5   -0.09    0.43
  -5  -2   5    0.27    0.57
   5   2  -4   63.34    2.65
  -5  -2   4   57.10    2.47
  -5  -2   3   73.07    2.81
   5   2  -3   74.55    2.85
   5   2  -2   17.92    1.33
  -5  -2   2   16.05    1.24
   5   2  -1    0.94    0.53
  -5  -2   1    0.74    0.56
  -5  -2   0   46.75    2.03
   5   2   0   48.80    2.09
  -5  -2  -1   26.34    1.48
   5   2   1   28.60    1.53
  -5  -2  -2   43.17    1.89
   5   2   2   43.29    1.89
  -5  -2  -3    0.43    0.52
   5   2   3    0.97    0.48
  -5  -2  -4  329.72    7.50
   5   2   4  328.81    7.60
  -5  -2  -5  132.80    3.56
   5   2   5  126.12    3.59
   5   2   6  229.79    5.53
  -5  -2  -6  230.97    5.46
  -5  -2  -7   31.60    1.69
  -5  -2  -7   33.52    1.69
  -5  -2  -7   32.77    1.62
   5   2   7   29.39    1.31
  -5  -2  -7   30.03    1.31
  -5  -2  -7   30.11    1.45
  -5  -2  -8   82.49    3.10
  -5  -2  -8   89.75    3.10
  -5  -2  -8   92.75    3.06
  -5  -2  -8   87.86    2.50
  -5  -2  -8   85.25    2.71
  -5  -2  -9    2.54    0.62
  -5  -2  -9    1.74    0.52
  -5  -2  -9    1.66    0.58
  -5  -2  -9    1.44    0.34
  -5  -2  -9    1.65    0.41
  -5  -2 -10    3.69    0.75
  -5  -2 -10    3.91    0.74
  -5  -2 -10    3.98    0.78
  -5  -2 -10    5.15    0.49
  -5  -2 -10    3.95    0.56
  -5  -2 -11   31.81    1.90
  -5  -2 -11   32.10    1.82
  -5  -2 -11   29.89    1.82
  -5  -2 -11   29.84    1.05
  -5  -2 -11   29.55    1.39
  -5  -2 -12    0.41    0.55
  -5  -2 -12    0.68    0.16
  -5  -2 -12    0.97    0.39
  -5  -2 -13   79.14    3.31
  -5  -2 -13   85.10    2.63
  -5  -2 -14    6.13    0.97
  -5  -2 -14    5.64    0.62
  -5  -2 -15    0.68    0.38
  -5  -2 -15   -0.03    0.60
  -5  -2 -16   37.83    1.56
  -5  -2 -16   35.58    2.31
  -5  -2 -17   32.31    2.30
  -5  -2 -18  142.41    5.37
  -5  -2 -19   23.14    2.09
  -5  -2 -20    2.37    0.96
  -5  -2 -21   16.59    1.96
  -5  -3  18    9.05    1.59
  -5  -3  17    1.10    0.88
  -5  -3  16    0.23    0.76
  -5  -3  15   -1.46    0.99
  -5  -3  15    1.24    0.75
  -5  -3  14    3.71    1.04
  -5  -3  14    3.83    0.90
  -5  -3  13  124.82    4.60
  -5  -3  13  127.05    4.85
  -5  -3  12    8.11    1.14
  -5  -3  12    6.71    1.10
  -5  -3  12    8.57    1.10
  -5  -3  11   99.01    3.87
  -5  -3  11   98.47    3.86
  -5  -3  11   97.76    3.68
  -5  -3  10    2.19    0.78
  -5  -3  10    1.63    0.73
   5   3 -10    0.96    0.66
  -5  -3  10    1.43    0.73
  -5  -3   9  146.85    4.72
  -5  -3   9  143.01    4.79
  -5  -3   9  149.20    4.91
   5   3  -9  153.25    5.03
  -5  -3   8    2.43    0.76
   5   3  -8    1.65    0.57
  -5  -3   8    2.35    0.72
  -5  -3   7  210.86    6.09
   5   3  -7  227.69    6.36
  -5  -3   7  216.58    6.21
   5   3  -6    2.62    0.77
  -5  -3   6    2.53    0.73
  -5  -3   5  506.87   11.96
   5   3  -5  543.03   12.20
   5   3  -4   96.04    3.43
  -5  -3   4   93.61    3.39
  -5  -3   3    5.10    0.86
   5   3  -3    3.14    0.69
  -5  -3   2   -0.10    0.56
   5   3  -2    0.99    0.52
  -5  -3   1  721.62   15.53
   5   3  -1  724.03   15.58
   5   3   0   12.83    1.07
  -5  -3   0   12.64    1.12
   5   3   1  250.42    6.32
  -5  -3  -1  254.17    6.27
   5   3   2   68.87    2.52
  -5  -3  -2   71.86    2.55
  -5  -3  -3   23.57    1.35
   5   3   3   23.54    1.32
   5   3   4    2.79    0.59
  -5  -3  -4    1.53    0.54
  -5  -3  -5  217.49    5.28
   5   3   5  214.70    5.31
  -5  -3  -6  197.01    5.24
  -5  -3  -6  201.45    4.88
   5   3   6  194.22    4.91
  -5  -3  -6  212.52    5.42
  -5  -3  -7  458.94   10.33
  -5  -3  -7  460.14   10.43
   5   3   7  442.77    9.74
  -5  -3  -7  462.13    9.70
  -5  -3  -8    0.62    0.56
  -5  -3  -8    0.56    0.44
  -5  -3  -8    1.12    0.61
  -5  -3  -8    1.15    0.36
   5   3   8    0.67    0.34
  -5  -3  -8    0.30    0.33
  -5  -3  -9   60.28    2.51
  -5  -3  -9   57.74    2.53
  -5  -3  -9   57.68    2.32
  -5  -3  -9   56.31    1.75
   5   3   9   53.61    1.73
  -5  -3  -9   53.51    1.95
  -5  -3 -10  335.25    8.32
  -5  -3 -10  321.96    7.90
  -5  -3 -10  328.96    8.22
  -5  -3 -10  320.94    6.79
  -5  -3 -10  318.13    7.23
  -5  -3 -11    9.51    1.11
  -5  -3 -11    8.65    0.92
  -5  -3 -11    8.25    1.08
  -5  -3 -11    7.88    0.45
  -5  -3 -11    8.69    0.72
  -5  -3 -12  199.54    5.90
  -5  -3 -12  195.11    4.74
  -5  -3 -13   96.47    3.74
  -5  -3 -13   88.67    2.59
  -5  -3 -14    8.19    1.16
  -5  -3 -14    8.44    0.64
  -5  -3 -15    7.35    0.58
  -5  -3 -15    8.26    1.18
  -5  -3 -16   71.09    2.04
  -5  -3 -16   76.53    3.57
  -5  -3 -17    9.84    1.37
  -5  -3 -18   35.85    2.56
  -5  -3 -19    0.88    0.95
  -5  -3 -20    1.90    0.89
  -5  -3 -21   -2.53    1.16
  -5  -4  17    0.69    0.85
  -5  -4  16    2.87    1.00
  -5  -4  15   -0.10    0.69
  -5  -4  15    0.64    0.67
  -5  -4  14    9.15    1.26
  -5  -4  14   11.02    1.35
  -5  -4  13    6.33    1.06
  -5  -4  13    6.76    1.09
  -5  -4  12   48.11    2.70
  -5  -4  12   48.29    2.64
  -5  -4  11   54.50    2.69
  -5  -4  11   57.71    2.93
  -5  -4  11   52.85    2.45
  -5  -4  10    6.79    1.07
  -5  -4  10    4.42    0.77
  -5  -4  10    4.40    0.76
  -5  -4   9   15.60    1.53
  -5  -4   9   13.87    1.21
  -5  -4   8   61.09    2.58
  -5  -4   8   63.42    2.92
  -5  -4   8   62.79    2.97
   5   4  -8   63.69    2.99
  -5  -4   7   24.59    1.73
  -5  -4   7   22.64    1.69
   5   4  -7   24.92    1.78
  -5  -4   6   56.36    2.65
   5   4  -6   58.73    2.72
  -5  -4   6   54.58    2.63
  -5  -4   5  257.92    7.11
  -5  -4   5  270.95    7.25
   5   4  -5  284.91    7.38
   5   4  -4  165.97    5.02
  -5  -4   4  160.48    4.94
   5   4  -3  271.15    7.01
  -5  -4   3  258.84    6.92
  -5  -4   2  101.71    3.50
   5   4  -2  102.04    3.52
  -5  -4   1  578.62   13.02
   5   4  -1  600.51   13.14
   5   4   0  278.69    6.89
  -5  -4   0  262.52    6.71
  -5  -4  -1 4153.71   81.80
   5   4   1 4284.47   81.92
  -5  -4  -2  103.17    3.27
   5   4   2  104.81    3.33
  -5  -4  -3    4.27    0.68
   5   4   3    4.46    0.67
  -5  -4  -4    2.11    0.59
   5   4   4    2.41    0.59
  -5  -4  -5   88.62    2.89
   5   4   5   94.85    2.91
  -5  -4  -5   90.58    2.81
  -5  -4  -5   98.53    3.15
  -5  -4  -6   28.13    1.49
   5   4   6   29.36    1.38
  -5  -4  -6   28.97    1.36
  -5  -4  -6   27.77    1.61
  -5  -4  -7  409.96    9.34
  -5  -4  -7  404.98    8.78
   5   4   7  391.61    8.80
  -5  -4  -7  416.15    9.57
  -5  -4  -8    2.86    0.66
   5   4   8    2.90    0.45
  -5  -4  -8    2.42    0.42
  -5  -4  -8    3.33    0.75
  -5  -4  -9   44.07    2.16
  -5  -4  -9   41.76    1.90
  -5  -4  -9   46.91    2.27
  -5  -4  -9   45.29    1.53
   5   4   9   41.21    1.53
  -5  -4 -10    9.09    1.03
  -5  -4 -10    8.91    0.88
  -5  -4 -10   10.75    1.12
   5   4  10    7.85    0.55
  -5  -4 -10    8.09    0.67
  -5  -4 -11  120.81    4.18
  -5  -4 -11  115.17    3.72
  -5  -4 -11  127.55    4.27
  -5  -4 -11  113.03    3.10
  -5  -4 -12   29.39    1.94
   5   4  12   32.01    2.08
  -5  -4 -12   30.60    1.23
  -5  -4 -13  213.12    6.43
   5   4  13  218.31    6.60
  -5  -4 -13  208.42    4.79
  -5  -4 -14    0.51    0.65
   5   4  14   -0.37    0.68
  -5  -4 -14    0.53    0.25
   5   4  15    4.25    0.94
  -5  -4 -15    4.90    0.37
  -5  -4 -15    4.59    0.99
   5   4  16   43.47    2.80
  -5  -4 -16   39.60    2.60
   5   4  17   24.64    2.64
  -5  -4 -17   23.09    2.09
   5   4  18   59.32    3.54
  -5  -4 -18   58.45    3.36
   5   4  19    7.10    1.51
  -5  -4 -19   10.21    1.56
  -5  -4 -20    1.85    1.00
  -5  -4 -21   11.67    1.77
  -5  -5  15    0.18    0.79
  -5  -5  15    0.63    0.80
  -5  -5  14    0.86    0.70
  -5  -5  14    0.75    0.74
  -5  -5  13    3.92    0.95
  -5  -5  13    2.71    0.89
  -5  -5  12   62.77    3.30
  -5  -5  12   69.40    3.10
  -5  -5  11    1.52    0.64
  -5  -5  11    2.87    0.93
  -5  -5  10  178.25    5.92
  -5  -5  10  186.70    5.38
  -5  -5  10  176.23    5.03
  -5  -5   9   64.16    2.64
  -5  -5   9   62.51    3.11
  -5  -5   8  100.42    3.32
  -5  -5   8   98.60    3.93
  -5  -5   7    1.21    0.77
  -5  -5   7    1.63    0.53
   5   5  -7    1.88    0.72
  -5  -5   6  479.77   10.54
  -5  -5   6  457.18   11.47
   5   5  -6  500.53   11.72
  -5  -5   5   86.91    3.46
  -5  -5   5   87.05    3.48
   5   5  -5   91.37    3.53
  -5  -5   4  147.12    4.74
  -5  -5   4  136.69    4.63
   5   5  -4  155.79    4.84
  -5  -5   3    2.48    0.70
   5   5  -3    2.58    0.68
  -5  -5   3    2.91    0.72
  -5  -5   2  125.35    4.14
   5   5  -2  130.10    4.21
  -5  -5   2  127.10    4.18
   5   5  -1    2.18    0.62
  -5  -5   1    1.72    0.72
   5   5   0   25.94    1.58
  -5  -5   0   24.64    1.58
   5   5   1   37.32    1.90
  -5  -5  -1   37.59    1.88
  -5  -5  -2   61.17    2.45
   5   5   2   62.46    2.47
  -5  -5  -3   24.40    1.19
   5   5   3   27.25    1.50
  -5  -5  -3   26.21    1.50
  -5  -5  -4   22.10    1.18
  -5  -5  -4   24.84    1.39
   5   5   4   26.36    1.42
  -5  -5  -4   23.54    1.41
  -5  -5  -5  129.98    3.63
   5   5   5  129.75    3.74
  -5  -5  -5  128.57    3.72
  -5  -5  -5  125.51    3.91
  -5  -5  -6  365.38    8.50
   5   5   6  364.32    8.38
  -5  -5  -6  376.13    8.41
  -5  -5  -6  377.89    8.87
  -5  -5  -7  341.20    8.07
   5   5   7  334.07    7.67
  -5  -5  -7  339.78    8.33
  -5  -5  -8  130.45    3.98
   5   5   8  122.26    3.40
  -5  -5  -8  122.37    4.08
  -5  -5  -9   67.56    2.78
   5   5   9   67.24    2.15
  -5  -5  -9   63.81    2.41
  -5  -5  -9   66.30    2.84
   5   5  10   73.15    3.04
  -5  -5 -10   76.19    3.05
  -5  -5 -10   72.71    2.61
  -5  -5 -10   72.99    3.10
   5   5  10   68.41    2.13
  -5  -5 -11  931.93   19.23
   5   5  11  892.43   19.19
  -5  -5 -11  883.87   19.20
  -5  -5 -11  876.21   18.33
   5   5  11  858.79   17.30
  -5  -5 -11  852.63   17.56
  -5  -5 -12    6.67    0.82
  -5  -5 -12    8.26    1.18
   5   5  12    7.19    1.05
  -5  -5 -12    6.71    0.56
  -5  -5 -13    2.13    0.76
   5   5  13    2.71    0.85
  -5  -5 -13    2.15    0.32
  -5  -5 -14  120.52    4.57
   5   5  14  124.60    4.70
  -5  -5 -14  110.34    2.57
  -5  -5 -14  119.89    2.58
   5   5  15   34.25    2.41
  -5  -5 -15   33.96    2.36
   5   5  16   -0.40    0.90
  -5  -5 -16    1.39    0.91
   5   5  17   16.46    1.91
  -5  -5 -17   15.26    1.78
   5   5  18    0.63    0.99
  -5  -5 -18    0.45    0.76
   5   5  19  104.46    5.01
  -5  -5 -19   90.70    4.57
   5   5  20    7.49    1.52
  -5  -5 -20    7.87    1.61
  -5  -6  15    3.17    0.92
  -5  -6  14    3.78    1.12
  -5  -6  13    0.85    0.78
  -5  -6  13    2.23    0.61
  -5  -6  12   18.16    1.50
  -5  -6  12   15.25    1.74
  -5  -6  11   14.07    1.28
  -5  -6  11   14.79    1.74
  -5  -6  10   56.50    3.09
  -5  -6  10   61.38    2.57
  -5  -6   9    2.27    0.58
  -5  -6   9    0.47    0.71
  -5  -6   9    1.44    0.44
  -5  -6   8   30.07    2.15
  -5  -6   8   31.53    1.61
  -5  -6   7    3.04    0.87
  -5  -6   7    4.58    0.66
  -5  -6   6  118.18    3.29
  -5  -6   6  116.30    4.36
  -5  -6   5  107.02    2.97
  -5  -6   5  107.08    4.06
   5   6  -5  113.95    4.15
  -5  -6   4  546.08   11.48
  -5  -6   4  565.67   13.14
   5   6  -4  586.93   13.24
  -5  -6   3  137.75    4.71
   5   6  -3  157.89    4.94
  -5  -6   2  104.28    3.83
   5   6  -2  112.02    3.93
  -5  -6   1   43.28    2.27
   5   6  -1   45.87    2.31
  -5  -6   0  465.68   11.20
   5   6   0  496.70   11.32
  -5  -6  -1   79.78    3.00
  -5  -6  -1   74.43    2.08
   5   6   1   79.46    3.01
  -5  -6  -2   49.41    2.23
  -5  -6  -2   48.36    1.58
   5   6   2   47.03    2.19
  -5  -6  -2   47.78    1.99
  -5  -6  -3   21.11    1.03
   5   6   3   20.06    1.36
  -5  -6  -3   22.11    1.34
  -5  -6  -4    4.98    0.58
   5   6   4    5.05    0.75
  -5  -6  -4    7.04    0.88
  -5  -6  -5   10.17    0.86
   5   6   5   10.48    0.96
  -5  -6  -5   11.18    1.06
  -5  -6  -6   70.76    2.53
   5   6   6   72.48    2.58
  -5  -6  -6   71.14    2.83
  -5  -6  -7    1.77    0.49
   5   6   7    1.47    0.41
  -5  -6  -7    1.13    0.64
  -5  -6  -8   47.40    2.14
   5   6   8   46.21    1.87
  -5  -6  -8   47.47    2.35
  -5  -6  -9   24.92    1.58
   5   6   9   23.34    1.58
   5   6   9   24.84    1.25
  -5  -6  -9   22.26    1.62
  -5  -6 -10  244.23    6.65
  -5  -6 -10  234.10    5.62
   5   6  10  242.68    6.66
   5   6  10  238.95    5.62
  -5  -6 -10  234.91    5.94
  -5  -6 -10  239.82    6.79
  -5  -6 -11   68.22    2.15
  -5  -6 -11   70.38    3.07
   5   6  11   68.82    3.05
  -5  -6 -11   71.16    2.55
  -5  -6 -11   69.03    3.16
   5   6  11   67.90    2.10
   5   6  12  277.06    7.67
  -5  -6 -12  268.42    5.98
  -5  -6 -12  270.47    6.73
  -5  -6 -12  278.14    7.80
   5   6  12  273.41    5.88
  -5  -6 -12  268.21    5.98
  -5  -6 -13   48.69    2.75
   5   6  13   51.76    2.79
  -5  -6 -13   48.88    1.44
  -5  -6 -13   48.32    1.43
  -5  -6 -14  108.44    4.44
   5   6  14  112.09    4.49
  -5  -6 -15    7.76    1.31
   5   6  15    5.42    1.14
  -5  -6 -16    9.14    1.41
   5   6  16    9.09    1.51
  -5  -6 -17   53.95    3.27
   5   6  17   48.66    3.16
  -5  -6 -18   40.03    2.91
   5   6  18   35.83    2.81
  -5  -6 -19   15.17    1.99
   5   6  19   14.85    1.95
  -5  -6 -20    5.93    1.33
   5   6  20    7.68    1.70
  -5  -7  15   22.84    2.21
  -5  -7  14   -0.77    0.82
  -5  -7  13   13.88    1.74
  -5  -7  12   10.96    1.51
  -5  -7  11  283.61    7.22
  -5  -7  11  270.60    8.57
  -5  -7  10   17.14    1.26
  -5  -7  10   20.17    1.96
  -5  -7   9    1.89    0.54
  -5  -7   9    0.72    0.69
  -5  -7   8    1.13    0.69
  -5  -7   8    1.34    0.43
  -5  -7   8    1.04    0.36
  -5  -7   7   63.52    2.13
  -5  -7   7   62.34    3.18
  -5  -7   6   38.21    1.43
  -5  -7   6   38.99    2.43
  -5  -7   5   44.41    1.46
  -5  -7   5   44.23    2.57
  -5  -7   4   11.49    1.34
  -5  -7   4    8.09    0.49
  -5  -7   3  273.53    7.54
  -5  -7   3  264.56    5.45
   5   7  -3  281.86    7.60
  -5  -7   2   24.99    1.81
   5   7  -2   30.72    1.97
  -5  -7   1    7.53    1.05
   5   7  -1    8.21    1.06
  -5  -7   1    6.74    0.68
  -5  -7   0   58.81    1.47
  -5  -7   0   58.03    2.69
   5   7   0   63.45    2.78
  -5  -7   0   61.49    2.18
  -5  -7  -1   39.28    1.22
  -5  -7  -1   42.80    2.18
   5   7   1   42.73    2.21
  -5  -7  -1   39.73    1.74
  -5  -7  -2  182.86    4.22
  -5  -7  -2  180.56    5.34
   5   7   2  194.42    5.52
  -5  -7  -2  188.19    4.96
  -5  -7  -3   65.17    2.05
  -5  -7  -3   68.78    2.76
   5   7   3   71.32    2.83
  -5  -7  -3   72.40    2.63
  -5  -7  -4   -0.41    0.58
  -5  -7  -4    0.17    0.30
   5   7   4    0.41    0.47
  -5  -7  -4   -0.14    0.47
  -5  -7  -5   12.90    0.94
  -5  -7  -5   13.21    1.13
   5   7   5   12.32    1.09
  -5  -7  -5   13.08    1.16
  -5  -7  -6   72.78    2.59
  -5  -7  -6   75.15    2.79
   5   7   6   77.93    2.88
  -5  -7  -6   75.38    2.96
  -5  -7  -7   23.84    1.42
  -5  -7  -7   24.48    1.42
   5   7   7   25.48    1.47
  -5  -7  -7   24.74    1.66
  -5  -7  -8  192.21    5.38
   5   7   8  195.04    5.41
  -5  -7  -8  194.86    5.05
   5   7   8  187.12    5.08
  -5  -7  -8  191.78    5.70
  -5  -7  -9    0.24    0.42
   5   7   9    0.59    0.55
  -5  -7  -9    0.03    0.46
   5   7   9    0.54    0.38
  -5  -7  -9   -0.82    0.69
  -5  -7 -10   18.24    1.47
   5   7  10   20.47    1.57
  -5  -7 -10   19.47    1.13
   5   7  10   17.70    1.12
  -5  -7 -10   19.05    1.17
  -5  -7 -10   18.64    1.56
  -5  -7 -11   59.12    2.81
   5   7  11   55.32    2.69
  -5  -7 -11   56.37    1.95
   5   7  11   53.27    1.95
  -5  -7 -11   54.40    2.13
  -5  -7 -11   53.14    2.82
   5   7  12   43.75    2.46
  -5  -7 -12   42.79    1.54
  -5  -7 -12   42.02    1.85
  -5  -7 -12   43.27    2.57
   5   7  12   44.28    1.61
   5   7  13   -0.31    0.78
  -5  -7 -13    0.70    0.27
  -5  -7 -13    0.11    0.81
   5   7  13    0.72    0.24
  -5  -7 -13    1.02    0.29
  -5  -7 -14  126.54    4.98
   5   7  14  122.51    4.79
  -5  -7 -15    3.25    0.97
   5   7  15    3.70    0.90
  -5  -7 -16   85.98    4.22
   5   7  16   86.46    4.16
  -5  -7 -17    5.19    1.26
   5   7  17    5.24    1.27
  -5  -7 -18  139.52    5.89
   5   7  18  141.21    5.91
  -5  -7 -19   31.91    2.84
   5   7  19   37.91    3.00
   5   7  20   54.19    3.65
  -5  -7 -20   44.24    3.38
  -5  -8  15    5.56    1.32
  -5  -8  14    5.14    1.34
  -5  -8  13    2.26    0.94
  -5  -8  12    0.33    0.77
  -5  -8  11   10.49    1.57
  -5  -8  10   -0.33    0.80
  -5  -8   9   62.38    2.21
  -5  -8   9   63.51    3.53
  -5  -8   8   -0.42    0.31
  -5  -8   8    1.02    0.84
  -5  -8   7   84.46    3.91
  -5  -8   6   66.62    3.40
  -5  -8   6   68.80    1.96
  -5  -8   5  113.30    4.49
  -5  -8   5  111.33    2.89
  -5  -8   4   16.74    1.68
  -5  -8   4   15.69    0.87
  -5  -8   3    2.36    0.81
  -5  -8   3    1.79    0.40
  -5  -8   2   18.83    1.63
  -5  -8   2   19.72    1.07
  -5  -8   1    6.65    1.01
  -5  -8   1    7.15    0.68
  -5  -8   0    4.70    0.93
   5   8   0    4.32    0.83
  -5  -8   0    4.46    0.63
  -5  -8  -1  347.47    8.90
   5   8   1  344.89    8.86
  -5  -8  -1  348.42    8.07
  -5  -8  -2   11.98    1.23
   5   8   2   11.84    1.20
  -5  -8  -2   11.32    0.95
  -5  -8  -3    0.95    0.55
  -5  -8  -3    0.67    0.31
   5   8   3    0.97    0.52
  -5  -8  -3    1.17    0.51
  -5  -8  -4   12.30    1.21
  -5  -8  -4   11.91    0.85
   5   8   4   14.72    1.26
  -5  -8  -4   11.56    1.08
  -5  -8  -5   33.21    1.55
  -5  -8  -5   36.66    1.97
   5   8   5   35.84    1.94
  -5  -8  -5   36.09    1.93
  -5  -8  -6    0.38    0.51
  -5  -8  -6    1.50    0.55
   5   8   6    1.08    0.47
  -5  -8  -6   -0.19    0.62
  -5  -8  -7  239.61    6.22
   5   8   7  243.19    6.22
  -5  -8  -7  239.92    6.27
   5   8   7  235.59    6.32
  -5  -8  -7  243.67    6.71
  -5  -8  -8  304.93    7.63
   5   8   8  300.55    7.58
  -5  -8  -8  304.49    7.38
   5   8   8  295.21    7.47
  -5  -8  -8  298.79    8.03
  -5  -8  -9   45.64    2.30
   5   8   9   45.94    2.28
  -5  -8  -9   46.38    1.98
   5   8   9   44.07    2.04
  -5  -8  -9   45.82    2.51
   5   8  10    1.60    0.72
  -5  -8 -10    3.08    0.57
   5   8  10    2.18    0.51
  -5  -8 -10    1.80    0.46
  -5  -8 -10    2.52    0.86
   5   8  11   85.39    3.55
  -5  -8 -11   92.13    2.78
  -5  -8 -11   86.40    2.78
  -5  -8 -11   94.55    3.94
   5   8  11   87.97    2.89
   5   8  12  111.23    4.26
  -5  -8 -12  111.88    3.30
  -5  -8 -12  114.01    4.54
   5   8  12  108.14    3.24
  -5  -8 -12  113.50    3.08
   5   8  13   78.62    3.60
  -5  -8 -13   81.96    3.83
   5   8  13   81.49    2.48
  -5  -8 -13   79.55    2.22
   5   8  14    0.27    0.74
   5   8  14    0.94    0.29
  -5  -8 -14    0.50    0.75
  -5  -8 -15    3.00    1.08
   5   8  15    3.47    0.92
  -5  -8 -16   42.16    2.94
   5   8  16   40.36    2.80
  -5  -8 -17   25.99    2.43
   5   8  17   26.14    2.34
  -5  -8 -18   28.88    2.57
   5   8  18   31.51    2.67
  -5  -8 -19   29.23    2.66
   5   8  19   36.01    2.92
  -5  -9  14    1.96    0.90
  -5  -9  13    2.32    1.10
  -5  -9  12    2.15    0.85
  -5  -9  11    1.88    0.96
  -5  -9  10   26.67    2.35
  -5  -9   9   49.44    3.16
  -5  -9   8   16.09    1.86
  -5  -9   7   49.62    3.06
  -5  -9   6   11.47    1.60
  -5  -9   5   -0.28    0.81
  -5  -9   5    0.25    0.19
  -5  -9   4   33.29    2.32
  -5  -9   4   31.23    1.18
  -5  -9   3    1.81    0.86
  -5  -9   3    1.72    0.38
  -5  -9   2   38.82    2.49
  -5  -9   2   42.25    1.62
  -5  -9   1    0.40    0.70
  -5  -9   1    0.60    0.37
  -5  -9   0   49.80    2.67
  -5  -9   0   49.67    1.97
  -5  -9  -1  393.15    9.99
  -5  -9  -1  387.23    8.93
  -5  -9  -2   90.59    3.66
   5   9   2   99.87    3.84
  -5  -9  -2   90.20    3.10
  -5  -9  -3   81.43    3.35
   5   9   3   82.55    3.40
  -5  -9  -3   79.28    2.92
  -5  -9  -4   15.64    1.43
   5   9   4   19.13    1.53
  -5  -9  -4   17.18    1.31
  -5  -9  -5   21.89    1.60
   5   9   5   21.96    1.61
  -5  -9  -5   19.45    1.46
  -5  -9  -6   -0.36    0.57
   5   9   6    0.30    0.45
  -5  -9  -6   -0.24    0.55
   5   9   7   37.33    1.83
  -5  -9  -7   33.36    1.89
   5   9   7   35.72    1.98
  -5  -9  -7   37.65    2.15
   5   9   8   26.44    1.63
  -5  -9  -8   24.56    1.50
   5   9   8   22.42    1.52
  -5  -9  -8   24.41    1.81
   5   9   9  213.68    5.98
  -5  -9  -9  215.04    5.65
   5   9   9  203.02    5.72
  -5  -9  -9  204.96    6.39
   5   9  10   11.51    1.24
  -5  -9 -10   12.93    1.04
  -5  -9 -10   10.77    0.84
  -5  -9 -10   11.59    1.32
   5   9  10   10.32    0.99
   5   9  11   14.57    1.45
  -5  -9 -11   11.87    1.46
  -5  -9 -11   13.32    0.92
   5   9  11   13.10    1.11
  -5  -9 -11   13.87    1.03
   5   9  12   38.43    2.36
  -5  -9 -12   38.46    1.59
  -5  -9 -12   37.27    2.54
   5   9  12   37.50    1.77
  -5  -9 -12   39.40    1.64
   5   9  13   99.49    4.20
  -5  -9 -13  105.09    4.54
   5   9  13  105.68    3.22
  -5  -9 -13  104.20    2.86
  -5  -9 -14   21.34    2.02
   5   9  14   21.95    1.95
  -5  -9 -14   18.60    0.75
  -5  -9 -15   50.07    3.21
   5   9  15   49.88    3.05
  -5  -9 -16    8.67    1.48
   5   9  16    6.53    1.23
  -5  -9 -17   63.29    3.90
   5   9  17   66.80    3.77
  -5  -9 -18   32.10    2.83
   5   9  18   36.30    2.88
   5   9  19  144.81    6.26
  -5 -10  12    7.00    1.38
  -5 -10  11    1.33    0.97
  -5 -10  10   84.07    4.42
  -5 -10   9    1.61    0.97
  -5 -10   8   54.42    3.33
  -5 -10   7    6.12    1.17
  -5 -10   6   33.34    2.59
  -5 -10   5   -1.07    0.89
  -5 -10   4   15.43    1.73
  -5 -10   4   11.88    0.58
  -5 -10   3    1.42    0.79
  -5 -10   3    1.92    0.36
  -5 -10   2    3.06    0.98
  -5 -10   2    3.88    0.51
  -5 -10   1   -0.02    0.66
  -5 -10   1    0.08    0.33
  -5 -10   0   15.52    1.61
  -5 -10   0   17.97    1.15
  -5 -10  -1   13.49    1.49
  -5 -10  -1   13.85    1.06
  -5 -10  -2   88.84    3.73
  -5 -10  -2   91.32    3.16
  -5 -10  -3   86.53    3.60
  -5 -10  -3   89.41    3.22
  -5 -10  -4  171.21    5.42
  -5 -10  -4  171.20    5.12
  -5 -10  -5   11.82    1.28
  -5 -10  -5   13.08    1.27
  -5 -10  -6  111.20    3.97
  -5 -10  -6   99.43    3.82
   5  10   6  108.14    4.03
   5  10   7  380.51    9.00
  -5 -10  -7  381.69    9.76
   5  10   7  373.86    9.59
  -5 -10  -7  383.10    9.46
   5  10   8  136.07    4.31
  -5 -10  -8  139.15    4.88
   5  10   8  132.69    4.53
  -5 -10  -8  139.17    4.46
   5  10   9  136.05    4.47
  -5 -10  -9  137.09    4.97
   5  10   9  133.71    4.47
  -5 -10  -9  141.97    4.34
   5  10  10    4.91    0.88
  -5 -10 -10    6.79    0.87
   5  10  10    5.90    0.89
  -5 -10 -10    6.91    1.15
   5  10  11    9.90    1.18
  -5 -10 -11    9.18    0.94
  -5 -10 -11   12.56    1.56
  -5 -10 -11   11.07    0.78
   5  10  11    9.08    0.98
   5  10  12   28.93    2.10
  -5 -10 -12   28.81    2.28
   5  10  12   28.86    1.70
  -5 -10 -12   27.18    1.43
  -5 -10 -13    2.38    1.04
   5  10  13    4.16    1.01
  -5 -10 -13    2.93    0.51
  -5 -10 -14    0.77    0.83
   5  10  14    1.34    0.79
  -5 -10 -15   55.58    3.47
   5  10  15   49.82    3.08
  -5 -10 -16    1.01    1.00
   5  10  16    2.09    0.97
  -5 -10 -17    4.03    1.27
   5  10  17    6.08    1.33
   5  10  18   13.53    1.82
   5  10  19   81.63    4.55
  -5 -11  10   68.54    4.13
  -5 -11   9    5.96    1.29
  -5 -11   8   25.16    2.38
  -5 -11   7   32.03    2.58
  -5 -11   6    0.40    0.83
  -5 -11   5   11.39    1.67
  -5 -11   4   81.29    4.06
  -5 -11   3   22.49    2.09
  -5 -11   2    5.73    0.60
  -5 -11   2    7.21    1.33
  -5 -11   1   23.10    1.26
  -5 -11   1   23.31    2.09
  -5 -11   0  180.94    4.87
  -5 -11   0  185.27    6.31
  -5 -11  -1   14.25    1.11
  -5 -11  -1   13.25    1.59
  -5 -11  -2  206.69    5.70
  -5 -11  -2  211.18    6.69
  -5 -11  -3    4.17    0.79
  -5 -11  -3    5.99    1.05
  -5 -11  -4   55.91    2.62
  -5 -11  -4   61.04    3.05
  -5 -11  -5    9.89    1.12
  -5 -11  -5    9.99    1.28
  -5 -11  -6   51.14    2.64
  -5 -11  -6   53.18    2.72
  -5 -11  -7   -0.25    0.62
   5  11   7   -0.26    0.44
  -5 -11  -7    0.31    0.53
  -5 -11  -8  511.18   12.59
   5  11   8  515.33   11.73
  -5 -11  -8  493.08   11.83
   5  11   9   87.82    3.39
  -5 -11  -9   92.38    3.97
   5  11   9   83.51    3.53
  -5 -11  -9   88.96    3.36
   5  11  10  397.27    9.86
  -5 -11 -10  394.83   10.61
   5  11  10  366.82    9.69
  -5 -11 -10  397.72    9.46
   5  11  11    7.89    1.12
  -5 -11 -11    9.56    1.42
   5  11  11    7.63    0.97
  -5 -11 -11    8.45    0.92
   5  11  12   11.72    1.37
  -5 -11 -12   14.52    1.77
   5  11  12   12.65    1.21
  -5 -11 -12   13.81    1.11
  -5 -11 -13   14.26    1.80
   5  11  13   11.38    1.48
  -5 -11 -13   12.12    0.98
  -5 -11 -14   58.64    3.57
   5  11  14   54.07    3.12
  -5 -11 -15   60.52    3.71
   5  11  15   56.30    3.30
  -5 -11 -16    2.54    1.22
   5  11  16    0.82    0.94
   5  11  17   17.20    2.00
   5  11  18   15.08    1.98
  -5 -12   8   10.51    1.68
  -5 -12   7    0.32    0.85
  -5 -12   6   10.13    1.64
  -5 -12   5    1.22    0.93
  -5 -12   4    2.53    1.01
  -5 -12   3    7.45    1.34
  -5 -12   2   38.14    2.70
  -5 -12   1   38.95    2.70
  -5 -12   0    0.12    0.42
  -5 -12   0    1.27    0.77
  -5 -12  -1   21.30    1.41
  -5 -12  -1   22.06    1.99
  -5 -12  -2   44.65    2.18
  -5 -12  -2   41.40    2.64
  -5 -12  -3  101.29    3.66
  -5 -12  -3   95.17    4.12
  -5 -12  -4   28.36    1.87
  -5 -12  -4   28.17    2.09
  -5 -12  -5   30.26    2.02
  -5 -12  -5   29.68    2.08
  -5 -12  -6   80.80    3.54
  -5 -12  -6   80.17    3.52
  -5 -12  -7   46.38    2.67
   5  12   7   41.33    2.02
  -5 -12  -7   44.01    2.49
  -5 -12  -8   75.34    3.60
   5  12   8   75.76    3.00
  -5 -12  -8   74.73    3.29
  -5 -12  -9   19.11    1.82
   5  12   9   23.93    1.66
  -5 -12  -9   17.96    1.53
  -5 -12 -10   52.39    3.13
   5  12  10   50.05    2.59
  -5 -12 -10   50.83    2.48
  -5 -12 -11   35.02    2.63
   5  12  11   34.94    2.24
  -5 -12 -11   36.83    2.00
  -5 -12 -12    4.05    1.09
   5  12  12    5.57    1.10
  -5 -12 -12    5.61    0.81
  -5 -12 -13    6.05    1.29
   5  12  13    9.82    1.40
   5  12  14   33.68    2.46
  -5 -12 -14   29.85    2.63
   5  12  15    5.31    1.20
   5  12  16  135.38    5.69
   5  12  17    7.34    1.45
   5  12  18    3.03    1.28
  -5 -13   6    3.69    1.14
  -5 -13   5  105.31    5.12
  -5 -13   4   10.34    1.66
  -5 -13   3   80.95    4.31
  -5 -13   2    6.23    1.40
  -5 -13   1    6.27    1.22
  -5 -13   0    1.11    0.90
  -5 -13  -1   21.20    2.04
  -5 -13  -2    0.34    0.90
  -5 -13  -3    1.73    0.70
  -5 -13  -3    2.45    0.93
  -5 -13  -4    5.07    0.92
  -5 -13  -4    6.74    1.19
  -5 -13  -5    0.53    0.62
  -5 -13  -5    0.77    0.77
  -5 -13  -6    4.83    0.99
  -5 -13  -6    3.55    0.87
  -5 -13  -7   15.97    1.65
  -5 -13  -7   14.01    1.57
  -5 -13  -8    6.77    1.24
   5  13   8    6.81    0.93
  -5 -13  -8    4.65    0.99
  -5 -13  -9   10.23    1.44
   5  13   9    9.62    1.14
  -5 -13  -9   10.68    1.30
  -5 -13 -10    2.60    1.13
   5  13  10   -0.17    0.64
  -5 -13 -10    0.75    0.59
   5  13  11   69.28    3.25
  -5 -13 -11   66.17    3.78
  -5 -13 -11   65.21    2.97
   5  13  12   -0.84    0.81
   5  13  13    9.27    1.36
   5  13  14   13.71    1.71
   5  13  15   10.86    1.60
   5  13  16    1.16    0.82
   5  13  17    2.00    1.00
  -5 -14   4   15.72    2.02
  -5 -14   3   57.56    3.67
  -5 -14   2  183.90    7.05
  -5 -14   1   88.08    4.56
  -5 -14   0   15.50    1.93
  -5 -14  -1   14.38    1.83
  -5 -14  -2    7.13    1.40
  -5 -14  -3   19.19    2.01
  -5 -14  -4   -0.21    0.85
  -5 -14  -5   11.12    1.50
  -5 -14  -6   21.06    2.00
  -5 -14  -7   47.32    2.86
  -5 -14  -8   38.40    2.54
   5  14   9   21.22    1.63
  -5 -14  -9   16.52    1.65
   5  14  10    0.67    0.59
  -5 -14 -10    0.01    0.65
   5  14  11   16.22    1.56
  -5 -14 -11   16.66    1.54
   5  14  12    1.24    0.69
   5  14  13    4.75    1.16
   5  14  14   -1.75    0.95
   5  14  15  108.76    4.97
   5  14  16   11.99    1.72
   5  14  17   19.77    2.24
  -5 -15   1    7.58    1.57
  -5 -15   0    0.81    0.84
  -5 -15  -1    5.57    1.26
  -5 -15  -2    3.25    1.16
  -5 -15  -3   -0.94    1.00
  -5 -15  -4   28.64    2.50
  -5 -15  -5   66.30    3.70
  -5 -15  -6    1.80    1.05
  -5 -15  -7   18.84    1.90
  -5 -15  -8   55.09    3.17
  -5 -15  -9   12.89    1.53
  -5 -15 -10   19.09    1.76
  -5 -16  -2   95.13    4.87
  -5 -16  -3   -0.57    0.87
  -5 -16  -4   -0.03    0.86
  -5 -16  -5   10.98    1.70
  -5 -16  -6    1.73    0.82
  -5 -16  -7    1.52    1.00
  -5 -16  -8    0.34    0.88
  -5 -16  -9    0.02    0.80
  -5 -17  -5   25.28    2.57
  -5 -17  -6    5.50    1.32
  -5 -17  -7    0.41    0.84
  -5 -17  -8   11.38    1.61
   6 -14  -5    1.41    1.25
   6 -14  -4   -0.15    1.01
   6 -13  -5   36.27    2.86
   6 -13  -4    8.85    1.55
   6 -13  -3    1.73    0.97
   6 -13  -2    3.41    1.26
   6 -13  -1   74.46    4.29
   6 -13   0    9.98    1.71
   6 -13   1    4.22    1.25
   6 -13   2    2.55    1.13
  -6  12  10   49.48    3.65
  -6  12   9    1.46    0.97
  -6  12   8    3.50    1.26
  -6  12   7   -1.60    1.32
  -6  12   6   36.96    2.95
  -6  12   5    0.41    0.86
   6 -12  -5    0.95    1.02
  -6  12   4    9.05    1.65
   6 -12  -4    9.67    1.61
   6 -12  -3    0.06    0.83
   6 -12  -2    5.46    1.39
   6 -12  -1    2.05    1.24
   6 -12   0   36.30    2.88
   6 -12   1   53.58    3.52
   6 -12   2  104.18    5.10
   6 -12   3   49.57    3.47
   6 -12   4   -1.92    1.13
   6 -12   5   59.69    3.88
   6 -12   6   18.36    2.25
  -6  11  11    5.67    1.42
  -6  11  10   13.26    1.97
  -6  11   9   26.82    2.54
  -6  11   8   29.44    2.64
  -6  11   7    2.03    0.94
  -6  11   6   73.35    4.16
  -6  11   5    1.11    0.80
  -6  11   4   77.38    4.26
   6 -11  -4   75.95    3.94
   6 -11  -3   12.01    1.65
   6 -11  -2    4.22    1.19
   6 -11  -1    1.53    1.04
   6 -11   0   32.18    2.60
   6 -11   1   17.35    2.01
   6 -11   2   47.26    3.21
   6 -11   3    5.27    1.33
   6 -11   4   35.88    2.83
   6 -11   5    0.51    0.87
   6 -11   6   47.01    3.27
   6 -11   7    7.12    1.43
   6 -11   8   83.39    4.54
   6 -11   9    2.89    1.17
  -6  10  11    8.93    1.54
  -6  10  10    0.52    0.94
  -6  10   9    1.10    0.96
  -6  10   8    5.00    1.20
  -6  10   7    1.46    0.94
  -6  10   6   -0.12    0.92
  -6  10   5   35.29    2.73
  -6  10   4   73.49    3.98
   6 -10  -4   69.79    3.69
   6 -10  -3   78.12    3.88
   6 -10  -2   20.74    2.02
   6 -10  -1    1.96    0.83
   6 -10   0   23.51    2.14
   6 -10   1  112.68    4.94
   6 -10   2  115.47    5.01
   6 -10   3   22.42    2.19
   6 -10   4    4.11    1.12
   6 -10   5    5.04    1.29
   6 -10   6   69.83    3.92
   6 -10   7   29.26    2.54
   6 -10   8   51.17    3.38
   6 -10   9    7.41    1.47
   6 -10  10   48.32    3.39
   6 -10  11    4.30    1.24
  -6   9  12   16.92    1.88
  -6   9  11   30.40    2.57
  -6   9  10   61.47    3.62
  -6   9   9  223.23    7.71
  -6   9   8    1.71    0.95
  -6   9   7    1.67    0.85
  -6   9   6   10.18    1.52
  -6   9   5  179.48    6.53
  -6   9   4    9.82    1.46
  -6   9   3  291.51    8.98
   6  -9  -3  289.13    8.56
   6  -9  -2    3.79    0.97
   6  -9  -1   30.48    2.32
   6  -9   0   -1.37    0.83
   6  -9   1    1.13    0.79
   6  -9   2    0.67    0.90
   6  -9   3  151.61    5.76
   6  -9   4   40.40    2.76
   6  -9   5    6.88    1.27
   6  -9   6   38.66    2.78
   6  -9   7   97.47    4.58
   6  -9   8   93.27    4.53
   6  -9   9   34.29    2.67
   6  -9  10    2.60    1.15
   6  -9  11    0.42    0.84
   6  -9  11   -0.02    0.81
   6  -9  12   43.72    3.16
   6  -9  12   41.24    3.09
   6  -9  13   12.19    1.82
   6  -9  13   10.46    1.69
   6  -9  14   12.41    1.82
  -6   8  12   27.43    2.31
  -6   8  11    2.23    0.90
  -6   8  10    9.03    1.47
  -6   8   9   15.62    1.77
  -6   8   8  108.60    4.82
  -6   8   7   30.93    2.42
  -6   8   6    1.60    0.97
  -6   8   5   43.95    1.86
  -6   8   5   40.56    2.73
  -6   8   4   30.44    1.57
  -6   8   4   28.46    2.27
  -6   8   3  145.54    4.27
  -6   8   3  147.58    5.53
   6  -8  -3  149.48    5.34
  -6   8   2  167.82    4.84
   6  -8  -2  176.26    5.88
   6  -8  -1   90.44    3.95
   6  -8   0   29.44    2.20
   6  -8   1   48.46    2.82
   6  -8   2    4.60    1.03
   6  -8   3   27.15    2.14
   6  -8   4    8.95    1.38
   6  -8   5    0.53    0.72
   6  -8   6    0.79    0.77
   6  -8   7   85.50    4.10
   6  -8   8   -0.01    0.81
   6  -8   9   35.83    2.66
   6  -8  10    9.55    1.52
   6  -8  11   12.18    1.68
   6  -8  11   14.22    1.76
   6  -8  12    1.43    0.91
   6  -8  12   -0.54    0.83
   6  -8  13   87.85    4.63
   6  -8  13   81.24    4.32
   6  -8  14    7.24    1.45
   6  -8  14    6.56    1.34
   6  -8  15   37.25    2.98
   6  -8  16    0.03    0.95
  -6   7  13    1.00    0.78
  -6   7  12   13.87    1.62
  -6   7  11   55.36    3.17
  -6   7  10  203.82    6.91
  -6   7   9    2.23    0.89
  -6   7   8   31.98    2.44
  -6   7   8   32.04    2.01
  -6   7   7    4.71    1.06
  -6   7   7    2.23    0.72
  -6   7   6    7.00    0.77
  -6   7   6    7.08    1.19
  -6   7   5    4.67    0.66
  -6   7   5    4.31    1.07
  -6   7   4   31.57    1.62
  -6   7   4   29.91    2.28
  -6   7   3    5.81    0.74
  -6   7   3    6.16    1.12
  -6   7   2  101.39    3.39
  -6   7   2   97.25    4.23
   6  -7  -2  106.63    4.19
  -6   7   1   24.72    1.53
   6  -7  -1   25.58    1.94
  -6   7   0  188.23    5.42
   6  -7   0  199.63    6.25
  -6   7  -1   -0.14    0.44
   6  -7   1    0.57    0.70
   6  -7   2    2.01    0.79
   6  -7   3   15.33    1.59
   6  -7   4    1.70    0.83
   6  -7   5   52.92    2.94
   6  -7   6   39.42    2.54
   6  -7   7   89.36    4.05
   6  -7   8   29.80    2.30
   6  -7   9    0.22    0.70
   6  -7  10    1.32    0.84
   6  -7  10   -0.25    0.76
  -6   7 -11    2.38    0.59
   6  -7  11    0.46    0.73
   6  -7  11    2.07    0.96
   6  -7  12    7.18    1.37
  -6   7 -12    7.79    0.89
   6  -7  12    5.57    1.14
   6  -7  13   25.68    2.43
   6  -7  13   25.29    2.30
   6  -7  14   36.74    2.97
   6  -7  14   39.73    2.89
   6  -7  15   57.66    3.76
   6  -7  15   53.23    3.44
   6  -7  16    2.90    1.15
   6  -7  17    5.97    1.38
   6  -7  18    0.94    0.88
  -6   6  13    0.53    0.67
  -6   6  12    0.02    0.66
  -6   6  11    0.88    0.86
  -6   6  10    1.40    0.73
  -6   6   9   39.94    2.63
  -6   6   9   36.75    2.09
  -6   6   8  113.32    4.60
  -6   6   8  109.62    3.96
  -6   6   7   38.11    2.53
  -6   6   7   36.17    2.09
  -6   6   6    8.69    1.30
  -6   6   6   11.17    1.19
  -6   6   5   12.38    1.24
  -6   6   5   14.98    1.60
  -6   6   4  223.52    6.94
  -6   6   4  221.42    6.47
  -6   6   3    1.07    0.50
  -6   6   3    1.46    0.68
  -6   6   3    2.75    0.90
  -6   6   2    0.34    0.39
  -6   6   2    1.37    0.60
  -6   6   2    1.74    0.77
  -6   6   1    7.46    0.88
  -6   6   1   11.19    1.27
  -6   6   1   10.91    1.36
   6  -6  -1    9.07    1.20
  -6   6   0    0.67    0.72
   6  -6   0   -0.42    0.71
  -6   6  -1    7.37    0.87
   6  -6   1    8.74    1.24
  -6   6  -2   21.02    1.49
   6  -6   2   21.07    1.74
  -6   6  -3    0.41    0.46
   6  -6   3   -0.38    0.63
  -6   6  -4  662.14   15.13
   6  -6   4  675.93   15.65
   6  -6   5   45.98    2.65
   6  -6   6  210.77    6.60
   6  -6   7   -0.13    0.72
   6  -6   8  180.14    6.05
   6  -6   9   45.71    2.74
   6  -6  10   14.82    1.63
   6  -6  10   19.34    1.85
  -6   6 -11   -0.37    0.47
   6  -6  11    0.38    0.73
   6  -6  11   -0.50    0.76
  -6   6 -12    6.07    0.84
   6  -6  12    7.68    1.37
   6  -6  12    6.85    1.34
   6  -6  13    8.04    1.52
  -6   6 -13    7.47    0.89
   6  -6  13    6.55    1.25
   6  -6  14   93.52    4.66
   6  -6  14   90.95    4.33
   6  -6  15    6.54    1.41
   6  -6  15    7.33    1.35
   6  -6  16   42.52    3.21
   6  -6  16   33.55    2.67
   6  -6  17    2.09    0.95
   6  -6  18    4.19    1.19
   6  -6  19   15.57    1.94
  -6   5  14    4.81    1.34
  -6   5  13   18.71    1.72
  -6   5  12    1.92    0.76
  -6   5  11   50.10    2.86
  -6   5  10    1.66    0.72
  -6   5  10    1.50    0.59
  -6   5   9   12.34    1.43
  -6   5   9   14.00    1.27
  -6   5   8   32.81    2.29
  -6   5   8   28.05    1.78
  -6   5   7    0.73    0.69
  -6   5   7    0.48    0.46
  -6   5   6   11.20    1.35
  -6   5   6    7.27    0.92
  -6   5   5   11.69    1.47
  -6   5   5    8.56    1.04
  -6   5   4    1.12    0.76
  -6   5   4    1.08    0.52
  -6   5   3   96.21    3.92
  -6   5   3   98.63    3.67
  -6   5   2    5.61    1.05
  -6   5   2    5.82    0.88
  -6   5   1    9.57    0.93
  -6   5   1   10.94    1.34
  -6   5   1    8.63    1.08
  -6   5   0    0.89    0.45
  -6   5   0    0.71    0.67
   6  -5   0   -0.42    0.70
  -6   5   0    1.11    0.59
  -6   5  -1   73.04    2.84
  -6   5  -1   78.15    3.23
   6  -5   1   72.43    3.17
  -6   5  -1   72.89    3.28
  -6   5  -2  381.73    9.41
  -6   5  -2  405.05    9.98
   6  -5   2  397.48    9.98
  -6   5  -3  155.83    4.81
  -6   5  -3  160.95    5.17
   6  -5   3  153.66    5.13
  -6   5  -4   60.68    2.73
  -6   5  -4   61.27    2.92
   6  -5   4   63.20    3.00
  -6   5  -5   95.22    3.64
   6  -5   5   95.65    3.83
   6  -5   6   56.20    2.83
   6  -5   7    0.15    0.74
   6  -5   8   22.21    1.79
   6  -5   9    0.66    0.73
   6  -5  10    4.95    1.03
  -6   5 -11   -0.40    0.52
   6  -5  11    1.48    0.87
   6  -5  11    1.11    0.73
  -6   5 -12   65.02    2.67
   6  -5  12   67.87    3.62
   6  -5  12   67.27    3.39
   6  -5  13   78.56    4.00
  -6   5 -13   78.08    3.00
   6  -5  13   78.20    3.74
   6  -5  14   77.77    4.06
  -6   5 -14   63.99    2.70
   6  -5  14   70.91    3.61
   6  -5  15   12.58    1.69
  -6   5 -15    9.77    1.00
   6  -5  15    9.77    1.40
   6  -5  16   86.11    4.58
   6  -5  16   88.28    4.18
   6  -5  17    1.68    1.02
   6  -5  17    0.13    0.87
   6  -5  18    3.75    1.01
   6  -5  19    5.55    1.27
  -6   4  15   34.65    2.89
  -6   4  14   46.01    3.34
  -6   4  14   47.32    2.69
  -6   4  13   67.14    3.27
  -6   4  12   25.20    1.97
  -6   4  11   -0.44    0.73
  -6   4  10   34.68    2.28
  -6   4  10   27.64    1.84
  -6   4   9   82.77    3.57
  -6   4   9   67.78    2.88
  -6   4   8    4.31    0.94
  -6   4   8    3.15    0.76
  -6   4   7   46.20    2.59
  -6   4   7   35.11    1.98
  -6   4   6   42.59    2.47
  -6   4   6   33.14    1.89
  -6   4   5    0.35    0.59
  -6   4   5    0.21    0.43
  -6   4   4   40.72    2.38
  -6   4   4   36.01    1.98
  -6   4   3  167.67    5.37
  -6   4   3  155.12    4.87
  -6   4   2   29.05    1.94
  -6   4   2   29.00    1.78
  -6   4   1   45.55    2.44
  -6   4   1   43.60    2.24
  -6   4   0    0.13    0.63
  -6   4   0    0.53    0.61
  -6   4  -1   27.88    1.60
  -6   4  -1   29.40    1.94
  -6   4  -1   29.92    1.84
   6  -4   1   27.54    1.86
  -6   4  -2   72.71    2.84
  -6   4  -2   71.28    3.03
  -6   4  -2   74.97    3.20
   6  -4   2   75.96    3.15
  -6   4  -3  794.80   17.32
  -6   4  -3  819.92   17.71
   6  -4   3  792.85   17.69
  -6   4  -4   76.16    3.05
  -6   4  -4   81.02    3.30
   6  -4   4   79.55    3.29
  -6   4  -5  535.80   12.62
  -6   4  -5  562.81   12.88
   6  -4   5  542.00   12.86
  -6   4  -6    3.58    0.78
   6  -4   6    3.86    0.90
  -6   4  -6    3.81    0.77
  -6   4  -7    5.98    0.92
   6  -4   7    5.77    0.98
  -6   4  -7    6.07    0.98
   6  -4   8   58.33    2.86
   6  -4   9  140.69    4.89
   6  -4  10  119.81    4.46
  -6   4 -11    1.97    0.59
   6  -4  11    1.49    0.86
   6  -4  11    2.83    0.90
  -6   4 -12   59.35    2.57
   6  -4  12   66.85    3.45
   6  -4  12   60.12    3.07
   6  -4  13   48.76    3.00
  -6   4 -13   43.01    2.19
   6  -4  13   48.36    2.75
   6  -4  14    9.82    1.47
  -6   4 -14    9.62    1.06
   6  -4  14   12.12    1.48
   6  -4  15  203.02    7.13
  -6   4 -15  192.96    5.67
   6  -4  15  195.32    6.47
   6  -4  16   17.75    1.95
  -6   4 -16   19.47    1.48
   6  -4  16   18.95    1.84
   6  -4  17   15.85    1.94
   6  -4  17   19.37    1.88
   6  -4  18    0.49    0.83
   6  -4  18   -0.20    0.75
   6  -4  19    0.79    0.78
  -6   3  15    7.04    1.50
  -6   3  14  100.03    4.96
  -6   3  14   95.66    3.97
  -6   3  13    0.12    0.55
  -6   3  12   80.94    3.55
  -6   3  11    0.25    0.61
  -6   3  11   -0.13    0.51
  -6   3  10   24.80    1.85
  -6   3  10   21.86    1.54
  -6   3   9   15.39    1.47
  -6   3   9   10.43    1.06
  -6   3   8   70.20    3.15
  -6   3   8   58.30    2.61
  -6   3   7  253.35    6.96
  -6   3   7  212.46    6.16
  -6   3   6  186.51    5.59
  -6   3   6  150.09    4.81
  -6   3   5    4.77    0.93
  -6   3   5    4.77    0.79
  -6   3   4   21.62    1.70
  -6   3   4   19.19    1.45
  -6   3   3   39.32    2.23
  -6   3   3   32.81    1.87
  -6   3   2  178.27    5.47
  -6   3   2  163.92    5.01
  -6   3   1    4.44    0.71
  -6   3   1    3.40    0.82
  -6   3   0   51.49    2.53
  -6   3   0   47.25    2.30
  -6   3  -1   51.16    2.50
  -6   3  -1   53.00    2.43
  -6   3  -2    7.09    0.98
  -6   3  -2    3.29    0.78
  -6   3  -3   71.91    2.83
  -6   3  -3   76.78    3.08
  -6   3  -3   72.69    2.99
   6  -3   3   75.20    3.09
  -6   3  -4  143.43    4.51
  -6   3  -4  151.91    4.73
  -6   3  -4  148.43    4.71
   6  -3   4  149.22    4.75
  -6   3  -5  492.89   11.55
  -6   3  -5  506.33   11.72
  -6   3  -5  494.38   11.63
   6  -3   5  493.12   11.72
  -6   3  -6   48.18    2.38
  -6   3  -6   48.58    2.43
   6  -3   6   49.83    2.48
  -6   3  -7   16.37    1.44
   6  -3   7   16.31    1.43
  -6   3  -7   18.20    1.47
  -6   3  -8   12.69    1.27
   6  -3   8   13.54    1.35
  -6   3  -8   14.40    1.33
   6  -3   9  239.20    6.83
  -6   3  -9  240.26    6.75
  -6   3 -10   16.54    1.51
  -6   3 -10   23.09    1.69
   6  -3  10   20.94    1.66
  -6   3 -11  367.03    8.98
   6  -3  11  380.28    9.67
   6  -3  12    6.29    1.21
  -6   3 -12    6.26    0.87
   6  -3  12    4.38    0.88
   6  -3  13    0.96    0.72
  -6   3 -13   -0.17    0.47
   6  -3  13    1.05    0.71
   6  -3  14   14.85    1.73
  -6   3 -14   13.09    1.27
   6  -3  14   14.56    1.50
   6  -3  15  336.44    9.84
  -6   3 -15  322.49    8.42
   6  -3  15  322.15    8.97
   6  -3  16    0.66    0.82
  -6   3 -16    0.95    0.62
   6  -3  16    1.09    0.67
   6  -3  17   48.80    3.28
  -6   3 -17   39.10    2.31
   6  -3  17   43.94    2.66
  -6   3 -18    1.73    0.77
   6  -3  18    1.72    0.92
   6  -3  18   -0.16    0.63
   6  -3  19    0.69    0.97
  -6   2  16    0.53    0.99
  -6   2  15    1.40    1.02
  -6   2  14   58.16    3.61
  -6   2  14   60.77    3.09
  -6   2  13   84.60    3.27
  -6   2  13   87.71    4.46
  -6   2  13   92.57    3.84
  -6   2  12   64.92    3.13
  -6   2  11   10.70    1.26
  -6   2  11   11.11    1.35
  -6   2  10  260.73    7.16
  -6   2  10  224.15    6.52
  -6   2   9   20.99    1.69
  -6   2   9   19.59    1.54
  -6   2   8  240.15    6.70
   6  -2  -8  239.52    6.71
  -6   2   8  199.01    6.08
  -6   2   7   12.28    1.30
   6  -2  -7   14.64    1.35
  -6   2   7   12.57    1.21
  -6   2   6   34.29    2.09
   6  -2  -6   34.52    2.04
  -6   2   6   28.95    1.76
  -6   2   5    0.26    0.60
   6  -2  -5   -0.84    0.54
  -6   2   5    0.73    0.51
  -6   2   4    5.35    0.98
  -6   2   4    3.53    0.59
  -6   2   3    0.95    0.60
  -6   2   3    0.58    0.45
  -6   2   2  470.57   10.63
  -6   2   2  400.22   10.02
  -6   2   1   -0.63    0.65
  -6   2   1    0.64    0.51
  -6   2   0   62.57    2.71
  -6   2   0   53.81    2.46
  -6   2  -1    3.82    0.81
  -6   2  -1    5.49    0.91
  -6   2  -2   75.05    2.98
  -6   2  -2   70.21    2.85
  -6   2  -3   42.32    2.15
  -6   2  -3   41.73    2.07
  -6   2  -4  633.21   13.99
  -6   2  -4  635.64   14.12
  -6   2  -4  626.93   14.06
  -6   2  -5   96.56    3.44
  -6   2  -5   96.40    3.42
  -6   2  -5   94.64    3.42
   6  -2   5   93.51    3.51
  -6   2  -6    4.50    0.79
  -6   2  -6    4.21    0.80
  -6   2  -6    5.79    0.87
   6  -2   6    4.88    0.88
  -6   2  -7   96.08    3.56
  -6   2  -7   96.67    3.41
  -6   2  -7   95.89    3.50
   6  -2   7   95.03    3.53
  -6   2  -8   85.21    3.39
  -6   2  -8   85.48    3.14
  -6   2  -8   82.26    3.22
   6  -2   8   83.40    3.28
  -6   2  -9  133.33    4.54
  -6   2  -9  130.83    4.15
  -6   2  -9  127.80    4.27
   6  -2   9  130.93    4.38
  -6   2 -10   45.87    2.48
  -6   2 -10   45.74    2.20
   6  -2  10   45.83    2.37
  -6   2 -10   46.47    2.32
  -6   2 -11   17.13    1.33
   6  -2  11   17.55    1.46
  -6   2 -11   16.96    1.40
  -6   2 -11   18.72    1.38
  -6   2 -12  195.00    5.62
  -6   2 -12  195.87    5.83
  -6   2 -12  199.17    5.53
   6  -2  12  194.25    5.89
  -6   2 -13  112.77    3.97
  -6   2 -13  122.29    3.89
  -6   2 -13  114.23    4.12
   6  -2  13  114.24    4.21
   6  -2  14    2.71    0.91
  -6   2 -14    4.52    0.85
   6  -2  14    1.96    0.74
  -6   2 -14    3.06    0.60
  -6   2 -14    2.50    0.68
   6  -2  15   13.85    1.61
  -6   2 -15   12.00    1.27
   6  -2  15   11.50    1.30
  -6   2 -15   12.48    1.07
   6  -2  16   49.56    3.11
  -6   2 -16   45.74    2.49
  -6   2 -16   48.35    2.18
   6  -2  16   53.16    2.75
   6  -2  17  149.83    5.98
  -6   2 -17  146.28    5.04
   6  -2  17  151.76    5.19
   6  -2  18    3.75    1.14
  -6   2 -18    4.51    1.03
   6  -2  18    3.72    0.90
  -6   2 -19    7.75    1.22
   6  -2  19    9.18    1.65
   6  -2  20    2.62    1.02
  -6   1  16    1.77    1.04
  -6   1  15    2.33    0.98
  -6   1  14    5.55    1.32
  -6   1  14    5.30    0.93
  -6   1  13   36.04    2.06
  -6   1  13   36.24    2.70
  -6   1  13   40.07    2.48
  -6   1  12    1.04    0.72
  -6   1  11   15.43    1.49
  -6   1  10   23.42    1.75
  -6   1   9   13.24    1.34
   6  -1  -9   12.53    1.30
   6  -1  -8  311.09    8.31
  -6   1   8  302.99    8.20
   6  -1  -7  321.46    8.46
  -6   1   7  314.06    8.36
   6  -1  -6  210.60    6.14
  -6   1   6  199.69    5.99
  -6   1   5   12.24    1.24
   6  -1  -5   12.66    1.24
   6  -1  -4   85.74    3.35
  -6   1   4   81.61    3.28
   6  -1  -3  167.58    5.08
  -6   1   3  158.57    5.00
  -6   1   2  724.11   15.81
   6  -1  -2  701.68   15.74
  -6   1   1   99.26    3.52
   6  -1  -1   95.72    3.43
  -6   1   1   81.34    3.14
  -6   1   0    1.31    0.69
   6  -1   0    0.72    0.56
  -6   1   0    0.32    0.50
  -6   1  -1  132.55    4.16
   6  -1   1  120.21    3.98
  -6   1  -1  118.46    3.89
  -6   1  -2   57.27    2.48
  -6   1  -2   50.90    2.29
  -6   1  -3    0.54    0.63
  -6   1  -3    0.31    0.46
  -6   1  -4  255.18    6.61
  -6   1  -4  247.47    6.49
  -6   1  -5    6.33    0.87
  -6   1  -5    6.08    0.75
  -6   1  -5    6.21    0.87
  -6   1  -6  397.53    9.51
  -6   1  -6  400.29    9.31
  -6   1  -6  386.58    9.36
  -6   1  -7   69.46    2.87
  -6   1  -7   68.33    2.65
  -6   1  -7   70.03    2.76
   6  -1   7   67.76    2.82
  -6   1  -8  503.90   11.61
  -6   1  -8  484.16   11.10
  -6   1  -8  484.75   11.28
   6  -1   8  493.72   11.42
  -6   1  -9   53.67    2.59
  -6   1  -9   53.41    2.27
  -6   1  -9   54.17    2.42
   6  -1   9   52.53    2.43
  -6   1 -10  407.99   10.17
  -6   1 -10  424.37   10.28
  -6   1 -10  421.63    9.76
  -6   1 -10  401.43    9.45
  -6   1 -10  395.11    9.71
   6  -1  10  399.66    9.83
  -6   1 -11   13.81    1.21
  -6   1 -11   14.30    1.14
  -6   1 -11   13.71    1.20
   6  -1  11   13.71    1.26
  -6   1 -12  158.50    4.95
  -6   1 -12  167.18    4.64
  -6   1 -12  159.47    4.93
   6  -1  12  163.04    5.04
  -6   1 -13   13.56    1.28
  -6   1 -13   12.15    1.02
   6  -1  13   11.70    1.21
  -6   1 -13   11.05    1.10
  -6   1 -14   73.91    3.15
  -6   1 -14   78.61    2.75
  -6   1 -14   72.29    3.03
   6  -1  14   76.68    3.19
  -6   1 -15    1.69    0.75
  -6   1 -15    0.62    0.53
  -6   1 -15    0.80    0.39
   6  -1  15    0.35    0.57
  -6   1 -16    5.80    1.01
  -6   1 -16    5.59    0.84
  -6   1 -16    6.34    0.73
   6  -1  16    5.31    0.93
  -6   1 -17   15.67    1.48
   6  -1  17   18.04    1.52
  -6   1 -18    5.64    1.01
   6  -1  18    6.02    0.99
  -6   1 -19    1.80    0.74
  -6   1 -20   -0.40    0.69
  -6   0  17   16.05    2.14
  -6   0  16   15.07    1.85
  -6   0  15   22.10    2.16
  -6   0  14    2.59    1.10
  -6   0  14    3.35    0.85
  -6   0  13   53.23    3.21
  -6   0  13   51.76    2.59
  -6   0  13   52.26    2.81
  -6   0  12    6.80    1.30
  -6   0  12    5.43    0.94
  -6   0  12    8.16    1.19
  -6   0  11   36.39    2.27
  -6   0  10    2.48    0.77
   6   0  -9  336.30    8.88
  -6   0   9  317.62    8.58
  -6   0   8    9.96    1.17
   6   0  -8    7.07    0.97
   6   0  -7  151.49    4.99
  -6   0   7  137.60    4.69
   6   0  -6    8.26    1.01
  -6   0   6    8.75    1.08
   6   0  -5  265.11    7.21
  -6   0   5  250.64    6.98
  -6   0   4   60.50    2.68
   6   0  -4   60.10    2.77
   6   0  -3  118.30    4.06
  -6   0   3  109.96    3.86
  -6   0   2   62.25    2.69
   6   0  -2   62.57    2.75
   6   0  -1  259.76    6.93
  -6   0   1  259.79    6.83
   6   0   0  110.40    3.70
  -6   0   0  105.99    3.65
  -6   0  -1    2.21    0.61
   6   0   1    2.11    0.64
   6   0   2   52.29    2.30
  -6   0  -2   53.11    2.36
  -6   0  -3   39.90    2.00
   6   0   3   38.39    1.90
  -6   0  -3   36.50    1.87
  -6   0  -4   43.90    2.03
   6   0   4   43.83    1.99
  -6   0  -4   40.65    2.03
  -6   0  -5    0.97    0.54
  -6   0  -5    0.55    0.43
  -6   0  -6   12.01    1.08
  -6   0  -6   11.01    1.07
  -6   0  -6   11.75    1.09
  -6   0  -7    1.05    0.58
  -6   0  -7   -0.07    0.45
  -6   0  -7    0.59    0.49
  -6   0  -8   49.81    2.35
  -6   0  -8   50.30    2.13
  -6   0  -8   50.16    2.23
  -6   0  -9   18.99    1.50
  -6   0  -9   21.00    1.51
  -6   0  -9   19.15    1.27
  -6   0  -9   18.10    1.30
  -6   0 -10   52.59    2.56
  -6   0 -10   53.84    2.41
  -6   0 -10   54.64    2.61
  -6   0 -10   53.33    2.18
  -6   0 -10   51.33    2.29
  -6   0 -11   78.24    3.31
  -6   0 -11   76.19    3.04
  -6   0 -11   78.30    3.30
  -6   0 -11   76.58    2.69
  -6   0 -11   74.83    2.86
  -6   0 -12  255.81    6.97
  -6   0 -12  260.05    6.29
  -6   0 -12  248.15    6.60
  -6   0 -13    0.89    0.58
  -6   0 -13    2.05    0.45
  -6   0 -13    2.21    0.56
  -6   0 -14    3.78    0.76
  -6   0 -14    2.82    0.44
  -6   0 -14    2.39    0.56
  -6   0 -15   16.55    1.50
  -6   0 -15   15.28    0.95
  -6   0 -15   15.10    1.24
  -6   0 -16   50.38    2.70
  -6   0 -16   51.09    1.76
  -6   0 -16   44.62    2.20
  -6   0 -17    1.38    0.61
  -6   0 -18   12.97    1.48
  -6   0 -19    0.96    0.86
  -6   0 -20    0.54    0.67
  -6   0 -21    0.05    0.67
  -6  -1  17    2.87    1.29
  -6  -1  16   15.85    1.97
  -6  -1  15    1.28    0.88
  -6  -1  14    7.52    1.12
  -6  -1  14    4.43    1.14
  -6  -1  14    5.43    1.05
  -6  -1  13   51.97    3.13
  -6  -1  13   48.85    2.67
  -6  -1  13   53.20    2.88
  -6  -1  12  175.76    6.11
  -6  -1  12  167.46    5.43
  -6  -1  12  176.77    5.80
  -6  -1  11   17.64    1.52
  -6  -1  11   17.59    1.56
  -6  -1  10    0.63    0.63
  -6  -1   9  235.44    6.83
   6   1  -9  231.81    6.96
   6   1  -8  121.19    4.41
  -6  -1   8  113.26    4.19
   6   1  -7  334.04    8.61
  -6  -1   7  303.07    8.26
  -6  -1   6   87.34    3.43
   6   1  -6   89.34    3.56
   6   1  -5    7.15    0.97
  -6  -1   5    6.43    0.93
  -6  -1   4    1.37    0.56
   6   1  -4    1.83    0.64
  -6  -1   3  232.18    6.45
   6   1  -3  245.05    6.63
   6   1  -2    4.88    0.82
  -6  -1   2    4.67    0.84
  -6  -1   1  387.69    9.40
   6   1  -1  399.53    9.55
  -6  -1   0   12.13    1.17
   6   1   0   12.90    1.15
   6   1   1    1.80    0.63
  -6  -1  -1    0.70    0.56
  -6  -1  -2    3.42    0.76
   6   1   2    2.53    0.60
   6   1   3  112.78    3.58
  -6  -1  -3  103.97    3.48
  -6  -1  -4   -0.73    0.50
   6   1   4   -0.25    0.50
   6   1   5  544.73   12.01
  -6  -1  -5  541.15   12.01
  -6  -1  -5  554.61   12.16
  -6  -1  -6  121.13    3.65
   6   1   6  120.41    3.61
  -6  -1  -6  122.75    3.77
  -6  -1  -7  256.53    6.47
  -6  -1  -7  233.60    5.98
  -6  -1  -7  235.09    6.12
  -6  -1  -8    6.05    0.83
  -6  -1  -8    4.77    0.67
  -6  -1  -8    5.94    0.75
  -6  -1  -9  192.61    5.55
  -6  -1  -9  192.93    5.37
  -6  -1  -9  184.39    5.39
  -6  -1  -9  178.93    4.79
  -6  -1  -9  181.35    5.03
  -6  -1 -10    1.04    0.42
  -6  -1 -10    1.85    0.65
  -6  -1 -10    1.38    0.51
  -6  -1 -10    1.82    0.48
  -6  -1 -10    1.46    0.49
  -6  -1 -11  103.07    3.84
  -6  -1 -11   99.50    3.62
  -6  -1 -11  100.09    3.69
  -6  -1 -11   93.98    2.91
  -6  -1 -11   96.71    3.24
  -6  -1 -12    1.05    0.55
  -6  -1 -12    1.22    0.35
  -6  -1 -12    2.14    0.49
  -6  -1 -13  124.37    4.28
  -6  -1 -13  114.87    3.16
  -6  -1 -13  113.64    3.64
  -6  -1 -14  325.70    8.53
  -6  -1 -14  316.23    6.93
  -6  -1 -14  311.38    7.69
  -6  -1 -15   31.04    2.06
  -6  -1 -15   31.94    1.13
  -6  -1 -15   29.98    1.65
  -6  -1 -16    0.43    0.37
  -6  -1 -16    0.25    0.53
  -6  -1 -17   40.08    2.50
  -6  -1 -18   61.68    3.22
  -6  -1 -19    0.49    0.62
  -6  -1 -20    3.69    0.95
  -6  -1 -21    3.49    1.07
  -6  -1 -22   16.27    2.02
  -6  -2  17    2.78    1.17
  -6  -2  16    0.23    0.82
  -6  -2  15    6.38    1.32
  -6  -2  14   21.35    2.01
  -6  -2  14   24.47    1.88
  -6  -2  13    0.68    0.68
  -6  -2  13   -0.61    0.71
  -6  -2  13    0.40    0.59
  -6  -2  12   46.42    2.80
  -6  -2  12   49.09    2.69
  -6  -2  12   49.72    2.77
  -6  -2  11    8.56    1.22
  -6  -2  11    9.76    1.23
  -6  -2  11   10.20    1.25
  -6  -2  10    5.18    0.93
  -6  -2  10    3.24    0.75
  -6  -2   9   95.08    3.67
  -6  -2   9   94.04    3.73
  -6  -2   8    0.62    0.62
   6   2  -8    0.70    0.51
   6   2  -7    4.50    0.86
  -6  -2   7    3.73    0.83
  -6  -2   6  348.03    9.09
   6   2  -6  374.09    9.36
   6   2  -5   40.74    2.25
  -6  -2   5   40.31    2.19
  -6  -2   4   38.25    2.12
   6   2  -4   44.08    2.28
  -6  -2   3   74.00    3.03
   6   2  -3   84.38    3.24
   6   2  -2  407.88    9.72
  -6  -2   2  388.39    9.51
  -6  -2   1 1131.35   24.23
   6   2  -1 1210.25   24.47
   6   2   0  793.25   16.76
  -6  -2   0  750.73   16.58
   6   2   1  144.60    4.37
  -6  -2  -1  136.97    4.26
   6   2   2    2.40    0.65
  -6  -2  -2    1.47    0.62
   6   2   3    3.49    0.66
  -6  -2  -3    3.37    0.68
  -6  -2  -4   59.69    2.31
   6   2   4   56.53    2.32
  -6  -2  -5   13.00    1.01
   6   2   5   14.21    1.08
   6   2   6  129.24    3.73
  -6  -2  -6  122.16    3.64
   6   2   7  231.48    5.73
  -6  -2  -7  229.41    5.69
  -6  -2  -7  230.03    5.92
  -6  -2  -8  103.44    3.60
  -6  -2  -8  113.46    3.64
   6   2   8   96.00    3.01
  -6  -2  -8  101.79    3.06
  -6  -2  -8  102.36    3.27
  -6  -2  -9   86.37    3.23
  -6  -2  -9   78.32    3.06
  -6  -2  -9   82.13    3.06
  -6  -2  -9   74.02    2.46
  -6  -2  -9   73.00    2.65
  -6  -2 -10   53.65    2.53
  -6  -2 -10   52.01    2.45
  -6  -2 -10   52.11    2.41
  -6  -2 -10   47.97    1.81
  -6  -2 -10   49.22    2.03
  -6  -2 -11  473.23   11.06
  -6  -2 -11  447.75   10.82
  -6  -2 -11  452.23   10.78
  -6  -2 -11  440.68    9.54
  -6  -2 -11  437.56   10.03
  -6  -2 -12    1.86    0.71
  -6  -2 -12    2.15    0.62
  -6  -2 -12    3.01    0.45
  -6  -2 -12    1.39    0.38
  -6  -2 -13  281.84    7.73
  -6  -2 -13  285.83    6.09
  -6  -2 -13  271.87    6.78
  -6  -2 -14    6.10    1.04
  -6  -2 -14    6.06    0.37
  -6  -2 -14    6.46    0.72
  -6  -2 -15   84.76    3.65
  -6  -2 -15   82.67    2.81
  -6  -2 -16   63.31    3.18
  -6  -2 -16   59.88    2.29
  -6  -2 -17  116.82    4.67
  -6  -2 -18   -0.95    0.94
  -6  -2 -19   13.05    1.59
  -6  -2 -20    5.55    1.16
  -6  -2 -21   10.47    1.57
  -6  -2 -22    1.13    0.83
  -6  -3  17   42.44    3.08
  -6  -3  16   13.79    1.79
  -6  -3  15    3.55    0.97
  -6  -3  14   11.18    1.54
  -6  -3  14   11.80    1.54
  -6  -3  13   18.09    1.76
  -6  -3  13   17.16    1.73
  -6  -3  12   71.83    3.42
  -6  -3  12   67.50    3.30
  -6  -3  11    1.10    0.75
  -6  -3  11    1.73    0.77
  -6  -3  11    2.15    0.79
  -6  -3  11    3.02    0.81
  -6  -3  10   13.29    1.37
  -6  -3  10   15.23    1.54
  -6  -3  10   16.03    1.53
  -6  -3   9    6.56    1.00
  -6  -3   9    5.33    0.99
  -6  -3   8   30.32    2.00
  -6  -3   8   33.68    2.14
   6   3  -7    0.51    0.57
  -6  -3   7   -0.51    0.56
   6   3  -6    1.26    0.56
  -6  -3   6    1.73    0.71
  -6  -3   5    3.71    0.88
   6   3  -5    3.63    0.73
  -6  -3   4  131.56    4.46
   6   3  -4  136.55    4.54
  -6  -3   3    4.34    0.88
   6   3  -3    4.73    0.84
   6   3  -2  343.81    8.48
  -6  -3   2  320.24    8.27
   6   3  -1   28.73    1.74
  -6  -3   1   26.82    1.67
  -6  -3   0  869.66   18.83
   6   3   0  904.57   18.98
   6   3   1    2.54    0.70
  -6  -3  -1    3.11    0.74
  -6  -3  -2  402.86    9.49
   6   3   2  415.77    9.62
  -6  -3  -3    2.91    0.68
   6   3   3    3.36    0.67
  -6  -3  -4  189.63    5.09
   6   3   4  192.70    5.17
   6   3   5  103.64    3.31
  -6  -3  -5  106.86    3.31
  -6  -3  -6  133.73    3.82
   6   3   6  135.31    3.92
  -6  -3  -7  237.49    6.22
   6   3   7  231.53    5.83
  -6  -3  -7  237.84    5.78
  -6  -3  -8   12.23    1.10
  -6  -3  -8   12.70    1.23
  -6  -3  -8   10.90    0.84
   6   3   8   12.20    0.88
  -6  -3  -8   11.95    1.00
  -6  -3  -9   13.35    1.19
  -6  -3  -9   10.69    1.10
  -6  -3  -9   13.87    1.15
  -6  -3  -9   13.08    0.87
   6   3   9   11.68    0.83
  -6  -3  -9   12.98    0.98
  -6  -3 -10   49.90    2.47
  -6  -3 -10   50.05    2.47
  -6  -3 -10   51.44    2.34
  -6  -3 -10   50.40    1.78
  -6  -3 -10   50.68    2.04
  -6  -3 -11    3.13    0.76
  -6  -3 -11    3.04    0.78
  -6  -3 -11    2.62    0.76
  -6  -3 -11    2.23    0.39
  -6  -3 -11    2.43    0.49
  -6  -3 -12   58.03    2.65
  -6  -3 -12   55.54    2.76
  -6  -3 -12   59.41    1.76
  -6  -3 -12   56.96    2.16
  -6  -3 -13    7.72    1.12
  -6  -3 -13    8.51    0.46
  -6  -3 -13    7.68    0.76
  -6  -3 -14   11.16    1.31
  -6  -3 -14   11.70    0.87
  -6  -3 -15   11.89    1.41
  -6  -3 -15   14.54    0.96
  -6  -3 -16    7.37    0.70
  -6  -3 -16    9.80    1.32
  -6  -3 -17  161.62    5.81
  -6  -3 -18   17.24    1.81
  -6  -3 -19   31.48    2.53
  -6  -3 -20    4.82    1.25
  -6  -3 -21   20.09    2.20
  -6  -3 -22    2.79    1.19
  -6  -4  16    2.35    1.04
  -6  -4  15    9.41    1.40
  -6  -4  15   10.91    1.46
  -6  -4  14    4.32    1.00
  -6  -4  14    4.40    1.05
  -6  -4  13   21.83    1.95
  -6  -4  13   23.16    1.95
  -6  -4  12   11.60    1.49
  -6  -4  12   12.79    1.49
  -6  -4  11   73.46    3.32
  -6  -4  11   71.47    3.46
  -6  -4  11   76.33    3.19
  -6  -4  10   50.10    2.57
  -6  -4  10   51.08    2.82
  -6  -4   9  108.73    3.97
  -6  -4   9  107.57    4.21
  -6  -4   9  113.66    4.36
  -6  -4   8    1.08    0.80
  -6  -4   8    2.35    0.84
  -6  -4   7  142.82    4.85
  -6  -4   7  138.11    4.84
  -6  -4   6  163.15    5.33
  -6  -4   6  168.51    5.44
   6   4  -6  183.23    5.66
   6   4  -5  223.76    6.53
  -6  -4   5  219.52    6.46
   6   4  -4    5.95    0.92
  -6  -4   4    5.62    0.96
  -6  -4   3  124.01    4.31
   6   4  -3  143.25    4.59
   6   4  -2  119.86    4.07
  -6  -4   2  109.28    3.92
   6   4  -1   26.33    1.70
  -6  -4   1   27.12    1.74
   6   4   0  278.66    7.22
  -6  -4   0  275.53    7.25
   6   4   1  157.88    4.70
  -6  -4  -1  154.11    4.67
   6   4   2  750.84   16.16
  -6  -4  -2  744.85   16.11
   6   4   3    6.18    0.83
  -6  -4  -3    6.87    0.84
  -6  -4  -4  233.13    6.02
   6   4   4  237.23    6.09
   6   4   5   19.00    1.26
  -6  -4  -5   20.69    1.32
  -6  -4  -6  769.76   16.51
   6   4   6  777.12   16.36
  -6  -4  -6  782.37   16.31
  -6  -4  -7   55.40    2.33
  -6  -4  -7   57.26    2.13
   6   4   7   52.01    2.08
  -6  -4  -7   54.18    2.43
  -6  -4  -8   16.61    1.29
   6   4   8   14.55    1.03
  -6  -4  -8   14.80    0.99
  -6  -4  -8   14.09    1.27
  -6  -4  -9    4.76    0.78
  -6  -4  -9    6.47    0.81
  -6  -4  -9    6.11    0.93
  -6  -4  -9    6.51    0.64
   6   4   9    5.09    0.60
  -6  -4 -10  139.46    4.55
  -6  -4 -10  140.72    4.29
  -6  -4 -10  143.75    4.63
   6   4  10  131.27    3.59
  -6  -4 -10  139.71    3.58
  -6  -4 -10  130.56    3.83
  -6  -4 -11    0.51    0.58
  -6  -4 -11    0.76    0.55
  -6  -4 -11   -0.68    0.64
  -6  -4 -11    0.64    0.33
  -6  -4 -11    1.09    0.46
   6   4  11    0.34    0.27
  -6  -4 -12  138.78    4.75
  -6  -4 -12  141.05    4.43
  -6  -4 -12  130.74    3.69
  -6  -4 -13    2.30    0.59
  -6  -4 -13    3.13    0.92
  -6  -4 -13    2.87    0.48
  -6  -4 -14   61.68    3.14
  -6  -4 -14   66.90    2.18
  -6  -4 -15   17.20    1.79
  -6  -4 -15   14.66    0.88
  -6  -4 -16   15.62    1.67
  -6  -4 -16   14.93    0.84
  -6  -4 -17   16.80    1.81
  -6  -4 -18  107.61    4.75
  -6  -4 -19    6.79    1.38
  -6  -4 -20   13.52    1.87
  -6  -4 -21    4.33    1.20
  -6  -4 -22   11.94    1.80
  -6  -5  15    8.18    1.39
  -6  -5  14    0.66    0.66
  -6  -5  14    0.69    0.82
  -6  -5  13   68.65    3.64
  -6  -5  13   78.76    3.56
  -6  -5  12    1.03    0.75
  -6  -5  12    1.12    0.88
  -6  -5  11   76.45    3.75
  -6  -5  11   86.19    3.49
  -6  -5  10    2.36    0.90
  -6  -5  10    1.86    0.71
  -6  -5   9   32.18    1.88
  -6  -5   9   28.98    2.15
  -6  -5   8   59.44    2.55
  -6  -5   8   53.34    2.90
  -6  -5   7  176.46    5.75
  -6  -5   7  180.54    5.85
  -6  -5   6   -0.28    0.74
  -6  -5   6   -0.17    0.63
  -6  -5   5  112.16    4.21
   6   5  -5  124.57    4.47
  -6  -5   5  117.56    4.33
  -6  -5   4   11.39    1.21
   6   5  -4   10.31    1.15
  -6  -5   4   11.92    1.29
   6   5  -3   45.29    2.38
  -6  -5   3   41.08    2.29
   6   5  -2   28.03    1.83
  -6  -5   2   24.96    1.76
   6   5  -1 1246.79   25.50
  -6  -5   1 1178.36   25.37
   6   5   0  604.42   13.65
  -6  -5   0  595.21   13.57
   6   5   1 1465.35   29.61
  -6  -5  -1 1415.86   29.54
   6   5   2    6.73    0.90
  -6  -5  -2    6.15    0.90
   6   5   3    1.82    0.63
  -6  -5  -3    1.95    0.70
   6   5   4  270.88    6.82
  -6  -5  -4  261.24    6.74
  -6  -5  -5   88.74    2.94
   6   5   5   94.72    3.17
  -6  -5  -5   91.06    3.12
  -6  -5  -5   87.65    3.18
  -6  -5  -6   38.87    1.83
   6   5   6   39.91    1.86
  -6  -5  -6   43.93    1.91
  -6  -5  -6   39.57    2.04
  -6  -5  -7  162.09    4.72
  -6  -5  -7  167.22    4.51
   6   5   7  164.61    4.53
  -6  -5  -7  166.95    5.02
  -6  -5  -8  236.39    6.33
  -6  -5  -8  243.50    5.87
   6   5   8  233.57    5.88
  -6  -5  -8  237.28    6.56
  -6  -5  -9   18.19    1.34
   6   5   9   17.33    1.09
  -6  -5  -9   18.64    1.09
  -6  -5  -9   18.07    1.49
  -6  -5 -10    0.63    0.47
  -6  -5 -10    0.42    0.41
  -6  -5 -10    1.54    0.75
   6   5  10    1.02    0.41
  -6  -5 -11   16.34    1.46
  -6  -5 -11   13.94    1.16
  -6  -5 -11   16.15    1.48
   6   5  11   14.21    0.88
  -6  -5 -11   15.46    1.04
  -6  -5 -12   63.76    2.70
  -6  -5 -12   65.71    3.13
   6   5  12   65.71    1.94
  -6  -5 -12   66.07    2.25
  -6  -5 -13    0.10    0.44
  -6  -5 -13   -0.52    0.81
  -6  -5 -13    1.16    0.38
  -6  -5 -14  152.79    5.38
  -6  -5 -14  148.43    3.77
  -6  -5 -15   28.82    2.20
  -6  -5 -15   29.56    1.15
  -6  -5 -16  150.82    5.62
  -6  -5 -17    1.19    0.78
  -6  -5 -18   72.17    3.84
  -6  -5 -19   20.41    2.13
  -6  -5 -20   14.16    1.90
  -6  -5 -21   -0.14    0.98
  -6  -5 -22    1.31    1.10
  -6  -6  15   -0.64    0.87
  -6  -6  14   11.89    1.65
  -6  -6  13   14.69    1.81
  -6  -6  12   81.65    4.01
  -6  -6  12   80.80    3.38
  -6  -6  11   64.97    3.49
  -6  -6  11   66.79    2.95
  -6  -6  10   14.30    1.28
  -6  -6  10   10.68    1.46
  -6  -6   9    1.88    0.92
  -6  -6   9    0.33    0.50
  -6  -6   8    0.69    0.76
  -6  -6   8    0.65    0.44
  -6  -6   7    1.65    0.72
  -6  -6   7    1.63    0.48
  -6  -6   6    9.83    1.28
  -6  -6   6   10.91    0.96
  -6  -6   5   15.17    1.48
  -6  -6   4   18.90    1.64
  -6  -6   3   22.89    1.79
   6   6  -3   24.72    1.80
  -6  -6   3   24.40    1.83
  -6  -6   2  147.08    4.85
   6   6  -2  150.07    4.93
  -6  -6   2  141.30    4.81
  -6  -6   1  149.48    4.93
   6   6  -1  160.04    5.04
   6   6   0   54.94    2.59
  -6  -6   0   53.35    2.57
   6   6   1    1.36    0.52
  -6  -6  -1    1.84    0.68
   6   6   2   65.63    2.77
  -6  -6  -2   64.91    2.77
  -6  -6  -3   27.09    1.31
   6   6   3   28.65    1.71
  -6  -6  -3   29.82    1.77
  -6  -6  -4   32.70    1.49
  -6  -6  -4   32.29    1.80
   6   6   4   33.64    1.83
  -6  -6  -4   31.37    1.75
  -6  -6  -5  313.74    7.54
   6   6   5  329.11    7.98
  -6  -6  -5  326.49    7.95
  -6  -6  -5  330.66    8.10
  -6  -6  -6   22.23    1.33
  -6  -6  -6   19.81    1.34
   6   6   6   22.61    1.41
  -6  -6  -6   21.46    1.55
  -6  -6  -7  485.15   10.97
   6   6   7  477.49   10.86
  -6  -6  -7  488.07   11.42
  -6  -6  -8    5.20    0.76
   6   6   8    5.38    0.68
  -6  -6  -8    6.02    0.94
  -6  -6  -9    0.20    0.46
   6   6   9    1.29    0.45
  -6  -6  -9    0.77    0.69
  -6  -6 -10   32.34    1.91
   6   6  10   29.30    1.44
  -6  -6 -10   29.72    1.66
  -6  -6 -10   32.76    2.11
  -6  -6 -11  206.55    6.02
  -6  -6 -11  195.70    5.41
  -6  -6 -11  198.75    6.13
   6   6  11  190.47    4.86
  -6  -6 -12   20.30    1.38
  -6  -6 -12   22.04    1.75
   6   6  12   19.86    1.01
  -6  -6 -12   20.03    1.14
  -6  -6 -13    4.60    1.01
  -6  -6 -13    2.68    0.59
  -6  -6 -13    4.09    0.54
   6   6  13    3.54    0.37
  -6  -6 -14   20.10    1.85
  -6  -6 -14   19.83    0.95
  -6  -6 -14   19.55    0.96
  -6  -6 -15    0.50    0.84
  -6  -6 -15    0.87    0.28
  -6  -6 -15    0.34    0.25
  -6  -6 -16   24.85    2.15
  -6  -6 -17   20.02    2.02
  -6  -6 -18    8.06    1.42
  -6  -6 -19   24.91    2.35
  -6  -6 -20   10.05    1.65
  -6  -6 -21    1.98    1.20
  -6  -7  15    6.62    1.34
  -6  -7  14    0.44    0.82
  -6  -7  13    2.42    0.96
  -6  -7  12   14.55    1.74
  -6  -7  11   10.18    1.47
  -6  -7  10   30.78    2.39
  -6  -7  10   26.95    1.61
  -6  -7   9    5.17    0.77
  -6  -7   9    4.84    1.16
  -6  -7   8   20.07    1.89
  -6  -7   8   18.66    1.22
  -6  -7   7    5.92    1.19
  -6  -7   7    4.41    0.63
  -6  -7   6  180.19    4.53
  -6  -7   6  177.71    6.06
  -6  -7   5   45.30    1.64
  -6  -7   5   42.48    2.61
  -6  -7   4   39.29    1.46
  -6  -7   4   41.33    2.45
  -6  -7   3    1.75    0.82
  -6  -7   2   45.84    2.53
  -6  -7   1    2.12    0.83
   6   7  -1    1.62    0.59
  -6  -7   0  130.47    4.53
   6   7   0  131.40    4.53
  -6  -7  -1  141.78    4.68
  -6  -7  -1  139.08    3.45
   6   7   1  150.99    4.79
  -6  -7  -2   99.14    3.64
  -6  -7  -2   93.73    2.64
   6   7   2  100.21    3.67
  -6  -7  -2   97.05    3.23
  -6  -7  -3   50.66    2.40
  -6  -7  -3   46.40    1.71
   6   7   3   48.46    2.37
  -6  -7  -3   47.72    2.15
  -6  -7  -4   41.19    1.68
   6   7   4   43.76    2.19
  -6  -7  -4   44.16    2.10
  -6  -7  -5    6.63    0.72
   6   7   5    6.38    0.85
  -6  -7  -5    7.43    0.94
  -6  -7  -6    9.24    0.90
   6   7   6    9.92    1.01
  -6  -7  -6   11.37    1.17
  -6  -7  -7   85.69    3.05
   6   7   7   88.25    3.13
  -6  -7  -7   89.23    3.43
  -6  -7  -8  147.98    4.49
   6   7   8  148.25    4.35
  -6  -7  -8  147.46    4.85
  -6  -7  -9   57.19    2.58
   6   7   9   55.72    2.26
  -6  -7  -9   56.10    2.77
  -6  -7 -10    8.77    1.03
  -6  -7 -10    9.26    0.86
   6   7  10    8.63    0.84
  -6  -7 -10    7.55    1.08
  -6  -7 -11  216.65    5.44
  -6  -7 -11  222.67    6.43
   6   7  11  210.19    5.38
  -6  -7 -11  214.14    5.71
  -6  -7 -11  212.89    6.58
  -6  -7 -12    2.69    0.47
  -6  -7 -12    2.19    0.56
  -6  -7 -12    1.91    0.78
   6   7  12    4.22    0.54
   6   7  13  352.59    9.43
  -6  -7 -13  347.93    7.64
  -6  -7 -13  356.97    9.61
  -6  -7 -13  333.01    8.29
   6   7  13  342.47    7.52
  -6  -7 -13  333.45    7.62
  -6  -7 -14    0.79    0.79
  -6  -7 -14    1.22    0.35
   6   7  14    0.95    0.68
  -6  -7 -14    0.86    0.35
   6   7  14    1.25    0.25
  -6  -7 -15    3.23    1.02
   6   7  15    5.32    1.18
  -6  -7 -15    4.49    0.35
  -6  -7 -15    3.34    0.33
  -6  -7 -16   -0.77    1.00
   6   7  16    1.21    0.93
  -6  -7 -17   12.33    1.66
   6   7  17   12.58    1.73
  -6  -7 -18   19.07    2.04
   6   7  18   23.12    2.25
  -6  -7 -19    8.71    1.66
   6   7  19    9.32    1.62
  -6  -7 -20    2.56    1.09
  -6  -8  15    2.77    1.10
  -6  -8  14    4.74    1.19
  -6  -8  13   52.79    3.35
  -6  -8  12   39.28    2.98
  -6  -8  11   74.75    4.05
  -6  -8  10   31.63    2.58
  -6  -8   9    1.15    0.81
  -6  -8   8   35.38    1.54
  -6  -8   8   34.71    2.59
  -6  -8   7    0.38    0.33
  -6  -8   7   -0.57    0.87
  -6  -8   6   68.27    2.00
  -6  -8   6   66.44    3.49
  -6  -8   5    1.90    0.94
  -6  -8   5    2.77    0.35
  -6  -8   4  161.69    3.51
  -6  -8   4  174.16    5.85
  -6  -8   3   28.23    2.12
  -6  -8   2  181.26    5.93
  -6  -8   1    1.87    0.82
  -6  -8   1    2.90    0.53
  -6  -8   0    3.30    0.89
  -6  -8   0    3.36    0.29
  -6  -8   0    3.13    0.59
  -6  -8  -1    1.37    0.75
  -6  -8  -1    1.65    0.30
   6   8   1    2.75    0.79
  -6  -8  -1    1.04    0.43
  -6  -8  -2   33.56    1.25
  -6  -8  -2   32.91    2.02
   6   8   2   39.74    2.21
  -6  -8  -2   35.51    1.80
  -6  -8  -3   32.98    1.33
  -6  -8  -3   33.16    2.00
   6   8   3   33.53    2.02
  -6  -8  -3   32.74    1.79
  -6  -8  -4   14.32    1.33
  -6  -8  -4   15.18    0.95
   6   8   4   16.99    1.45
  -6  -8  -4   15.27    1.26
  -6  -8  -5   43.55    1.80
  -6  -8  -5   45.66    2.29
   6   8   5   44.96    2.28
  -6  -8  -5   42.73    2.18
  -6  -8  -6  175.93    4.80
  -6  -8  -6  178.86    5.28
   6   8   6  177.73    5.29
  -6  -8  -6  181.64    5.40
  -6  -8  -7    7.66    0.91
  -6  -8  -7    7.75    0.85
   6   8   7    7.15    0.92
  -6  -8  -7    7.11    1.02
  -6  -8  -8  158.19    4.73
  -6  -8  -8  159.34    4.69
   6   8   8  155.38    4.69
  -6  -8  -8  160.19    5.16
  -6  -8  -9    0.51    0.47
  -6  -8  -9    0.34    0.45
   6   8   9    0.83    0.42
  -6  -8  -9    1.04    0.69
  -6  -8 -10   54.55    2.63
  -6  -8 -10   56.38    2.28
   6   8  10   52.87    2.26
  -6  -8 -10   54.96    2.87
  -6  -8 -11    4.27    0.67
   6   8  11    3.89    0.65
  -6  -8 -11    2.74    0.86
  -6  -8 -11    3.77    0.62
   6   8  12  136.13    4.91
  -6  -8 -12  140.89    3.91
   6   8  12  135.43    3.94
  -6  -8 -12  140.13    4.14
  -6  -8 -12  142.67    5.20
   6   8  13  160.33    5.60
  -6  -8 -13  165.78    4.26
  -6  -8 -13  163.97    5.86
  -6  -8 -13  162.88    4.68
   6   8  13  165.80    4.32
   6   8  14  103.42    4.35
  -6  -8 -14  105.71    4.49
   6   8  14   97.80    2.74
  -6  -8 -14  103.55    2.74
  -6  -8 -14   91.14    2.67
  -6  -8 -15  276.13    8.64
   6   8  15  282.73    8.52
  -6  -8 -16   20.52    2.09
   6   8  16   21.85    2.10
  -6  -8 -17   30.04    2.56
   6   8  17   29.87    2.56
  -6  -8 -18   24.39    2.37
   6   8  18   22.20    2.29
  -6  -8 -19  124.77    5.76
   6   8  19  132.19    5.90
  -6  -8 -20    2.35    1.17
   6   8  20    0.54    0.96
  -6  -9  13   19.04    2.22
  -6  -9  12   -0.37    0.81
  -6  -9  11   26.66    2.47
  -6  -9  10    0.43    0.83
  -6  -9   9   28.89    2.53
  -6  -9   8    8.03    1.41
  -6  -9   7   52.82    3.21
  -6  -9   6   33.03    2.53
  -6  -9   6   30.79    1.23
  -6  -9   5  266.30    8.08
  -6  -9   5  253.69    5.87
  -6  -9   4  155.49    5.68
  -6  -9   4  154.61    4.02
  -6  -9   3   44.21    2.74
  -6  -9   3   43.58    1.75
  -6  -9   2    6.43    1.09
  -6  -9   2    7.54    0.75
  -6  -9   1    0.28    0.70
  -6  -9   1    1.11    0.47
  -6  -9   0    2.92    0.88
  -6  -9   0    4.43    0.62
  -6  -9  -1    3.30    0.87
  -6  -9  -1    3.26    0.58
  -6  -9  -2   -0.52    0.65
  -6  -9  -2    0.71    0.44
  -6  -9  -3   11.61    1.30
  -6  -9  -3   12.18    1.12
  -6  -9  -4   53.22    1.92
  -6  -9  -4   57.18    2.76
   6   9   4   58.59    2.87
  -6  -9  -4   57.50    2.54
  -6  -9  -5    4.59    0.86
  -6  -9  -5    4.50    0.62
   6   9   5    3.67    0.74
  -6  -9  -5    5.40    0.89
  -6  -9  -6  145.78    4.28
  -6  -9  -6  151.19    4.88
   6   9   6  162.11    5.13
  -6  -9  -6  159.33    4.98
  -6  -9  -7  124.42    3.90
  -6  -9  -7  126.00    4.23
   6   9   7  126.91    4.31
  -6  -9  -7  119.59    4.33
  -6  -9  -8  508.02   11.68
  -6  -9  -8  518.00   11.81
   6   9   8  502.59   11.86
  -6  -9  -8  500.76   12.26
  -6  -9  -9   45.93    2.30
  -6  -9  -9   44.02    2.14
   6   9   9   41.67    2.15
  -6  -9  -9   41.49    2.48
  -6  -9 -10   -0.22    0.45
  -6  -9 -10    2.00    0.74
   6   9  10    0.40    0.43
  -6  -9 -10    0.75    0.78
   6   9  11    0.51    0.64
  -6  -9 -11    0.23    0.45
   6   9  11    0.77    0.45
  -6  -9 -11    0.17    0.38
  -6  -9 -11    0.69    0.89
   6   9  12  228.00    6.86
  -6  -9 -12  228.65    5.73
  -6  -9 -12  221.92    5.75
  -6  -9 -12  224.62    7.14
   6   9  12  220.56    5.87
   6   9  13   24.09    1.95
  -6  -9 -13   24.82    2.14
  -6  -9 -13   24.23    1.40
   6   9  13   25.14    1.39
  -6  -9 -13   25.75    1.33
  -6  -9 -14   22.28    2.05
   6   9  14   17.83    1.79
  -6  -9 -14   19.54    1.03
   6   9  15   21.28    1.97
  -6  -9 -15   20.23    2.07
   6   9  16   39.83    2.80
  -6  -9 -16   39.51    2.91
   6   9  17    0.13    0.89
  -6  -9 -17    0.75    0.94
   6   9  18    8.16    1.49
  -6  -9 -18    8.81    1.63
   6   9  19    4.81    1.29
  -6  -9 -19    1.76    1.12
  -6 -10  11   19.46    2.19
  -6 -10  10    8.76    1.69
  -6 -10   9    6.59    1.34
  -6 -10   8    0.65    0.86
  -6 -10   7   12.69    1.72
  -6 -10   6    3.20    1.04
  -6 -10   5   46.34    3.03
  -6 -10   4    4.54    1.17
  -6 -10   4    4.01    0.46
  -6 -10   3  221.30    7.21
  -6 -10   3  218.82    5.29
  -6 -10   2    1.46    0.80
  -6 -10   2    1.80    0.43
  -6 -10   1   10.22    1.35
  -6 -10   1    9.95    0.90
  -6 -10   0   13.99    1.59
  -6 -10   0   14.47    1.11
  -6 -10  -1  172.17    5.91
  -6 -10  -1  179.93    4.99
  -6 -10  -2   49.72    2.76
  -6 -10  -2   48.53    2.24
  -6 -10  -3   26.47    1.97
  -6 -10  -3   26.75    1.67
  -6 -10  -4    3.06    0.82
  -6 -10  -4    3.73    0.75
  -6 -10  -5   24.95    1.84
  -6 -10  -5   22.47    1.65
  -6 -10  -6    4.51    0.85
  -6 -10  -6    3.69    0.79
  -6 -10  -7   40.62    2.29
   6  10   7   39.35    2.28
  -6 -10  -7   42.97    2.41
  -6 -10  -8  177.59    5.45
   6  10   8  184.91    5.70
  -6 -10  -8  182.25    5.86
  -6 -10  -9  406.82    9.89
   6  10   9  411.13   10.19
  -6 -10  -9  407.56   10.64
  -6 -10 -10  102.99    3.57
   6  10  10   97.07    3.67
  -6 -10 -10  104.82    4.31
   6  10  11   -0.28    0.66
  -6 -10 -11    2.26    0.64
  -6 -10 -11    0.63    0.39
  -6 -10 -11    1.18    0.68
   6  10  11    1.58    0.50
   6  10  12   45.36    2.64
  -6 -10 -12   48.41    1.96
  -6 -10 -12   46.44    2.90
   6  10  12   43.55    2.16
  -6 -10 -12   47.50    2.09
  -6 -10 -13   22.65    2.10
   6  10  13   20.44    1.84
  -6 -10 -13   22.00    1.30
  -6 -10 -14  249.84    8.15
   6  10  14  244.62    7.69
  -6 -10 -15   28.66    2.52
   6  10  15   29.58    2.36
  -6 -10 -16    1.53    1.07
   6  10  16    1.31    0.91
  -6 -10 -17   36.81    2.98
   6  10  17   37.20    2.85
  -6 -10 -18   32.30    2.95
   6  10  18   35.18    2.96
   6  10  19    9.24    1.63
  -6 -11  10   20.73    2.33
  -6 -11   9    8.14    1.58
  -6 -11   8    3.23    1.09
  -6 -11   7   11.66    1.70
  -6 -11   6   67.53    3.94
  -6 -11   5   45.95    3.16
  -6 -11   4    4.80    1.33
  -6 -11   3   62.11    2.03
  -6 -11   3   61.95    3.97
  -6 -11   2   15.81    1.00
  -6 -11   2   17.95    1.91
  -6 -11   1   27.49    1.46
  -6 -11   1   31.93    2.38
  -6 -11   0   24.00    1.43
  -6 -11   0   25.02    2.11
  -6 -11  -1  167.49    4.82
  -6 -11  -1  163.27    5.83
  -6 -11  -2   93.90    3.36
  -6 -11  -2   90.55    4.02
  -6 -11  -3  528.99   12.07
  -6 -11  -3  501.71   12.78
  -6 -11  -4    1.58    0.64
  -6 -11  -4    2.88    0.91
  -6 -11  -5   82.90    3.40
  -6 -11  -5   76.56    3.47
  -6 -11  -6   58.82    2.87
  -6 -11  -6   59.36    2.94
  -6 -11  -7   10.98    1.27
  -6 -11  -7    9.59    1.23
  -6 -11  -8   -0.18    0.80
  -6 -11  -8    0.30    0.62
  -6 -11  -9   61.47    3.20
  -6 -11  -9   64.81    2.91
  -6 -11 -10    0.08    0.54
  -6 -11 -10   -1.05    0.85
   6  11  10    0.19    0.49
   6  11  11   49.77    2.65
  -6 -11 -11   46.55    2.93
   6  11  11   41.97    2.34
  -6 -11 -11   49.45    2.28
  -6 -11 -12    7.29    1.38
   6  11  12    3.69    0.94
  -6 -11 -12    6.14    0.82
  -6 -11 -13    5.45    1.23
   6  11  13    4.18    1.00
  -6 -11 -13    5.30    0.74
  -6 -11 -14    8.33    1.46
   6  11  14    6.39    1.12
  -6 -11 -15   27.90    2.54
   6  11  15   32.34    2.51
  -6 -11 -16    0.97    0.88
   6  11  16    1.24    0.94
  -6 -11 -17    3.79    1.29
   6  11  17    3.98    1.15
   6  11  18    4.97    1.35
  -6 -12   8   35.13    2.96
  -6 -12   7    1.80    1.05
  -6 -12   6   21.12    2.24
  -6 -12   5    0.46    0.80
  -6 -12   4  243.36    8.29
  -6 -12   3   39.49    2.92
  -6 -12   2   31.06    2.61
  -6 -12   1    1.09    0.43
  -6 -12   1    1.43    1.07
  -6 -12   0   35.49    1.78
  -6 -12   0   41.55    2.85
  -6 -12  -1   56.02    2.44
  -6 -12  -1   59.88    3.41
  -6 -12  -2   87.64    3.32
  -6 -12  -2   94.87    4.27
  -6 -12  -3   31.09    1.90
  -6 -12  -3   30.85    2.38
  -6 -12  -4    2.60    0.75
  -6 -12  -4    2.03    0.77
  -6 -12  -5    9.36    1.16
  -6 -12  -5   10.75    1.42
  -6 -12  -6  105.69    4.15
  -6 -12  -6  106.44    4.35
  -6 -12  -7    1.67    0.74
  -6 -12  -7    1.37    0.80
  -6 -12  -8    5.44    1.04
  -6 -12  -8    6.05    1.13
  -6 -12  -9  142.39    5.37
  -6 -12  -9  142.52    4.81
  -6 -12 -10    4.22    1.07
  -6 -12 -10    4.35    0.86
  -6 -12 -11    2.21    0.96
   6  12  11    0.92    0.60
  -6 -12 -11    2.73    0.75
  -6 -12 -12    3.29    1.06
   6  12  12    5.58    1.14
  -6 -12 -12    2.84    0.72
  -6 -12 -13  157.06    6.20
   6  12  13  152.03    5.57
  -6 -12 -14    6.11    1.47
   6  12  14    6.67    1.26
  -6 -12 -15   31.60    2.82
   6  12  15   29.19    2.43
  -6 -12 -16   24.86    2.58
   6  12  16   24.00    2.29
   6  12  17    7.19    1.43
   6  12  18    0.98    1.20
  -6 -13   6   -1.43    0.94
  -6 -13   5    2.07    1.08
  -6 -13   4   29.21    2.52
  -6 -13   3    2.76    1.13
  -6 -13   2  131.96    5.63
  -6 -13   1   18.96    2.02
  -6 -13   0    0.42    0.83
  -6 -13  -1    0.19    0.50
  -6 -13  -1   -1.01    0.87
  -6 -13  -2  153.83    4.79
  -6 -13  -2  144.05    5.71
  -6 -13  -3    1.75    0.66
  -6 -13  -3    2.38    1.02
  -6 -13  -4  129.98    4.57
  -6 -13  -4  127.66    5.10
  -6 -13  -5    8.33    1.19
  -6 -13  -5   11.50    1.50
  -6 -13  -6    2.66    0.92
  -6 -13  -6    0.91    0.74
  -6 -13  -7   20.88    1.85
  -6 -13  -7   20.09    1.78
  -6 -13  -8    8.18    1.29
  -6 -13  -8    5.80    1.05
  -6 -13  -9   17.93    1.83
  -6 -13  -9   14.90    1.50
  -6 -13 -10   10.83    1.61
  -6 -13 -10    9.11    1.24
  -6 -13 -11   22.72    2.22
  -6 -13 -11   25.37    1.83
  -6 -13 -12   39.15    2.93
   6  13  12   39.81    2.53
  -6 -13 -12   38.54    2.18
  -6 -13 -13    5.52    1.20
   6  13  13    6.33    1.19
  -6 -13 -14   11.33    1.73
   6  13  14   11.92    1.53
  -6 -13 -15   47.50    3.44
   6  13  15   45.86    3.08
   6  13  16   40.12    2.94
   6  13  17   11.95    1.68
  -6 -14   3    5.20    1.31
  -6 -14   2   21.45    2.38
  -6 -14   1   -0.23    0.87
  -6 -14   0    0.70    0.96
  -6 -14  -1    1.47    0.91
  -6 -14  -2    8.44    1.45
  -6 -14  -3   13.42    1.34
  -6 -14  -3   11.81    1.62
  -6 -14  -4   26.41    1.93
  -6 -14  -4   23.71    2.12
  -6 -14  -5   31.53    2.19
  -6 -14  -5   31.55    2.48
  -6 -14  -6   13.41    1.53
  -6 -14  -6   12.82    1.60
  -6 -14  -7    4.18    1.06
  -6 -14  -7    6.16    1.20
  -6 -14  -8   51.58    3.16
  -6 -14  -8   60.09    3.19
  -6 -14  -9    2.06    0.90
  -6 -14  -9    3.26    0.90
  -6 -14 -10   41.92    2.96
  -6 -14 -10   42.69    2.57
  -6 -14 -11    2.00    1.19
  -6 -14 -11    0.53    0.59
  -6 -14 -12   -0.29    0.89
  -6 -14 -13    3.67    1.23
   6  14  13    3.58    1.03
   6  14  14    1.35    0.86
   6  14  15   -0.20    0.84
   6  14  16    3.29    0.99
   6  14  17    0.08    0.89
  -6 -15   1   83.24    4.62
  -6 -15   0    0.32    0.87
  -6 -15  -1   68.29    4.06
  -6 -15  -2    2.89    1.11
  -6 -15  -3   77.63    4.23
  -6 -15  -4   -0.38    0.95
  -6 -15  -5    2.39    1.01
  -6 -15  -6    3.87    1.16
  -6 -15  -7   -0.16    0.75
  -6 -15  -8    0.86    0.87
  -6 -15  -9   37.98    2.57
  -6 -15 -10   80.01    3.76
  -6 -16  -2    5.96    1.47
  -6 -16  -3   45.29    3.35
  -6 -16  -4   32.00    2.73
  -6 -16  -5   96.88    4.83
  -6 -16  -6   -1.02    1.00
  -6 -16  -7   58.62    3.54
  -6 -16  -8    4.58    1.26
  -6 -16  -9   57.71    3.39
  -6 -17  -6    3.14    1.18
  -6 -17  -7    4.95    1.27
  -6 -17  -8   13.26    1.78
   7 -13  -3    1.95    1.12
   7 -13  -2    2.93    1.25
  -7  12   3    9.33    1.80
   7 -12  -3    8.88    1.60
  -7  12   2   -1.71    1.13
   7 -12  -2   -0.35    0.85
   7 -12  -1   25.76    2.47
   7 -12   0    2.22    1.06
   7 -12   1    0.67    0.93
   7 -12   2    0.91    1.01
   7 -12   3    2.93    1.05
  -7  11  10   16.55    2.07
  -7  11   9    1.66    0.97
  -7  11   8    2.46    1.23
  -7  11   7    4.29    1.38
  -7  11   6    2.54    1.17
  -7  11   5   25.73    2.57
  -7  11   4   32.99    2.84
  -7  11   3   45.77    3.35
   7 -11  -3   43.86    3.08
  -7  11   2    1.27    1.05
   7 -11  -2    0.91    0.83
   7 -11  -1    6.89    1.45
   7 -11   0   11.94    1.72
   7 -11   1  255.60    8.63
   7 -11   2    5.10    1.23
   7 -11   3   71.92    4.17
   7 -11   4    0.36    1.03
   7 -11   5   18.17    2.20
   7 -11   6    2.66    1.14
   7 -11   7   34.72    2.99
  -7  10  11   -1.73    1.15
  -7  10  10   29.42    2.66
  -7  10   9    0.07    0.95
  -7  10   8    1.23    0.93
  -7  10   7    3.12    1.27
  -7  10   6   79.92    4.34
  -7  10   5    3.25    1.14
  -7  10   4   77.25    4.26
  -7  10   3    1.49    0.89
  -7  10   2    0.21    0.83
   7 -10  -2   -0.81    0.93
  -7  10   1    0.76    0.81
   7 -10  -1    3.18    1.17
   7 -10   0   24.10    2.26
   7 -10   1    8.75    1.52
   7 -10   2  108.30    4.98
   7 -10   3  152.97    6.14
   7 -10   4   42.55    3.09
   7 -10   5   17.97    2.10
   7 -10   6    7.59    1.39
   7 -10   7   25.49    2.52
   7 -10   8    3.70    1.14
   7 -10   9    5.36    1.40
   7 -10  10    0.21    0.84
  -7   9  11    0.02    0.87
  -7   9  10    7.41    1.47
  -7   9   9    0.97    0.84
  -7   9   8    9.16    1.54
  -7   9   7    5.04    1.33
  -7   9   6    1.35    0.93
  -7   9   5   -0.63    0.80
  -7   9   4  115.52    5.16
  -7   9   3   35.93    2.76
  -7   9   2   44.43    3.07
   7  -9  -2   44.82    2.93
  -7   9   1    2.06    1.03
   7  -9  -1    3.10    1.00
   7  -9   0   88.85    4.23
   7  -9   1    3.23    1.02
   7  -9   2  223.74    7.53
   7  -9   3    2.95    1.09
   7  -9   4    2.44    1.02
   7  -9   5    4.97    1.22
   7  -9   6   26.30    2.38
   7  -9   7    2.08    0.85
   7  -9   8   15.31    1.90
   7  -9   9    3.09    1.19
   7  -9  10   11.65    1.74
   7  -9  11   25.21    2.51
   7  -9  12   19.22    2.26
   7  -9  13   57.43    3.80
  -7   8  12    4.45    1.26
  -7   8  11   60.74    3.62
  -7   8  10    5.10    1.41
  -7   8   9   90.90    4.54
  -7   8   8    1.20    0.82
  -7   8   7    3.39    1.09
  -7   8   6   11.40    1.64
  -7   8   5   22.13    2.14
  -7   8   4   46.03    3.04
  -7   8   3   22.75    1.51
  -7   8   3   25.69    2.29
  -7   8   2   18.58    1.38
  -7   8   2   15.53    1.82
  -7   8   1   28.48    1.76
  -7   8   1   27.87    2.34
   7  -8  -1   26.93    2.17
  -7   8   0    1.24    0.56
  -7   8   0   -1.18    0.91
   7  -8   0    0.66    0.75
   7  -8   1   32.98    2.46
   7  -8   2  176.17    6.25
   7  -8   3   94.48    4.34
   7  -8   4  151.20    5.78
   7  -8   5    0.83    0.87
   7  -8   6  168.70    6.75
   7  -8   7    5.91    1.30
   7  -8   8   88.81    4.39
   7  -8   9   20.21    2.13
   7  -8  10   -1.65    1.00
   7  -8  11    0.31    0.85
   7  -8  12    8.90    1.54
   7  -8  13   -0.64    1.07
   7  -8  14   77.43    4.38
   7  -8  15   23.01    2.49
  -7   7  12   -0.80    0.93
  -7   7  11   24.04    2.22
  -7   7  10    1.25    0.87
  -7   7   9   30.83    2.50
  -7   7   8   19.96    2.01
  -7   7   7   97.45    4.56
  -7   7   6    7.20    1.30
  -7   7   5   77.47    2.91
  -7   7   5   78.46    3.96
  -7   7   4   30.03    1.72
  -7   7   4   28.13    2.30
  -7   7   3   22.72    1.50
  -7   7   3   22.49    2.04
  -7   7   2    4.35    0.75
  -7   7   2    3.08    0.95
  -7   7   1  243.75    6.67
  -7   7   1  252.48    7.81
  -7   7   0    2.10    0.64
  -7   7   0    3.30    1.05
   7  -7   0    2.59    1.00
  -7   7  -1  120.59    4.18
  -7   7  -1  116.98    4.87
   7  -7   1  120.93    4.80
  -7   7  -2   35.29    2.10
   7  -7   2   37.25    2.52
   7  -7   3   88.19    4.02
   7  -7   4   15.93    1.69
   7  -7   5    2.80    0.91
   7  -7   6   43.80    2.87
   7  -7   7   94.70    4.35
   7  -7   8   43.13    2.87
   7  -7   9   74.33    3.87
   7  -7  10   50.37    3.13
   7  -7  11    4.88    1.16
  -7   7 -12   -0.25    0.51
   7  -7  12    0.01    0.82
   7  -7  13   19.36    2.12
   7  -7  14   41.83    3.07
   7  -7  15    2.99    1.11
   7  -7  16    5.61    1.29
   7  -7  17    1.07    0.88
  -7   6  13    0.35    0.70
  -7   6  12   57.72    3.30
  -7   6  11  102.64    4.58
  -7   6  10  100.24    4.50
  -7   6   9   11.83    1.54
  -7   6   8   13.64    1.74
  -7   6   7    2.45    0.97
  -7   6   6   -0.22    0.75
  -7   6   5   -0.31    0.83
  -7   6   4    6.79    1.19
  -7   6   3  155.38    5.65
  -7   6   2   22.88    1.54
  -7   6   2   23.76    2.02
  -7   6   1    7.85    0.92
  -7   6   1    7.56    1.22
  -7   6   0   12.86    1.18
  -7   6   0   13.59    1.55
  -7   6  -1  209.20    6.15
  -7   6  -1  227.72    7.04
   7  -6   1  228.47    6.94
  -7   6  -2   45.65    2.35
  -7   6  -2   44.66    2.72
   7  -6   2   45.49    2.72
  -7   6  -3  103.35    3.89
   7  -6   3  105.10    4.31
   7  -6   4   46.25    2.75
   7  -6   5   80.86    3.74
   7  -6   6    5.78    1.12
   7  -6   7   45.81    2.82
   7  -6   8   12.47    1.54
   7  -6   9   14.49    1.69
   7  -6  10   22.63    2.07
   7  -6  11   29.82    2.36
  -7   6 -12   14.39    1.28
   7  -6  12   15.77    1.83
  -7   6 -13   34.81    2.00
   7  -6  13   38.99    2.83
   7  -6  14    7.16    1.31
   7  -6  15   70.01    3.92
   7  -6  16   28.45    2.54
   7  -6  17   -1.37    1.04
   7  -6  18    3.38    1.18
   7  -6  19   11.05    1.73
  -7   5  13    4.40    1.04
  -7   5  12   15.58    1.67
  -7   5  11    1.82    0.81
  -7   5  10   88.73    4.09
  -7   5   9    1.55    0.88
  -7   5   8  241.51    7.41
  -7   5   8  214.69    6.54
  -7   5   7   10.56    1.41
  -7   5   7    5.86    1.00
  -7   5   6    4.01    1.03
  -7   5   6    1.77    0.65
  -7   5   5    0.71    0.66
  -7   5   5    0.20    0.55
  -7   5   4  142.47    5.32
  -7   5   3   30.71    2.24
  -7   5   2    1.43    0.75
  -7   5   1    1.30    0.79
  -7   5   0    0.79    0.54
  -7   5   0    0.33    0.62
  -7   5  -1   17.18    1.39
  -7   5  -1   14.84    1.55
  -7   5  -2   32.29    1.92
  -7   5  -2   33.60    2.27
   7  -5   2   33.46    2.21
  -7   5  -3  125.26    4.27
  -7   5  -3  122.10    4.65
   7  -5   3  117.13    4.54
  -7   5  -4  313.32    8.21
  -7   5  -4  301.41    8.55
   7  -5   4  304.16    8.54
  -7   5  -5  321.34    8.61
   7  -5   5  327.63    8.95
   7  -5   6    1.02    0.81
   7  -5   7   54.27    2.95
   7  -5   8   62.96    3.23
   7  -5   9  106.25    4.41
   7  -5  10   98.62    4.26
   7  -5  11   17.65    1.79
  -7   5 -12    1.31    0.62
   7  -5  12    0.96    0.81
  -7   5 -13   67.27    2.89
   7  -5  13   66.29    3.56
  -7   5 -14   23.31    1.65
   7  -5  14   23.32    2.13
  -7   5 -15   38.30    2.16
   7  -5  15   37.31    2.68
   7  -5  16    6.84    1.33
   7  -5  17   15.17    1.78
   7  -5  18    0.24    0.79
   7  -5  19    0.32    0.95
  -7   4  13    0.13    0.60
  -7   4  12   15.92    1.72
  -7   4  11   53.74    3.05
  -7   4  10   31.99    2.32
  -7   4   9   32.41    2.32
  -7   4   9   27.46    1.88
  -7   4   8   35.90    2.40
  -7   4   8   31.38    1.98
  -7   4   7   73.78    3.51
  -7   4   7   62.65    2.95
  -7   4   6   24.53    2.02
  -7   4   6   19.76    1.56
  -7   4   5    0.86    0.69
  -7   4   5    0.44    0.49
  -7   4   4  187.64    6.02
  -7   4   4  164.76    5.32
  -7   4   3    0.33    0.66
  -7   4   3   -1.14    0.65
  -7   4   2   50.56    2.82
  -7   4   2   50.26    2.56
  -7   4   1   -0.01    0.51
  -7   4   1   -0.14    0.66
  -7   4   0    0.56    0.63
  -7   4   0    1.63    0.71
  -7   4  -1    4.66    1.02
  -7   4  -1    5.10    0.94
  -7   4  -2  222.10    6.24
  -7   4  -2  221.96    6.70
  -7   4  -2  227.06    6.59
  -7   4  -3    0.80    0.52
  -7   4  -3   -0.38    0.65
  -7   4  -3   -0.18    0.54
   7  -4   3    0.59    0.76
  -7   4  -4   14.79    1.32
  -7   4  -4   15.65    1.48
   7  -4   4   15.10    1.48
  -7   4  -5    0.57    0.59
  -7   4  -5    1.12    0.62
   7  -4   5    0.13    0.70
  -7   4  -6   20.15    1.63
  -7   4  -6   19.55    1.63
   7  -4   6   20.26    1.70
   7  -4   7   56.98    2.92
   7  -4   8   30.45    2.16
   7  -4   9    0.38    0.68
   7  -4  10  233.17    7.12
   7  -4  11   68.56    3.40
  -7   4 -12  138.89    4.55
   7  -4  12  144.07    5.27
  -7   4 -13   -0.13    0.61
   7  -4  13    2.45    0.83
  -7   4 -14  100.13    3.77
   7  -4  14   99.62    4.35
  -7   4 -15  193.48    5.86
   7  -4  15  199.55    6.69
  -7   4 -16   96.41    3.73
  -7   4 -16   96.71    3.92
   7  -4  16   97.33    4.36
   7  -4  17    1.61    0.86
   7  -4  18    2.65    1.02
   7  -4  19    2.24    1.04
  -7   3  14    4.08    1.30
  -7   3  13   39.51    2.57
  -7   3  12    0.26    0.67
  -7   3  11    4.15    0.97
  -7   3  10   -0.21    0.74
  -7   3   9   10.04    1.32
  -7   3   9    7.45    1.04
  -7   3   8    9.70    1.28
  -7   3   8    8.50    1.08
  -7   3   7    0.49    0.72
  -7   3   7    0.88    0.57
  -7   3   6    0.66    0.65
  -7   3   6    0.83    0.46
  -7   3   5    1.42    0.77
  -7   3   5    0.73    0.51
  -7   3   4    6.20    1.09
  -7   3   4    4.07    0.88
  -7   3   3  263.55    7.39
  -7   3   3  232.85    6.75
  -7   3   2  184.33    5.87
  -7   3   2  173.62    5.43
  -7   3   1    6.33    1.01
  -7   3   1    5.74    0.93
  -7   3   0    2.56    0.87
  -7   3   0    1.97    0.75
  -7   3  -1    2.15    0.72
  -7   3  -1    1.51    0.67
  -7   3  -2    4.08    0.83
  -7   3  -2    3.49    0.79
  -7   3  -3  198.62    5.71
  -7   3  -3  193.49    5.95
  -7   3  -3  196.02    5.88
  -7   3  -4  712.08   15.79
  -7   3  -4  706.11   16.05
  -7   3  -4  703.14   15.97
  -7   3  -5   28.66    1.84
  -7   3  -5   28.65    1.92
  -7   3  -5   26.73    1.78
   7  -3   5   28.49    1.98
  -7   3  -6    5.90    0.92
  -7   3  -6    6.51    0.98
  -7   3  -6    7.64    1.06
   7  -3   6    5.90    1.09
  -7   3  -7   -0.54    0.54
  -7   3  -7   -0.23    0.58
  -7   3  -7    0.32    0.59
   7  -3   7    0.01    0.64
  -7   3  -8  154.76    5.03
   7  -3   8  155.94    5.22
   7  -3   9    7.05    1.05
  -7   3  -9    8.05    1.06
  -7   3 -10   31.14    1.97
   7  -3  10   30.71    2.13
  -7   3 -11  121.35    4.35
   7  -3  11  116.64    4.47
  -7   3 -12    0.95    0.60
   7  -3  12    0.02    0.67
  -7   3 -12    0.62    0.55
  -7   3 -13    1.95    0.71
   7  -3  13    1.78    0.84
  -7   3 -13    1.75    0.73
  -7   3 -14    3.47    0.84
   7  -3  14    4.84    1.05
  -7   3 -14    3.92    0.86
  -7   3 -15    7.16    1.00
   7  -3  15    4.69    1.00
  -7   3 -15    4.85    0.77
  -7   3 -16  139.83    4.85
  -7   3 -16  144.47    4.75
   7  -3  16  137.02    5.23
  -7   3 -17   -0.22    0.59
   7  -3  17    1.62    0.74
  -7   3 -18    4.21    0.96
   7  -3  18    5.57    1.18
   7  -3  19    8.12    1.34
  -7   2  15    9.78    1.81
  -7   2  14    2.02    1.04
  -7   2  14    3.29    0.87
  -7   2  13   17.52    1.72
  -7   2  12    0.05    0.60
  -7   2  11    4.76    1.00
  -7   2  10   13.44    1.48
  -7   2  10   11.04    1.26
  -7   2   9    3.44    0.93
  -7   2   9    2.18    0.58
  -7   2   8   96.47    3.93
  -7   2   8   80.36    3.44
  -7   2   7  355.70    9.02
  -7   2   7  291.73    8.24
  -7   2   6    6.80    1.10
  -7   2   6    6.63    1.00
  -7   2   5    6.55    1.11
  -7   2   5    6.71    1.00
  -7   2   4   22.12    1.76
  -7   2   4   17.00    1.41
  -7   2   3  400.54    9.87
  -7   2   3  357.06    9.35
  -7   2   2    2.08    0.79
  -7   2   2    1.31    0.65
  -7   2   1   89.02    3.56
  -7   2   1   78.95    3.24
  -7   2   0    0.87    0.68
  -7   2   0    1.52    0.53
  -7   2  -1    9.28    1.19
  -7   2  -1    7.00    0.96
  -7   2  -2   -0.69    0.66
  -7   2  -2    0.24    0.52
  -7   2  -3   14.56    1.31
  -7   2  -3   12.89    1.33
  -7   2  -4   27.84    1.83
  -7   2  -4   28.48    1.79
  -7   2  -5  253.19    6.95
  -7   2  -5  255.32    7.00
  -7   2  -5  258.95    7.03
  -7   2  -6   66.68    2.89
  -7   2  -6   62.37    2.80
  -7   2  -6   63.69    2.86
  -7   2  -7   93.44    3.63
  -7   2  -7   92.66    3.55
  -7   2  -7   93.79    3.58
   7  -2   7  100.09    3.79
  -7   2  -8    3.91    0.84
  -7   2  -8    4.32    0.79
   7  -2   8    3.09    0.82
  -7   2  -8    4.21    0.76
  -7   2  -9   76.09    3.12
  -7   2  -9   80.94    3.31
   7  -2   9   78.43    3.36
  -7   2 -10  219.60    6.22
  -7   2 -10  219.54    6.42
   7  -2  10  219.87    6.53
  -7   2 -11   41.94    2.19
   7  -2  11   43.00    2.43
  -7   2 -11   41.11    2.30
  -7   2 -12   41.55    2.28
  -7   2 -12   44.43    2.28
   7  -2  12   47.02    2.59
  -7   2 -13   18.40    1.54
  -7   2 -13   20.65    1.53
   7  -2  13   19.99    1.70
  -7   2 -14  145.99    4.97
  -7   2 -14  157.33    4.81
   7  -2  14  149.36    5.23
  -7   2 -15   11.58    1.30
  -7   2 -15   11.51    1.15
   7  -2  15   10.18    1.29
  -7   2 -16   18.72    1.67
  -7   2 -16   22.02    1.51
   7  -2  16   22.48    1.86
  -7   2 -17   16.10    1.56
   7  -2  17   15.08    1.57
  -7   2 -18   18.99    1.76
   7  -2  18   19.50    1.79
  -7   2 -19    4.20    1.04
  -7   1  15    2.07    0.90
  -7   1  14   88.25    4.70
  -7   1  14   93.01    4.07
  -7   1  13   20.39    1.62
  -7   1  13   22.78    2.29
  -7   1  13   21.66    1.91
  -7   1  12   11.82    1.37
  -7   1  11    3.15    0.82
  -7   1  10   70.07    3.37
  -7   1   9    1.08    0.79
  -7   1   8   16.46    1.54
  -7   1   7   42.16    2.48
  -7   1   6   -0.44    0.61
  -7   1   5    4.95    1.02
   7  -1  -5    5.65    0.98
  -7   1   4   57.98    2.87
   7  -1  -4   59.23    2.88
   7  -1  -3  118.74    4.30
  -7   1   3  121.18    4.33
   7  -1  -2  262.43    7.28
  -7   1   2  261.86    7.28
  -7   1   1  377.99    9.44
   7  -1  -1  383.82    9.42
  -7   1   1  344.85    9.11
  -7   1   0   45.72    2.42
   7  -1   0   46.59    2.37
  -7   1   0   44.81    2.28
  -7   1  -1  134.53    4.49
   7  -1   1  128.03    4.35
  -7   1  -1  129.05    4.29
  -7   1  -2   16.14    1.43
  -7   1  -2   14.59    1.28
  -7   1  -3  321.91    8.27
  -7   1  -3  317.31    8.14
  -7   1  -4    6.51    0.98
  -7   1  -4    5.16    0.88
  -7   1  -5   12.55    1.20
  -7   1  -5   11.99    1.18
  -7   1  -6   60.60    2.72
  -7   1  -6   60.00    2.68
  -7   1  -6   62.53    2.70
  -7   1  -7    3.69    0.78
  -7   1  -7    5.92    0.90
  -7   1  -7    5.26    0.82
  -7   1  -8    3.61    0.81
  -7   1  -8    2.55    0.67
  -7   1  -8    2.22    0.64
  -7   1  -9   15.37    1.43
  -7   1  -9   14.87    1.27
  -7   1  -9   13.45    1.25
  -7   1 -10   23.30    1.55
  -7   1 -10   24.14    1.67
  -7   1 -11   58.96    2.69
  -7   1 -11   56.86    2.51
  -7   1 -11   59.54    2.72
  -7   1 -12    0.06    0.52
  -7   1 -12    0.46    0.47
  -7   1 -12   -0.07    0.56
   7  -1  12   -0.50    0.73
  -7   1 -13   13.71    1.36
  -7   1 -13   13.83    1.18
   7  -1  13   10.92    1.26
  -7   1 -13   13.19    1.29
  -7   1 -14   10.05    1.23
  -7   1 -14    6.73    0.97
  -7   1 -14    7.94    0.86
   7  -1  14    8.81    1.20
  -7   1 -15   94.69    3.29
  -7   1 -15   84.48    3.64
  -7   1 -16   54.80    2.31
  -7   1 -16   52.93    2.80
  -7   1 -17   85.09    3.75
  -7   1 -18    2.83    0.86
  -7   1 -19   -0.70    0.74
  -7   1 -20   12.86    1.62
  -7   0  16   -0.97    1.14
  -7   0  15    1.49    1.02
  -7   0  14   67.52    3.94
  -7   0  14   77.45    3.71
  -7   0  13   11.69    1.37
  -7   0  13   13.92    1.88
  -7   0  13   10.64    1.29
  -7   0  12   76.33    3.45
  -7   0  12   89.11    3.95
  -7   0  11    3.54    0.89
  -7   0  10    9.26    1.32
  -7   0   9   45.01    2.62
  -7   0   8  206.51    6.41
  -7   0   7   -0.08    0.61
  -7   0   6  121.15    4.46
   7   0  -6  125.62    4.59
  -7   0   5    9.05    1.13
   7   0  -5    9.31    1.17
   7   0  -4  246.82    7.02
  -7   0   4  230.04    6.76
  -7   0   3    0.33    0.56
   7   0  -3    0.97    0.64
   7   0  -2  673.17   15.10
  -7   0   2  644.35   14.95
   7   0  -1   42.35    2.28
  -7   0   1   40.17    2.23
   7   0   0  149.91    4.77
  -7   0   0  141.41    4.66
   7   0   1   40.73    2.21
  -7   0  -1   42.24    2.22
  -7   0  -2   33.07    1.94
   7   0   2   33.55    1.93
  -7   0  -2   31.77    1.85
  -7   0  -3   25.11    1.70
   7   0   3   23.21    1.56
  -7   0  -3   23.04    1.60
  -7   0  -4  197.51    5.58
   7   0   4  186.65    5.41
  -7   0  -4  185.43    5.44
  -7   0  -5   82.79    3.15
  -7   0  -5   78.34    3.10
  -7   0  -6   14.34    1.25
  -7   0  -6   14.63    1.22
  -7   0  -7  288.80    7.65
  -7   0  -7  292.56    7.42
  -7   0  -7  287.45    7.48
  -7   0  -8  117.86    4.07
  -7   0  -8  109.75    3.72
  -7   0  -8  111.17    3.82
  -7   0  -9  169.43    5.34
  -7   0  -9  170.34    4.94
  -7   0  -9  169.45    5.09
  -7   0 -10   37.82    2.24
  -7   0 -10   37.78    2.22
  -7   0 -10   37.82    1.92
  -7   0 -10   39.13    2.07
  -7   0 -11  119.49    4.19
  -7   0 -11  123.71    3.91
  -7   0 -11  127.93    4.19
  -7   0 -12    5.21    0.92
  -7   0 -12    6.11    0.83
  -7   0 -12    6.34    0.89
  -7   0 -13   43.40    2.38
  -7   0 -13   43.18    1.98
  -7   0 -13   43.40    2.22
  -7   0 -14    2.42    0.70
  -7   0 -14    2.56    0.59
  -7   0 -14    3.41    0.71
  -7   0 -15   30.81    2.09
  -7   0 -15   32.56    1.60
  -7   0 -15   32.40    1.90
  -7   0 -16   39.07    2.43
  -7   0 -16   41.42    1.77
  -7   0 -16   40.43    2.20
  -7   0 -17  104.96    4.30
  -7   0 -18    1.04    0.52
  -7   0 -19   -0.91    0.76
  -7   0 -20    4.59    1.05
  -7   0 -21   25.97    2.22
  -7  -1  16    0.31    1.11
  -7  -1  15   24.10    2.33
  -7  -1  14   22.62    2.24
  -7  -1  14   22.12    1.93
  -7  -1  13   12.10    1.43
  -7  -1  13   13.30    1.69
  -7  -1  13   13.29    1.49
  -7  -1  12   29.72    2.11
  -7  -1  12   29.84    2.45
  -7  -1  12   31.79    2.25
  -7  -1  11    4.86    0.95
  -7  -1  11    3.57    0.92
  -7  -1  10   13.69    1.56
  -7  -1   9   -0.64    0.66
  -7  -1   8    0.66    0.69
  -7  -1   7   16.75    1.55
  -7  -1   6  204.98    6.35
   7   1  -6  219.95    6.63
  -7  -1   5   35.45    2.20
   7   1  -5   42.00    2.43
  -7  -1   4   33.95    2.11
   7   1  -4   43.51    2.40
  -7  -1   3   40.11    2.30
   7   1  -3   47.67    2.51
  -7  -1   2  115.13    4.17
   7   1  -2  129.85    4.44
  -7  -1   1   65.79    2.91
   7   1  -1   71.49    3.09
  -7  -1   0  342.07    8.80
   7   1   0  365.02    9.08
   7   1   1   25.93    1.75
  -7  -1  -1   25.26    1.65
   7   1   2  163.80    4.98
  -7  -1  -2  159.16    4.87
  -7  -1  -3    1.07    0.68
   7   1   3   -0.23    0.48
  -7  -1  -4   20.62    1.47
   7   1   4   21.68    1.47
   7   1   5   35.10    1.87
  -7  -1  -5   31.52    1.79
  -7  -1  -5   35.15    1.94
   7   1   6  445.47   10.35
  -7  -1  -6  450.44   10.42
  -7  -1  -6  448.35   10.54
  -7  -1  -7    0.25    0.47
  -7  -1  -7    0.65    0.48
  -7  -1  -8   11.38    1.19
  -7  -1  -8   10.43    1.00
  -7  -1  -8    8.41    0.99
  -7  -1  -9    2.36    0.65
  -7  -1  -9    3.42    0.64
  -7  -1  -9    1.66    0.61
  -7  -1 -10  253.61    7.08
  -7  -1 -10  250.58    6.85
  -7  -1 -10  258.68    7.04
  -7  -1 -10  235.30    6.22
  -7  -1 -10  246.62    6.57
  -7  -1 -11  110.30    4.02
  -7  -1 -11  121.27    4.27
  -7  -1 -11  111.52    3.49
  -7  -1 -11  110.28    3.75
  -7  -1 -12  144.02    4.80
  -7  -1 -12  138.87    4.02
  -7  -1 -12  141.88    4.42
  -7  -1 -13    3.50    0.74
  -7  -1 -13    4.25    0.61
  -7  -1 -13    3.58    0.66
  -7  -1 -14    1.12    0.63
  -7  -1 -14    1.23    0.43
  -7  -1 -14    0.86    0.41
  -7  -1 -15   57.81    2.94
  -7  -1 -15   55.63    1.96
  -7  -1 -15   54.13    2.44
  -7  -1 -16   33.72    2.26
  -7  -1 -16   34.05    1.30
  -7  -1 -16   31.12    1.83
  -7  -1 -17    2.03    0.72
  -7  -1 -18    4.93    1.05
  -7  -1 -19    0.72    0.76
  -7  -1 -20   13.17    1.61
  -7  -1 -21    3.60    0.92
  -7  -1 -22   25.05    2.34
  -7  -2  16    1.63    0.94
  -7  -2  15   13.13    1.76
  -7  -2  14    8.82    1.28
  -7  -2  14    8.13    1.36
  -7  -2  14    8.50    1.30
  -7  -2  13  133.12    5.40
  -7  -2  13  134.14    5.07
  -7  -2  13  137.11    5.24
  -7  -2  12    3.90    0.86
  -7  -2  12    4.51    1.11
  -7  -2  12    3.61    0.95
  -7  -2  11   58.79    3.06
  -7  -2  11   62.95    3.25
  -7  -2  10    9.26    1.23
  -7  -2  10    8.65    1.24
  -7  -2   9   74.07    3.45
  -7  -2   8   41.10    2.54
  -7  -2   7  171.63    5.64
  -7  -2   6   67.99    3.17
   7   2  -5   71.35    3.25
  -7  -2   5   64.52    3.03
   7   2  -4    1.08    0.63
  -7  -2   4    1.16    0.75
   7   2  -3    0.11    0.55
  -7  -2   3    0.62    0.56
   7   2  -2    4.97    0.98
  -7  -2   2    3.52    0.82
   7   2  -1    1.27    0.64
  -7  -2   1    1.33    0.55
   7   2   0    2.92    0.72
  -7  -2   0    0.18    0.62
  -7  -2  -1  124.10    4.20
   7   2   1  131.72    4.34
  -7  -2  -2   72.47    2.94
   7   2   2   78.12    3.09
  -7  -2  -3   48.27    2.30
   7   2   3   56.94    2.51
  -7  -2  -4  233.59    6.28
   7   2   4  243.53    6.46
   7   2   5  230.47    6.07
  -7  -2  -5  212.02    5.87
   7   2   6  204.92    5.50
  -7  -2  -6  193.16    5.38
   7   2   7  104.86    3.42
  -7  -2  -7  103.36    3.39
  -7  -2  -7  103.31    3.55
   7   2   8  113.44    3.55
  -7  -2  -8  111.52    3.53
  -7  -2  -8  119.96    3.82
  -7  -2  -9   46.14    2.38
  -7  -2  -9   45.20    2.28
  -7  -2  -9   39.64    1.85
  -7  -2  -9   43.65    2.08
  -7  -2 -10  240.12    6.68
  -7  -2 -10  229.52    6.49
  -7  -2 -10  239.02    6.58
  -7  -2 -10  216.54    5.72
  -7  -2 -10  229.19    6.08
  -7  -2 -11   19.52    1.58
  -7  -2 -11   24.75    1.71
  -7  -2 -11   20.30    1.21
  -7  -2 -11   20.81    1.38
  -7  -2 -12  119.56    4.27
  -7  -2 -12  113.00    3.31
  -7  -2 -12  112.50    3.69
  -7  -2 -13    4.68    0.87
  -7  -2 -13    7.03    0.71
  -7  -2 -13    5.45    0.75
  -7  -2 -14  128.20    4.73
  -7  -2 -14  131.85    3.40
  -7  -2 -14  127.33    4.01
  -7  -2 -15    4.69    1.07
  -7  -2 -15    4.03    0.42
  -7  -2 -15    3.23    0.67
  -7  -2 -16    1.64    0.70
  -7  -2 -16    3.37    0.71
  -7  -2 -17    0.69    0.67
  -7  -2 -18  123.09    5.00
  -7  -2 -19   10.46    1.47
  -7  -2 -20   24.18    2.20
  -7  -2 -21    3.08    0.96
  -7  -2 -22   61.87    3.80
  -7  -2 -23    2.95    1.26
  -7  -3  16   34.42    2.75
  -7  -3  15    7.35    1.41
  -7  -3  14   48.25    3.05
  -7  -3  14   42.01    2.72
  -7  -3  13   25.95    2.19
  -7  -3  13   27.66    2.21
  -7  -3  12   17.73    1.77
  -7  -3  12   18.52    1.85
  -7  -3  12   17.81    1.79
  -7  -3  11   16.15    1.66
  -7  -3  11   18.95    1.77
  -7  -3  11   18.29    1.79
  -7  -3  10   30.98    2.20
  -7  -3  10   36.94    2.46
  -7  -3   9   41.48    2.51
  -7  -3   9   41.78    2.59
  -7  -3   8   28.00    2.06
  -7  -3   7   76.30    3.47
  -7  -3   6   79.89    3.53
  -7  -3   5  288.51    8.02
  -7  -3   4    6.06    0.95
   7   3  -4    9.63    1.15
  -7  -3   3   11.42    1.25
   7   3  -3   12.64    1.30
  -7  -3   2    0.56    0.56
   7   3  -2    0.28    0.49
   7   3  -1    2.73    0.68
  -7  -3   1    2.49    0.81
  -7  -3   0    1.78    0.69
   7   3   0    1.62    0.52
  -7  -3  -1   57.39    2.63
   7   3   1   66.52    2.83
  -7  -3  -2    3.43    0.77
   7   3   2    5.18    0.88
   7   3   3    0.29    0.49
  -7  -3  -3    0.24    0.56
  -7  -3  -4    0.21    0.51
   7   3   4   -0.33    0.48
  -7  -3  -5  331.06    8.22
   7   3   5  353.37    8.44
  -7  -3  -6   46.27    2.09
   7   3   6   45.80    2.13
  -7  -3  -7  606.67   13.36
   7   3   7  623.25   13.54
  -7  -3  -8    1.03    0.50
  -7  -3  -8    0.51    0.43
   7   3   8    0.89    0.44
  -7  -3  -9  110.74    3.90
  -7  -3  -9  112.16    3.91
  -7  -3  -9  117.75    3.90
  -7  -3  -9  105.31    3.29
   7   3   9  100.81    3.28
  -7  -3  -9  102.68    3.49
  -7  -3 -10  172.78    5.32
  -7  -3 -10  166.05    5.25
  -7  -3 -10  176.84    5.21
  -7  -3 -10  163.87    4.43
   7   3  10  159.57    4.43
  -7  -3 -10  163.61    4.73
  -7  -3 -11  443.56   10.88
  -7  -3 -11  464.52   10.77
  -7  -3 -11  433.42    9.62
  -7  -3 -11  420.56   10.01
  -7  -3 -12  229.27    6.83
  -7  -3 -12  243.78    6.78
  -7  -3 -12  236.51    5.58
  -7  -3 -12  225.62    6.03
  -7  -3 -13   22.49    1.81
  -7  -3 -13   21.81    1.05
  -7  -3 -13   20.50    1.33
  -7  -3 -14   47.83    2.70
  -7  -3 -14   53.21    1.63
  -7  -3 -14   49.37    2.14
  -7  -3 -15    2.95    0.93
  -7  -3 -15    1.19    0.46
  -7  -3 -16  153.16    5.54
  -7  -3 -16  153.28    4.33
  -7  -3 -17   65.33    3.46
  -7  -3 -18   87.12    4.16
  -7  -3 -19    3.51    1.07
  -7  -3 -20   14.08    1.70
  -7  -3 -21    7.74    1.41
  -7  -3 -22   10.70    1.73
  -7  -3 -23    2.56    1.22
  -7  -4  15   11.83    1.61
  -7  -4  14   52.96    3.07
  -7  -4  14   51.36    3.12
  -7  -4  13    1.06    0.81
  -7  -4  13   -0.74    0.68
  -7  -4  12   62.38    3.20
  -7  -4  12   58.94    3.28
  -7  -4  11    0.30    0.72
  -7  -4  11   -0.36    0.64
  -7  -4  11    1.80    0.80
  -7  -4  10    0.66    0.73
  -7  -4  10    1.04    0.67
  -7  -4  10    1.18    0.77
  -7  -4   9    2.90    0.87
  -7  -4   9    1.40    0.67
  -7  -4   8    2.10    0.85
  -7  -4   8    2.74    0.90
  -7  -4   7   46.51    2.63
  -7  -4   7   50.12    2.78
  -7  -4   6    3.58    0.80
  -7  -4   5   76.26    3.36
   7   4  -4  336.32    8.86
  -7  -4   4  314.67    8.63
   7   4  -3   60.18    2.90
  -7  -4   3   54.84    2.77
  -7  -4   2   16.86    1.53
   7   4  -2   19.59    1.61
   7   4  -1  130.67    4.44
  -7  -4   1  120.64    4.29
   7   4   0   37.83    2.12
  -7  -4   0   36.45    2.05
   7   4   1   60.16    2.72
  -7  -4  -1   55.99    2.60
   7   4   2   51.51    2.45
  -7  -4  -2   51.83    2.41
  -7  -4  -3   61.11    2.61
   7   4   3   61.60    2.66
   7   4   4   30.10    1.79
  -7  -4  -4   29.42    1.72
   7   4   5   20.30    1.40
  -7  -4  -5   17.43    1.31
   7   4   6  116.32    3.73
  -7  -4  -6  110.75    3.62
  -7  -4  -7  344.28    8.44
   7   4   7  337.97    8.21
  -7  -4  -7  335.11    8.07
  -7  -4  -8    1.39    0.53
  -7  -4  -8    1.58    0.50
   7   4   8    1.10    0.49
  -7  -4  -8    0.61    0.63
  -7  -4  -9    5.70    0.90
  -7  -4  -9    6.69    0.99
  -7  -4  -9    5.27    0.66
   7   4   9    5.46    0.69
  -7  -4 -10   20.41    1.60
  -7  -4 -10   20.38    1.62
  -7  -4 -10   20.15    1.47
   7   4  10   19.12    1.19
  -7  -4 -10   17.93    1.16
  -7  -4 -10   17.74    1.25
  -7  -4 -11   91.29    3.72
  -7  -4 -11   91.86    3.49
   7   4  11   86.59    2.76
  -7  -4 -11   94.87    2.83
  -7  -4 -11   85.21    3.02
  -7  -4 -12   19.22    1.52
  -7  -4 -12   17.30    1.62
  -7  -4 -12   18.74    1.02
  -7  -4 -12   16.40    1.16
  -7  -4 -13   58.00    2.79
  -7  -4 -13   62.26    3.07
  -7  -4 -13   61.93    1.90
  -7  -4 -13   57.46    2.30
  -7  -4 -14    3.16    1.00
  -7  -4 -14    1.76    0.46
  -7  -4 -15   11.56    1.40
  -7  -4 -15   12.01    0.96
  -7  -4 -16   39.12    2.61
  -7  -4 -16   37.87    1.67
  -7  -4 -17  239.53    7.70
  -7  -4 -18   27.85    2.32
  -7  -4 -19   31.41    2.58
  -7  -4 -20   -0.98    0.85
  -7  -4 -21    0.99    0.87
  -7  -4 -22    7.49    1.56
  -7  -5  14    0.35    0.94
  -7  -5  13    4.49    1.05
  -7  -5  13    2.84    1.08
  -7  -5  12   19.99    2.00
  -7  -5  12   18.68    1.65
  -7  -5  11    8.64    1.30
  -7  -5  11    9.23    1.21
  -7  -5  10   61.75    2.91
  -7  -5  10   53.50    3.14
  -7  -5   9    0.94    0.77
  -7  -5   9    0.66    0.55
  -7  -5   9    2.40    0.85
  -7  -5   8  208.74    6.72
  -7  -5   8  211.75    6.82
  -7  -5   7   80.66    3.66
  -7  -5   7   79.19    3.69
  -7  -5   6   43.53    2.60
  -7  -5   6   44.96    2.63
  -7  -5   5    3.50    0.89
  -7  -5   4    2.41    0.81
  -7  -5   3    1.48    0.67
  -7  -5   2   17.92    1.55
   7   5  -2   21.34    1.68
   7   5  -1   59.21    2.81
  -7  -5   1   56.04    2.73
  -7  -5   0  292.36    7.91
   7   5   0  315.85    8.17
   7   5   1   28.31    1.83
  -7  -5  -1   25.33    1.72
   7   5   2  760.46   16.27
  -7  -5  -2  698.46   16.04
   7   5   3   39.33    2.09
  -7  -5  -3   37.60    2.06
   7   5   4   38.84    2.02
  -7  -5  -4   36.76    2.00
   7   5   5   22.61    1.51
  -7  -5  -5   21.02    1.49
  -7  -5  -6  628.47   13.88
   7   5   6  635.34   13.99
  -7  -5  -6  630.62   13.90
  -7  -5  -7  382.83    9.22
  -7  -5  -7  378.63    9.01
   7   5   7  393.19    9.19
  -7  -5  -7  395.05    9.59
  -7  -5  -8    1.35    0.55
   7   5   8    2.11    0.57
  -7  -5  -8    1.46    0.53
  -7  -5  -8    1.07    0.57
  -7  -5  -9  116.05    4.01
   7   5   9  115.34    3.61
  -7  -5  -9  115.13    3.52
  -7  -5  -9  113.26    4.13
  -7  -5 -10  210.05    6.03
  -7  -5 -10  199.67    6.13
   7   5  10  191.67    5.21
  -7  -5 -10  202.56    5.17
  -7  -5 -11  102.10    3.68
  -7  -5 -11  102.66    4.03
  -7  -5 -11  106.94    3.10
   7   5  11   97.88    3.13
  -7  -5 -11  104.82    3.41
  -7  -5 -12   40.97    2.18
  -7  -5 -12   41.49    2.47
   7   5  12   40.63    1.63
  -7  -5 -12   36.07    1.77
  -7  -5 -13   -0.46    0.67
  -7  -5 -13    0.20    0.50
  -7  -5 -13    1.48    0.48
  -7  -5 -14   28.18    1.87
  -7  -5 -14   30.13    2.19
  -7  -5 -14   26.84    1.42
  -7  -5 -15   29.62    2.24
  -7  -5 -15   28.50    1.40
  -7  -5 -16   26.49    2.23
  -7  -5 -17   66.39    3.61
  -7  -5 -18   40.78    2.88
  -7  -5 -19   61.90    3.67
  -7  -5 -20    4.25    1.29
  -7  -5 -21    0.74    0.81
  -7  -6  14    0.06    0.84
  -7  -6  13   13.92    1.79
  -7  -6  12    2.86    1.17
  -7  -6  11    0.54    0.61
  -7  -6  11    0.11    0.75
  -7  -6  10   22.03    1.64
  -7  -6  10   21.50    2.12
  -7  -6   9    0.70    0.76
  -7  -6   9    0.83    0.57
  -7  -6   8   22.56    1.96
  -7  -6   8   22.51    1.53
  -7  -6   7   21.44    1.49
  -7  -6   7   23.32    1.99
  -7  -6   6   34.75    2.37
  -7  -6   6   34.49    2.38
  -7  -6   5  219.27    6.84
  -7  -6   5  213.75    6.79
  -7  -6   4   34.86    2.28
  -7  -6   4   37.02    2.37
  -7  -6   3    1.64    0.71
  -7  -6   3    0.62    0.64
  -7  -6   2  246.87    7.19
   7   6  -1   80.57    3.45
  -7  -6   1   78.68    3.40
  -7  -6   0  925.08   20.74
   7   6   0  984.75   20.94
  -7  -6  -1  198.31    6.04
   7   6   1  211.98    6.18
   7   6   2   72.59    3.09
  -7  -6  -2   70.72    3.03
   7   6   3   36.09    2.05
  -7  -6  -3   33.54    1.97
   7   6   4   33.04    1.91
  -7  -6  -4   27.70    1.77
  -7  -6  -5    1.37    0.51
   7   6   5    2.00    0.58
  -7  -6  -5    1.11    0.49
  -7  -6  -5    0.28    0.54
  -7  -6  -6   51.46    2.21
   7   6   6   52.25    2.37
  -7  -6  -6   52.66    2.36
  -7  -6  -6   52.92    2.52
  -7  -6  -7    8.67    0.94
   7   6   7    8.36    0.90
  -7  -6  -7    9.40    0.99
  -7  -6  -7    9.03    1.10
  -7  -6  -8  453.32   10.57
   7   6   8  440.97   10.32
  -7  -6  -8  447.37   10.27
  -7  -6  -8  447.44   10.95
  -7  -6  -9   30.41    1.85
  -7  -6  -9   31.94    1.65
   7   6   9   30.49    1.63
  -7  -6  -9   29.47    1.99
  -7  -6 -10   46.75    2.40
  -7  -6 -10   45.36    2.52
   7   6  10   42.97    1.94
  -7  -6 -11    0.17    0.45
  -7  -6 -11   -0.65    0.68
   7   6  11    0.13    0.36
  -7  -6 -12  235.39    6.40
  -7  -6 -12  231.12    6.98
   7   6  12  225.96    5.64
  -7  -6 -12  224.12    5.88
  -7  -6 -13    0.90    0.59
  -7  -6 -13    0.76    0.73
  -7  -6 -13    0.78    0.44
   7   6  13    0.79    0.31
  -7  -6 -14   51.52    2.52
  -7  -6 -14   54.26    3.02
  -7  -6 -14   48.38    1.94
  -7  -6 -15   12.81    1.64
  -7  -6 -15   10.60    0.81
  -7  -6 -16  140.16    5.50
  -7  -6 -17   23.95    2.22
  -7  -6 -18  174.89    6.60
  -7  -6 -19   10.65    1.64
  -7  -6 -20   15.78    2.03
  -7  -6 -21    1.32    0.99
  -7  -7  14    0.62    0.84
  -7  -7  13   32.90    2.74
  -7  -7  12    2.94    1.03
  -7  -7  11   26.86    2.39
  -7  -7  10   10.69    1.62
  -7  -7   9    1.34    0.88
  -7  -7   9   -0.14    0.49
  -7  -7   8    2.05    0.94
  -7  -7   8    2.62    0.64
  -7  -7   7  191.82    5.09
  -7  -7   7  182.50    6.43
  -7  -7   6    0.53    0.47
  -7  -7   6   -0.53    0.78
  -7  -7   5   34.54    2.40
  -7  -7   4    0.38    0.75
  -7  -7   3   24.34    1.95
  -7  -7   2   19.28    1.69
  -7  -7   1   25.36    1.89
  -7  -7   1   25.79    1.93
  -7  -7   0   75.23    3.34
  -7  -7   0   76.18    3.35
   7   7   1   56.52    2.79
  -7  -7  -1   50.78    2.67
  -7  -7  -2    4.49    0.93
   7   7   2    3.67    0.80
  -7  -7  -3   20.06    1.18
   7   7   3   25.90    1.75
  -7  -7  -3   22.08    1.63
  -7  -7  -4    3.94    0.60
   7   7   4    3.77    0.79
  -7  -7  -4    4.54    0.85
  -7  -7  -4    2.98    0.73
  -7  -7  -5  118.10    3.61
   7   7   5  122.19    4.15
  -7  -7  -5  116.07    4.03
  -7  -7  -6  365.68    8.71
   7   7   6  375.18    9.18
  -7  -7  -6  370.70    9.29
  -7  -7  -7  131.50    4.10
   7   7   7  134.78    4.29
  -7  -7  -7  127.05    4.48
  -7  -7  -8   27.18    1.67
   7   7   8   24.31    1.55
  -7  -7  -8   26.49    1.86
  -7  -7  -9    9.26    1.07
   7   7   9    8.24    0.90
  -7  -7  -9    9.10    1.16
  -7  -7 -10   74.54    3.17
  -7  -7 -10   75.77    3.38
   7   7  10   72.70    2.76
  -7  -7 -11   38.36    2.02
  -7  -7 -11   36.38    2.36
   7   7  11   35.26    1.75
  -7  -7 -12    3.67    0.96
  -7  -7 -12    3.48    0.74
   7   7  12    4.68    0.66
  -7  -7 -13   47.29    2.31
  -7  -7 -13   47.90    2.82
   7   7  13   46.96    1.86
  -7  -7 -13   45.28    1.98
  -7  -7 -14  104.12    3.08
  -7  -7 -14  103.64    4.46
  -7  -7 -14   98.71    3.65
   7   7  14   98.03    2.77
  -7  -7 -14   97.48    3.03
  -7  -7 -15    1.45    0.44
  -7  -7 -15    0.64    0.91
  -7  -7 -15    0.68    0.53
  -7  -7 -16    7.41    1.33
  -7  -7 -17   39.63    2.84
  -7  -7 -18  227.99    7.92
  -7  -7 -19    4.42    1.35
  -7  -7 -20   38.71    3.11
  -7  -8  14   17.17    2.09
  -7  -8  13    6.94    1.63
  -7  -8  12    0.94    0.90
  -7  -8  11   71.15    4.04
  -7  -8  10   35.79    2.78
  -7  -8   9   54.81    3.42
  -7  -8   8   13.79    1.76
  -7  -8   7   27.86    2.38
  -7  -8   7   27.03    1.34
  -7  -8   6   33.40    2.54
  -7  -8   6   36.27    1.48
  -7  -8   5  135.79    3.49
  -7  -8   5  138.15    5.35
  -7  -8   4   21.73    1.00
  -7  -8   4   24.34    2.07
  -7  -8   3    0.75    0.75
  -7  -8   2    5.78    1.12
  -7  -8   1  152.59    5.34
  -7  -8   0   17.08    1.65
  -7  -8   0   16.57    0.84
  -7  -8  -1   51.68    2.75
  -7  -8  -1   50.74    1.69
  -7  -8  -1   52.10    2.29
  -7  -8  -2   -1.21    0.77
  -7  -8  -2   -0.27    0.31
  -7  -8  -2    0.54    0.49
  -7  -8  -3   20.95    1.69
  -7  -8  -3   19.96    1.08
   7   8   3   19.20    1.58
  -7  -8  -3   18.89    1.44
  -7  -8  -4    0.51    0.39
  -7  -8  -4    1.26    0.64
   7   8   4    1.00    0.64
  -7  -8  -4    0.14    0.51
  -7  -8  -5   29.51    1.94
  -7  -8  -5   31.12    1.55
   7   8   5   29.46    1.93
  -7  -8  -5   31.28    1.93
  -7  -8  -6   13.06    1.29
  -7  -8  -6   11.92    1.00
   7   8   6   11.52    1.18
  -7  -8  -6   13.63    1.36
  -7  -8  -7  769.90   16.82
  -7  -8  -7  752.76   16.40
   7   8   7  772.43   16.88
  -7  -8  -7  756.07   17.12
  -7  -8  -8   48.32    2.35
  -7  -8  -8   49.91    2.31
   7   8   8   47.48    2.32
  -7  -8  -8   51.07    2.65
  -7  -8  -9  122.74    4.04
  -7  -8  -9  124.81    4.19
   7   8   9  122.19    4.05
  -7  -8  -9  124.85    4.55
  -7  -8 -10   10.99    1.22
  -7  -8 -10   10.20    1.02
   7   8  10   10.33    1.05
  -7  -8 -10    9.43    1.26
  -7  -8 -11  216.47    5.74
   7   8  11  200.48    5.63
  -7  -8 -11  216.01    6.72
  -7  -8 -12    8.68    0.95
   7   8  12   11.11    1.02
  -7  -8 -12    8.15    1.20
  -7  -8 -12   10.60    1.07
  -7  -8 -13    0.90    0.47
  -7  -8 -13    1.95    0.58
  -7  -8 -13    2.65    0.91
   7   8  13    1.85    0.46
  -7  -8 -14    1.43    0.62
  -7  -8 -14   -0.45    0.78
  -7  -8 -14    1.03    0.46
  -7  -8 -14    1.43    0.48
  -7  -8 -15   53.43    2.50
  -7  -8 -15   57.30    3.35
  -7  -8 -15   52.07    1.89
  -7  -8 -16   30.33    2.52
  -7  -8 -17   32.71    2.68
  -7  -8 -18    8.35    1.47
  -7  -8 -19   52.64    3.54
  -7  -9  12   79.76    4.46
  -7  -9  11    6.84    1.50
  -7  -9  10   99.10    4.89
  -7  -9   9   13.96    1.84
  -7  -9   8   15.56    1.85
  -7  -9   7   20.10    2.08
  -7  -9   6    2.75    0.95
  -7  -9   5    4.46    1.22
  -7  -9   4   43.37    2.84
  -7  -9   3   12.83    1.68
  -7  -9   3   14.76    1.10
  -7  -9   2   53.17    3.07
  -7  -9   2   51.84    2.18
  -7  -9   1    0.46    0.80
  -7  -9   1    1.80    0.55
  -7  -9   0  103.74    4.18
  -7  -9   0   86.03    1.99
  -7  -9   0  101.16    3.30
  -7  -9  -1  178.78    5.90
  -7  -9  -1  173.37    3.90
  -7  -9  -1  177.03    5.08
  -7  -9  -2   51.12    2.79
  -7  -9  -2   47.85    1.58
  -7  -9  -2   49.01    2.32
  -7  -9  -3   30.54    2.10
  -7  -9  -3   28.67    1.27
  -7  -9  -3   33.06    1.89
  -7  -9  -4   18.93    1.68
  -7  -9  -4   19.61    1.10
  -7  -9  -4   18.63    1.47
  -7  -9  -5   33.23    1.58
  -7  -9  -5   31.85    2.07
  -7  -9  -5   34.34    2.04
  -7  -9  -6  137.78    4.06
  -7  -9  -6  137.17    4.70
   7   9   6  143.79    4.81
  -7  -9  -6  137.82    4.71
  -7  -9  -7   72.10    2.76
  -7  -9  -7   73.00    3.11
   7   9   7   74.47    3.17
  -7  -9  -7   70.11    3.20
  -7  -9  -8   48.59    2.28
  -7  -9  -8   49.60    2.46
   7   9   8   49.45    2.48
  -7  -9  -8   51.48    2.71
  -7  -9  -9  572.64   13.17
  -7  -9  -9  579.54   13.17
   7   9   9  567.23   13.20
  -7  -9  -9  572.56   13.83
  -7  -9 -10   25.43    1.79
  -7  -9 -10   28.20    1.73
   7   9  10   22.90    1.57
  -7  -9 -10   25.71    2.05
  -7  -9 -11   25.69    1.61
   7   9  11   24.39    1.59
  -7  -9 -11   23.76    2.02
  -7  -9 -12    0.12    0.48
   7   9  12    0.17    0.44
  -7  -9 -12    0.59    0.74
  -7  -9 -12   -0.78    0.51
  -7  -9 -13   43.70    1.99
   7   9  13   44.32    2.04
  -7  -9 -13   42.67    2.10
  -7  -9 -13   44.74    2.89
  -7  -9 -14    2.55    0.61
  -7  -9 -14    2.42    1.07
  -7  -9 -14    2.28    0.54
  -7  -9 -15  209.69    7.28
  -7  -9 -16   13.59    1.72
  -7  -9 -17   68.71    4.07
  -7  -9 -18    8.99    1.66
  -7  -9 -19   77.75    4.49
  -7 -10  10   86.67    4.71
  -7 -10   9    4.76    1.45
  -7 -10   8    6.47    1.48
  -7 -10   7    0.51    0.91
  -7 -10   6  153.06    6.10
  -7 -10   5    5.07    1.17
  -7 -10   4   24.32    2.21
  -7 -10   4   25.24    1.33
  -7 -10   3   13.84    1.71
  -7 -10   3   11.24    0.95
  -7 -10   2    3.18    1.08
  -7 -10   2    5.05    0.73
  -7 -10   1   -0.05    0.78
  -7 -10   1    0.78    0.44
  -7 -10   0   46.12    2.85
  -7 -10   0   48.35    2.19
  -7 -10  -1   -0.04    0.86
  -7 -10  -1    1.68    0.54
  -7 -10  -2   14.03    1.55
  -7 -10  -2   14.82    1.25
  -7 -10  -3    2.71    0.84
  -7 -10  -3    2.70    0.69
  -7 -10  -4   -0.01    0.65
  -7 -10  -4   -0.19    0.58
  -7 -10  -5    1.46    0.49
  -7 -10  -5    2.86    0.92
  -7 -10  -5    0.24    0.55
  -7 -10  -6  237.82    6.15
  -7 -10  -6  247.39    7.17
  -7 -10  -6  250.52    7.08
  -7 -10  -7   19.19    1.34
  -7 -10  -7   19.79    1.65
  -7 -10  -7   18.45    1.64
  -7 -10  -8   63.37    2.73
  -7 -10  -8   65.06    2.99
   7  10   8   66.66    3.04
  -7 -10  -8   66.55    3.18
  -7 -10  -9   -0.20    0.55
  -7 -10  -9    1.02    0.55
   7  10   9    0.10    0.44
  -7 -10  -9   -1.81    0.82
  -7 -10 -10   66.70    3.05
  -7 -10 -10   71.98    2.99
   7  10  10   62.33    2.88
  -7 -10 -10   67.14    3.40
  -7 -10 -11   11.08    1.11
   7  10  11   10.26    1.11
  -7 -10 -11   10.29    1.46
  -7 -10 -12    0.38    0.62
   7  10  12    0.55    0.52
  -7 -10 -12    0.36    0.78
  -7 -10 -12    0.56    0.47
  -7 -10 -13    3.04    0.63
  -7 -10 -13    3.68    1.01
  -7 -10 -14    1.79    0.57
  -7 -10 -14    1.93    0.87
  -7 -10 -15    2.09    1.14
  -7 -10 -16    3.12    1.14
  -7 -10 -17   11.86    1.82
  -7 -10 -18    7.67    1.56
  -7 -11   9    7.28    1.42
  -7 -11   8   -0.15    1.04
  -7 -11   7   18.49    2.21
  -7 -11   6    7.09    1.54
  -7 -11   5   18.42    2.10
  -7 -11   4  121.89    5.38
  -7 -11   3   37.52    2.83
  -7 -11   2    9.23    1.50
  -7 -11   2    8.39    0.83
  -7 -11   1    1.14    0.91
  -7 -11   1    0.91    0.46
  -7 -11   0   32.03    2.45
  -7 -11   0   35.57    1.85
  -7 -11  -1   99.96    4.46
  -7 -11  -1  102.66    3.57
  -7 -11  -2   21.32    1.96
  -7 -11  -2   23.49    1.62
  -7 -11  -3   20.27    1.91
  -7 -11  -3   20.71    1.54
  -7 -11  -4   -0.02    0.70
  -7 -11  -4   -0.40    0.59
  -7 -11  -5    2.18    0.91
  -7 -11  -5    2.71    0.78
  -7 -11  -6   20.46    1.78
  -7 -11  -6   20.03    1.67
  -7 -11  -7   77.45    3.47
  -7 -11  -7   76.22    3.48
  -7 -11  -8  111.29    4.23
  -7 -11  -8  112.36    4.45
  -7 -11  -9    1.91    0.79
  -7 -11  -9    1.91    0.89
  -7 -11 -10   32.10    2.01
  -7 -11 -10   28.77    2.26
  -7 -11 -11    1.64    0.58
  -7 -11 -11    3.18    1.01
   7  11  11    1.13    0.56
  -7 -11 -12   67.10    3.67
  -7 -11 -12   70.11    2.95
  -7 -11 -13   12.80    1.75
  -7 -11 -13   10.53    1.07
  -7 -11 -14  105.11    4.89
  -7 -11 -15    0.20    0.79
  -7 -11 -16    6.24    1.36
  -7 -11 -17    6.82    1.48
  -7 -12   7   11.60    1.75
  -7 -12   6    6.42    1.44
  -7 -12   5   15.18    1.98
  -7 -12   4   23.75    2.44
  -7 -12   3   46.85    3.30
  -7 -12   2    2.04    1.01
  -7 -12   1   41.07    1.89
  -7 -12   1   39.85    2.87
  -7 -12   0   -0.89    0.44
  -7 -12   0   -0.21    0.97
  -7 -12  -1   89.19    3.30
  -7 -12  -1   89.18    4.30
  -7 -12  -2   40.53    2.15
  -7 -12  -2   40.86    2.78
  -7 -12  -3   85.59    3.42
  -7 -12  -3   87.47    4.09
  -7 -12  -4   58.17    2.84
  -7 -12  -4   62.10    3.33
  -7 -12  -5   13.60    1.43
  -7 -12  -5   14.93    1.62
  -7 -12  -6   91.81    3.87
  -7 -12  -6   91.94    4.04
  -7 -12  -7  169.87    5.75
  -7 -12  -7  167.49    5.75
  -7 -12  -8   18.66    1.79
  -7 -12  -8   19.29    1.74
  -7 -12  -9   19.27    1.87
  -7 -12  -9   23.14    1.87
  -7 -12 -10    0.77    0.89
  -7 -12 -10   -0.40    0.60
  -7 -12 -11   -0.38    0.92
  -7 -12 -11    0.24    0.62
  -7 -12 -12    1.26    0.96
  -7 -12 -12    1.25    0.61
  -7 -12 -13    3.43    1.13
  -7 -12 -13    3.88    0.83
  -7 -12 -14   24.17    2.32
  -7 -12 -15   13.91    1.91
  -7 -12 -16  118.26    5.64
  -7 -13   5   84.46    4.65
  -7 -13   4   55.62    3.71
  -7 -13   3   59.51    3.80
  -7 -13   2   -1.24    1.06
  -7 -13   1   -0.17    0.85
  -7 -13   0    0.18    0.84
  -7 -13  -1  127.11    4.17
  -7 -13  -1  124.52    5.47
  -7 -13  -2    1.63    0.62
  -7 -13  -2    2.50    1.13
  -7 -13  -3    2.54    0.67
  -7 -13  -3    1.84    0.94
  -7 -13  -4   13.29    1.39
  -7 -13  -4   12.40    1.67
  -7 -13  -5    3.28    0.90
  -7 -13  -5    3.25    0.94
  -7 -13  -6   -0.55    0.64
  -7 -13  -6   -0.72    0.88
  -7 -13  -7   62.13    3.25
  -7 -13  -7   63.46    3.41
  -7 -13  -8    2.24    0.86
  -7 -13  -8    2.55    0.92
  -7 -13  -9  175.84    6.27
  -7 -13  -9  173.90    5.86
  -7 -13 -10    1.59    0.81
  -7 -13 -10    1.77    0.71
  -7 -13 -11   18.62    2.01
  -7 -13 -11   17.97    1.53
  -7 -13 -12    8.97    1.49
  -7 -13 -12   10.25    1.21
  -7 -13 -13  158.28    6.39
  -7 -13 -14   20.23    2.25
  -7 -13 -15   27.38    2.65
  -7 -14   2  160.85    6.64
  -7 -14   1    6.94    1.39
  -7 -14   0    0.79    0.89
  -7 -14  -1   55.01    3.55
  -7 -14  -2  115.21    5.23
  -7 -14  -3   88.87    3.60
  -7 -14  -3   84.83    4.35
  -7 -14  -4   14.31    1.47
  -7 -14  -4   13.57    1.76
  -7 -14  -5    0.89    0.72
  -7 -14  -5    1.08    0.92
  -7 -14  -6    2.56    0.94
  -7 -14  -6    2.22    0.92
  -7 -14  -7   17.77    1.82
  -7 -14  -7   15.18    1.70
  -7 -14  -8    0.27    0.79
  -7 -14  -8   -0.01    0.68
  -7 -14  -9    9.57    1.48
  -7 -14  -9    9.86    1.59
  -7 -14 -10   -0.27    0.90
  -7 -14 -10   -0.16    0.62
  -7 -14 -11    7.53    1.43
  -7 -14 -11    7.49    1.16
  -7 -14 -12    9.98    1.62
  -7 -14 -13   40.28    3.06
  -7 -14 -14   13.37    1.93
  -7 -15   0   22.78    2.48
  -7 -15  -1    5.81    1.37
  -7 -15  -2   12.40    1.86
  -7 -15  -3    3.65    1.11
  -7 -15  -4  134.59    5.72
  -7 -15  -5   19.33    1.80
  -7 -15  -5   17.45    2.01
  -7 -15  -6   16.08    1.69
  -7 -15  -6   16.18    1.88
  -7 -15  -7   16.60    1.86
  -7 -15  -7   13.63    1.77
  -7 -15  -8   23.46    2.25
  -7 -15  -8   25.87    2.24
  -7 -15  -9    3.00    1.03
  -7 -15  -9    2.81    0.98
  -7 -15 -10    4.95    1.23
  -7 -15 -10    4.91    1.11
  -7 -15 -11    1.89    1.19
  -7 -15 -12    0.59    1.13
  -7 -15 -13   -0.15    1.05
  -7 -16  -3    6.17    1.44
  -7 -16  -4   10.25    1.66
  -7 -16  -5    1.42    0.94
  -7 -16  -6   12.31    1.67
  -7 -16  -7   14.33    1.84
  -7 -16  -8    0.33    0.84
  -7 -16  -9    0.06    0.88
  -7 -17  -7    3.49    1.21
  -7 -17  -8    6.22    1.42
   8 -12  -1    0.53    0.93
  -8  11   4   18.26    2.27
  -8  11   3    8.98    1.66
  -8  11   2    3.65    1.32
  -8  11   1   13.39    1.94
   8 -11  -1   11.71    1.77
  -8  11   0    3.68    1.32
   8 -11   0    4.91    1.41
  -8  11  -1    1.53    1.15
   8 -11   1    2.99    1.20
   8 -11   2    5.37    1.54
   8 -11   3   -1.37    0.96
   8 -11   4   30.08    2.79
  -8  10  10    0.23    1.12
  -8  10   9    9.25    1.61
  -8  10   8    1.93    1.07
  -8  10   7    7.12    1.45
  -8  10   6    2.39    0.97
  -8  10   5    6.16    1.37
  -8  10   4    0.29    0.90
  -8  10   3   50.93    3.56
  -8  10   2   11.12    1.70
  -8  10   1   12.94    1.89
  -8  10   0   16.96    2.10
   8 -10   0   15.20    1.89
  -8  10  -1   43.37    3.24
   8 -10   1   46.80    3.26
  -8  10  -2   99.94    5.05
   8 -10   2   98.30    4.94
   8 -10   3   -0.43    0.86
   8 -10   4    7.87    1.57
   8 -10   5    3.92    1.20
   8 -10   6    6.92    1.58
   8 -10   7   21.13    2.43
   8 -10   8    4.12    1.42
  -8   9  11    0.06    1.00
  -8   9  10   32.78    2.79
  -8   9   9   27.58    2.65
  -8   9   8    5.86    1.50
  -8   9   7    7.57    1.49
  -8   9   6    2.42    1.21
  -8   9   5   30.26    2.67
  -8   9   4    0.43    0.85
  -8   9   3    0.60    0.92
  -8   9   2    0.59    0.85
  -8   9   1   10.97    1.66
  -8   9   0    1.90    1.05
   8  -9   0   -0.39    0.84
  -8   9  -1    2.38    1.04
   8  -9   1   -1.36    1.08
  -8   9  -2    3.90    1.13
   8  -9   2    5.56    1.30
   8  -9   3  190.34    7.04
   8  -9   4   24.63    2.33
   8  -9   5    1.76    0.86
   8  -9   6    3.66    1.02
   8  -9   7  110.92    5.24
   8  -9   8    0.99    0.95
   8  -9   9   11.45    1.83
   8  -9  10    0.19    0.90
   8  -9  11   19.91    2.36
  -8   8  11    0.51    0.99
  -8   8  10    2.17    0.86
  -8   8   9    3.91    1.16
  -8   8   8   27.75    2.52
  -8   8   7   20.17    2.23
  -8   8   6   10.12    1.74
  -8   8   5   33.82    2.80
  -8   8   4  148.01    6.10
  -8   8   3   15.22    1.85
  -8   8   2    6.62    1.35
  -8   8   1    3.24    1.15
  -8   8   0   26.93    2.40
  -8   8  -1  100.99    4.71
   8  -8   1   92.96    4.50
  -8   8  -2   28.27    2.47
   8  -8   2   29.01    2.40
   8  -8   3    0.12    0.88
  -8   8  -3   -0.05    0.85
   8  -8   4    3.97    1.14
   8  -8   5   10.21    1.51
   8  -8   6   -0.05    0.83
   8  -8   7   17.75    2.02
   8  -8   8    6.01    1.26
   8  -8   9   68.95    3.97
   8  -8  10    0.50    0.91
   8  -8  11    3.91    1.27
   8  -8  12    0.39    0.86
   8  -8  13  114.06    5.47
   8  -8  14   18.88    2.28
  -8   7  12    9.09    1.46
  -8   7  11   39.40    2.94
  -8   7  10   57.01    3.55
  -8   7   9    7.49    1.40
  -8   7   8    0.87    0.91
  -8   7   7   43.28    3.10
  -8   7   6   20.63    2.16
  -8   7   5    7.74    1.42
  -8   7   4   76.47    4.11
  -8   7   3   18.37    1.46
  -8   7   3   19.53    2.03
  -8   7   2   41.06    2.25
  -8   7   2   47.26    3.06
  -8   7   1    2.31    0.67
  -8   7   1    2.86    1.11
  -8   7   0    1.66    0.60
  -8   7   0    1.63    0.90
  -8   7  -1   15.87    1.79
  -8   7  -2  418.92   11.44
   8  -7   2  400.92   11.21
  -8   7  -3   41.69    2.82
   8  -7   3   43.50    2.84
  -8   7  -4   54.42    3.28
   8  -7   4   53.06    3.23
   8  -7   5   22.39    2.11
   8  -7   6   41.63    3.28
   8  -7   7   21.30    2.10
   8  -7   8   30.21    2.47
   8  -7   9    5.52    1.15
   8  -7  10   -0.16    0.83
   8  -7  11   12.88    1.73
   8  -7  12   44.40    3.15
   8  -7  13   13.48    1.85
   8  -7  14  102.49    5.06
   8  -7  15   37.45    3.03
   8  -7  16    8.33    1.62
  -8   6  12    2.12    0.98
  -8   6  11    2.66    1.06
  -8   6  10    1.41    0.84
  -8   6   9  161.56    6.24
  -8   6   8   64.34    3.69
  -8   6   7    4.77    1.25
  -8   6   6    6.33    1.30
  -8   6   5   71.21    3.83
  -8   6   4   55.04    3.33
  -8   6   3   39.44    2.80
  -8   6   2   16.91    1.38
  -8   6   2   20.54    1.98
  -8   6   1   -0.33    0.47
  -8   6   1    0.88    0.85
  -8   6   0    3.83    0.80
  -8   6   0    6.94    1.30
  -8   6  -1   10.23    1.19
  -8   6  -1    9.38    1.40
  -8   6  -2   52.60    3.10
  -8   6  -3   22.16    2.00
   8  -6   3   23.38    2.09
  -8   6  -4  124.16    5.05
   8  -6   4  127.54    5.07
  -8   6  -5   11.72    1.54
   8  -6   5   11.92    1.52
  -8   6  -6   69.16    3.59
   8  -6   6   66.77    3.54
   8  -6   7    0.78    0.90
   8  -6   8  191.25    6.69
   8  -6   9   -0.14    0.81
   8  -6  10  176.30    6.46
   8  -6  11    2.77    1.00
   8  -6  12    7.71    1.40
  -8   6 -13    6.52    0.97
   8  -6  13    5.80    1.27
   8  -6  14  105.11    4.98
   8  -6  15   28.04    2.55
   8  -6  16   19.95    2.21
  -8   6 -16   17.59    1.85
   8  -6  17    2.36    1.04
   8  -6  18    0.14    0.91
  -8   5  13    1.78    0.93
  -8   5  12    4.92    1.09
  -8   5  11   73.01    3.89
  -8   5  10    8.56    1.47
  -8   5   9   30.59    2.47
  -8   5   8    7.18    1.34
  -8   5   7   56.54    3.33
  -8   5   6   12.65    1.73
  -8   5   5   17.06    1.85
  -8   5   4   15.64    1.75
  -8   5   3  148.45    5.64
  -8   5   2   20.99    2.02
  -8   5   1    1.48    0.85
  -8   5   0    1.00    0.53
  -8   5   0    0.06    0.74
  -8   5  -1  102.81    3.88
  -8   5  -1  108.39    4.49
  -8   5  -2    7.53    1.00
  -8   5  -2    7.06    1.26
  -8   5  -3   33.52    2.40
  -8   5  -4   29.66    2.24
   8  -5   4   37.20    2.48
  -8   5  -5   -0.35    0.76
   8  -5   5   -1.41    0.87
  -8   5  -6    0.74    0.72
   8  -5   6    1.00    0.86
   8  -5   7    9.59    1.39
  -8   5  -7    9.52    1.33
   8  -5   8   -0.36    0.83
  -8   5  -8    0.42    0.66
  -8   5  -9   34.29    2.41
   8  -5   9   29.22    2.33
  -8   5 -10   48.40    2.91
   8  -5  10   48.26    2.95
  -8   5 -11   75.39    3.68
   8  -5  11   79.25    3.93
  -8   5 -12   61.33    3.28
   8  -5  12   64.47    3.58
  -8   5 -13    6.16    0.98
   8  -5  13    6.19    1.32
  -8   5 -13    4.95    1.10
  -8   5 -14   37.59    2.23
  -8   5 -14   33.52    2.46
   8  -5  14   37.56    2.79
  -8   5 -15   29.01    1.95
  -8   5 -15   29.18    2.24
   8  -5  15   29.79    2.52
  -8   5 -16   35.85    2.47
   8  -5  16   40.43    2.99
   8  -5  17    2.09    0.93
   8  -5  18   12.90    1.73
   8  -5  19   -0.70    0.89
  -8   4  13    0.01    0.78
  -8   4  12    6.17    1.20
  -8   4  11    2.09    0.79
  -8   4  10   39.22    2.73
  -8   4   9  139.29    5.47
  -8   4   8   94.03    4.31
  -8   4   7   25.82    2.18
  -8   4   6   -0.15    0.70
  -8   4   5   10.68    1.42
  -8   4   4    9.64    1.42
  -8   4   3   46.84    2.87
  -8   4   2   13.71    1.59
  -8   4   1    0.55    0.76
  -8   4   0    7.48    1.27
  -8   4  -1    5.36    1.10
  -8   4  -2   16.72    1.44
  -8   4  -2   16.08    1.66
  -8   4  -3  588.83   13.76
  -8   4  -3  587.59   14.28
  -8   4  -4    0.85    0.65
  -8   4  -4    0.62    0.74
  -8   4  -5  677.24   16.00
   8  -4   5  684.49   16.14
  -8   4  -6    1.21    0.83
   8  -4   6    1.90    0.90
  -8   4  -7  220.47    6.88
   8  -4   7  227.88    7.10
  -8   4  -8   66.65    3.24
   8  -4   8   65.04    3.35
  -8   4  -9   92.77    3.95
   8  -4   9   96.76    4.20
   8  -4  10    4.36    1.01
  -8   4 -10    4.52    0.96
  -8   4 -11   76.57    3.57
   8  -4  11   80.67    3.83
   8  -4  12   -0.39    0.73
  -8   4 -12   -1.07    0.59
  -8   4 -13   82.00    3.47
  -8   4 -13   79.35    3.64
   8  -4  13   85.23    4.02
  -8   4 -14   33.28    2.13
  -8   4 -14   33.06    2.26
   8  -4  14   32.41    2.50
  -8   4 -15    1.89    0.70
   8  -4  15    2.00    0.94
  -8   4 -15    2.12    0.77
  -8   4 -16   14.93    1.50
   8  -4  16   14.74    1.76
  -8   4 -16   14.93    1.57
   8  -4  17    0.42    0.77
   8  -4  18    1.80    1.09
   8  -4  19    4.66    1.26
  -8   3  13    1.49    0.69
  -8   3  12    5.92    1.20
  -8   3  11    1.10    0.86
  -8   3  10   50.72    3.06
  -8   3   9   30.18    2.36
  -8   3   8   78.72    3.82
  -8   3   7    1.50    0.82
  -8   3   6   55.11    3.10
  -8   3   5    0.15    0.66
  -8   3   4  165.53    5.80
  -8   3   3   71.26    3.51
  -8   3   2   64.66    3.29
  -8   3   1   -0.05    0.70
  -8   3   0    2.78    0.90
  -8   3  -1    7.78    1.25
  -8   3  -2   70.33    3.37
  -8   3  -3    1.04    0.71
  -8   3  -4   43.86    2.41
  -8   3  -4   42.07    2.49
  -8   3  -5   71.85    3.17
  -8   3  -5   65.75    3.16
  -8   3  -6   12.97    1.36
  -8   3  -7   30.09    2.07
  -8   3  -8   16.45    1.54
   8  -3   8   15.28    1.58
  -8   3  -9  230.64    6.86
   8  -3   9  228.44    7.10
  -8   3 -10   18.00    1.60
   8  -3  10   20.58    1.85
  -8   3 -11  246.99    7.23
   8  -3  11  250.12    7.60
  -8   3 -12    5.15    1.03
   8  -3  12    2.51    0.91
  -8   3 -13    0.59    0.65
  -8   3 -13    1.08    0.72
   8  -3  13    1.04    0.79
  -8   3 -14   19.23    1.67
  -8   3 -14   21.45    1.74
   8  -3  14   22.83    2.05
  -8   3 -15   46.77    2.63
  -8   3 -15   48.86    2.65
   8  -3  15   47.93    2.95
  -8   3 -16    0.80    0.59
  -8   3 -16    1.44    0.69
   8  -3  16    0.01    0.88
  -8   3 -17    1.06    0.66
   8  -3  17    1.35    0.85
  -8   3 -18    3.91    0.93
   8  -3  18    4.60    1.10
   8  -3  19    4.11    1.02
  -8   2  13   62.97    3.47
  -8   2  12    0.05    0.71
  -8   2  11    3.04    0.99
  -8   2  10   65.14    3.45
  -8   2   9   11.62    1.44
  -8   2   8   41.35    2.66
  -8   2   7    0.52    0.70
  -8   2   6   10.55    1.38
  -8   2   5    7.56    1.22
  -8   2   4   53.61    2.91
  -8   2   3    1.72    0.82
  -8   2   3    1.77    0.76
  -8   2   2  383.66    9.97
  -8   2   2  356.29    9.49
  -8   2   1    0.69    0.67
  -8   2   1    0.82    0.68
  -8   2   0   88.60    3.79
  -8   2   0   83.40    3.48
  -8   2  -1   -1.44    0.83
  -8   2  -1   -0.75    0.61
  -8   2  -2  160.26    5.36
  -8   2  -2  154.45    5.13
  -8   2  -3    6.45    1.11
  -8   2  -3    7.27    1.06
  -8   2  -4  311.04    8.34
  -8   2  -4  285.81    7.94
  -8   2  -5    4.73    0.83
  -8   2  -5    5.95    0.95
  -8   2  -5    4.92    0.98
  -8   2  -6   93.98    3.74
  -8   2  -6   94.23    3.77
  -8   2  -7    1.03    0.64
  -8   2  -8  222.82    6.56
  -8   2  -9   24.63    1.80
  -8   2 -10   30.49    1.99
  -8   2 -11    6.35    0.99
  -8   2 -12   36.32    2.15
   8  -2  12   37.93    2.43
  -8   2 -13   31.08    2.08
  -8   2 -13   32.47    2.04
   8  -2  13   34.67    2.36
  -8   2 -14    1.93    0.72
  -8   2 -14    2.00    0.68
   8  -2  14    4.77    1.06
  -8   2 -15  112.26    4.35
  -8   2 -15  116.30    4.16
   8  -2  15  107.62    4.52
  -8   2 -16   40.13    2.20
  -8   2 -16   37.34    2.40
  -8   2 -17   22.34    1.91
  -8   2 -18    0.54    0.69
  -8   2 -19    6.95    1.22
  -8   1  14    5.63    1.48
  -8   1  14    3.79    1.00
  -8   1  13   52.77    3.22
  -8   1  12    0.09    0.76
  -8   1  11   62.76    3.38
  -8   1  10    5.37    1.07
  -8   1   9   60.37    3.24
  -8   1   8  117.63    4.70
  -8   1   7  423.00   11.14
  -8   1   6   18.58    1.76
  -8   1   5    3.31    0.84
  -8   1   4   60.88    3.07
  -8   1   3  158.84    5.26
  -8   1   3  128.59    4.76
  -8   1   2  329.48    8.69
  -8   1   2  292.65    8.30
   8  -1  -1  201.81    6.19
  -8   1   1  202.78    6.24
  -8   1   1  192.00    6.00
  -8   1   0  144.27    4.87
   8  -1   0  143.31    4.84
  -8   1   0  114.77    4.38
  -8   1  -1   29.95    2.04
  -8   1  -1   28.56    1.91
  -8   1  -2   11.53    1.31
  -8   1  -2   14.92    1.36
  -8   1  -3   57.53    2.85
  -8   1  -3   54.46    2.65
  -8   1  -4  148.95    4.92
  -8   1  -4  141.06    4.80
  -8   1  -5    4.18    0.94
  -8   1  -5    2.10    0.73
  -8   1  -6  111.24    4.07
  -8   1  -6  107.55    4.03
  -8   1  -7  111.79    4.13
  -8   1  -7  105.43    3.98
  -8   1  -7  108.41    4.01
  -8   1  -8  291.22    7.94
  -8   1  -8  301.37    8.05
  -8   1  -9   14.08    1.36
  -8   1  -9   15.01    1.38
  -8   1 -10  278.21    7.52
  -8   1 -10  272.09    7.61
  -8   1 -11   21.15    1.60
  -8   1 -12    7.38    1.02
  -8   1 -12    6.21    0.93
  -8   1 -13    5.80    0.95
  -8   1 -13    5.43    0.95
  -8   1 -14    2.88    0.74
  -8   1 -14    2.55    0.75
  -8   1 -15    2.75    0.67
  -8   1 -15    4.13    0.96
  -8   1 -16  149.94    4.63
  -8   1 -16  141.47    5.18
  -8   1 -17   14.20    1.54
  -8   1 -18   10.81    1.68
  -8   1 -19   16.88    1.70
  -8   1 -20    0.70    0.72
  -8   0  14    6.85    1.48
  -8   0  14    6.63    1.27
  -8   0  13   22.36    2.41
  -8   0  13   18.42    1.87
  -8   0  12    1.57    0.80
  -8   0  11    0.39    0.70
  -8   0  10   11.25    1.49
  -8   0   9   85.62    3.92
  -8   0   8    6.33    1.08
  -8   0   7   40.14    2.49
  -8   0   6   14.83    1.54
  -8   0   5   66.94    3.28
  -8   0   4    9.52    1.29
  -8   0   3  365.20    9.67
   8   0  -2   19.08    1.67
  -8   0   2   17.91    1.65
  -8   0   1 1806.98   38.23
   8   0  -1 1924.70   38.48
   8   0   0   50.40    2.63
  -8   0   0   49.55    2.61
   8   0   1  171.08    5.44
  -8   0  -1  165.59    5.37
   8   0   2   32.66    2.02
  -8   0  -2   32.75    2.07
  -8   0  -2   31.97    2.05
  -8   0  -3   64.68    2.95
   8   0   3   61.92    2.83
  -8   0  -3   61.39    2.82
  -8   0  -4    1.27    0.69
  -8   0  -4    0.61    0.48
   8   0   4    1.36    0.60
  -8   0  -5   11.37    1.25
  -8   0  -5    6.86    0.94
  -8   0  -6   14.71    1.33
  -8   0  -6   12.74    1.25
  -8   0  -7  102.79    3.74
  -8   0  -7   98.78    3.73
  -8   0  -8    0.43    0.49
  -8   0  -8    0.03    0.58
  -8   0  -8    1.04    0.66
  -8   0  -9  249.02    6.80
  -8   0  -9  247.41    6.94
  -8   0 -10   52.91    2.49
  -8   0 -10   53.57    2.62
  -8   0 -11   74.61    3.02
  -8   0 -11   76.56    3.21
  -8   0 -12    0.86    0.63
  -8   0 -12    0.52    0.52
  -8   0 -12    0.59    0.47
  -8   0 -13    0.69    0.56
  -8   0 -13    0.65    0.51
  -8   0 -13    0.76    0.51
  -8   0 -14   12.51    1.11
  -8   0 -14   11.65    1.34
  -8   0 -15   42.30    2.04
  -8   0 -15   40.96    2.51
  -8   0 -16  170.17    4.78
  -8   0 -16  163.50    5.74
  -8   0 -17    6.27    1.10
  -8   0 -18    2.83    0.85
  -8   0 -19    4.93    0.99
  -8   0 -20    3.55    0.96
  -8   0 -21    2.55    1.02
  -8  -1  15   11.90    1.94
  -8  -1  14   19.54    2.16
  -8  -1  14   18.47    1.87
  -8  -1  13    6.85    1.47
  -8  -1  13    4.90    1.17
  -8  -1  13    4.20    1.13
  -8  -1  12   23.53    1.94
  -8  -1  12   26.39    2.20
  -8  -1  11   28.53    2.28
  -8  -1  10    0.79    0.73
  -8  -1   9   12.86    1.51
  -8  -1   8  144.54    5.28
  -8  -1   7  106.45    4.35
  -8  -1   6   26.42    2.01
  -8  -1   5   14.83    1.52
  -8  -1   4   33.84    2.23
  -8  -1   3  156.32    5.30
  -8  -1   2   79.12    3.51
   8   1  -2   95.65    3.88
   8   1  -1  271.57    7.58
  -8  -1   1  245.06    7.22
   8   1   0   40.43    2.35
  -8  -1   0   39.57    2.31
   8   1   1   82.23    3.41
  -8  -1  -1   75.19    3.27
  -8  -1  -2   16.11    1.46
   8   1   2   18.47    1.50
  -8  -1  -3   11.51    1.21
   8   1   3   12.54    1.27
  -8  -1  -4    8.55    1.08
   8   1   4    6.34    0.89
   8   1   5  503.60   11.80
  -8  -1  -5  496.29   11.81
  -8  -1  -5  507.20   11.94
   8   1   6   23.90    1.63
  -8  -1  -6   21.83    1.60
  -8  -1  -6   22.71    1.67
  -8  -1  -7  163.91    5.01
  -8  -1  -7  166.21    5.14
  -8  -1  -8    3.37    0.75
  -8  -1  -8    2.62    0.71
  -8  -1  -9  123.94    4.39
  -8  -1  -9  119.13    3.97
  -8  -1  -9  115.97    4.08
  -8  -1 -10    8.25    0.96
  -8  -1 -10    9.49    1.05
  -8  -1 -11   55.08    2.75
  -8  -1 -11   57.85    2.46
  -8  -1 -11   54.05    2.59
  -8  -1 -12   11.04    1.28
  -8  -1 -12   10.67    1.01
  -8  -1 -12   11.97    1.18
  -8  -1 -13   15.48    1.52
  -8  -1 -13   14.20    1.16
  -8  -1 -13   15.51    1.37
  -8  -1 -14   33.24    2.23
  -8  -1 -14   35.04    1.74
  -8  -1 -14   34.91    2.02
  -8  -1 -15   30.84    2.21
  -8  -1 -15   34.58    1.64
  -8  -1 -15   31.34    1.92
  -8  -1 -16    1.86    0.76
  -8  -1 -16    2.04    0.46
  -8  -1 -16    0.92    0.53
  -8  -1 -17   90.90    4.10
  -8  -1 -18   18.48    1.80
  -8  -1 -19   11.39    1.49
  -8  -1 -20    5.06    1.17
  -8  -1 -21    9.61    1.51
  -8  -1 -22   24.57    2.35
  -8  -2  15    0.49    0.89
  -8  -2  14   26.33    2.40
  -8  -2  14   25.76    2.29
  -8  -2  13    6.34    1.11
  -8  -2  13    7.50    1.46
  -8  -2  13    8.66    1.46
  -8  -2  12   14.45    1.64
  -8  -2  12   14.17    1.81
  -8  -2  12   14.56    1.88
  -8  -2  11    0.34    0.67
  -8  -2  11    0.05    0.72
  -8  -2  10    5.88    1.14
  -8  -2   9   17.02    1.75
  -8  -2   8   21.66    1.92
  -8  -2   7   -0.05    0.76
  -8  -2   6  265.31    7.80
  -8  -2   5    0.55    0.67
  -8  -2   4    6.82    1.13
  -8  -2   3   16.30    1.53
  -8  -2   2  137.38    4.83
   8   2  -2  143.59    5.00
  -8  -2   1   62.46    2.96
   8   2  -1   65.29    3.07
  -8  -2   0  184.02    5.87
   8   2   0  204.80    6.13
   8   2   1    1.32    0.67
  -8  -2  -1   -0.05    0.60
   8   2   2   15.94    1.72
  -8  -2  -2   14.00    1.34
   8   2   3   -0.10    0.52
  -8  -2  -3   -0.11    0.55
   8   2   4   27.17    1.79
  -8  -2  -4   24.39    1.68
   8   2   5  105.53    3.76
  -8  -2  -5   98.05    3.60
  -8  -2  -6  157.37    4.83
   8   2   6  159.98    4.92
   8   2   7  228.63    6.19
  -8  -2  -7  219.71    6.10
  -8  -2  -7  222.12    6.33
  -8  -2  -8    1.08    0.57
  -8  -2  -8    1.83    0.66
   8   2   8    1.21    0.53
  -8  -2  -9    0.60    0.47
  -8  -2  -9    0.28    0.52
  -8  -2  -9    0.22    0.50
  -8  -2 -10   60.46    2.84
  -8  -2 -10   54.12    2.35
  -8  -2 -10   58.53    2.60
  -8  -2 -11  111.33    4.18
  -8  -2 -11  111.37    3.58
  -8  -2 -11  109.40    3.82
  -8  -2 -12    4.74    1.00
  -8  -2 -12    6.37    0.77
  -8  -2 -12    5.77    0.88
  -8  -2 -13    4.90    0.98
  -8  -2 -13    5.86    0.74
  -8  -2 -13    5.85    0.84
  -8  -2 -14   53.74    2.95
  -8  -2 -14   57.78    2.19
  -8  -2 -14   55.06    2.54
  -8  -2 -15   21.20    1.88
  -8  -2 -15   19.10    1.09
  -8  -2 -15   19.88    1.46
  -8  -2 -16   49.63    2.95
  -8  -2 -16   51.69    1.76
  -8  -2 -16   47.43    2.33
  -8  -2 -17   22.98    2.01
  -8  -2 -18   27.50    2.25
  -8  -2 -19    7.42    1.31
  -8  -2 -20    2.51    1.11
  -8  -2 -21    1.88    0.97
  -8  -2 -22    5.43    1.23
  -8  -2 -23   50.19    3.57
  -8  -3  15   -0.46    0.89
  -8  -3  14   27.34    2.41
  -8  -3  13   60.77    3.47
  -8  -3  13   56.03    3.27
  -8  -3  13   61.78    3.53
  -8  -3  12   50.13    3.06
  -8  -3  12   45.37    2.96
  -8  -3  12   51.58    3.17
  -8  -3  11    7.39    1.24
  -8  -3  11    9.63    1.46
  -8  -3  11    9.69    1.42
  -8  -3  10    2.58    0.89
  -8  -3  10    1.95    0.81
  -8  -3   9    2.82    0.97
  -8  -3   8    1.58    0.70
  -8  -3   7   17.65    1.74
  -8  -3   6   17.51    1.66
  -8  -3   5   18.02    1.68
  -8  -3   4    2.70    0.92
  -8  -3   3   14.23    1.44
  -8  -3   2   11.29    1.35
   8   3  -1   18.82    1.62
  -8  -3   1   16.54    1.51
  -8  -3   0  148.56    5.06
   8   3   0  169.17    5.39
   8   3   1   11.84    1.28
  -8  -3  -1    7.21    1.06
  -8  -3  -2   35.17    2.09
   8   3   2   38.32    2.22
   8   3   3    0.34    0.49
  -8  -3  -3    0.26    0.55
  -8  -3  -4  668.93   15.43
   8   3   4  726.44   15.76
   8   3   5   10.79    1.16
  -8  -3  -5    9.57    1.08
  -8  -3  -6  182.38    5.37
   8   3   6  193.47    5.59
   8   3   7   18.02    1.39
  -8  -3  -7   16.52    1.29
  -8  -3  -8    0.83    0.46
   8   3   8    2.38    0.64
  -8  -3  -8    2.40    0.71
  -8  -3  -9    4.26    0.83
  -8  -3  -9    2.84    0.68
   8   3   9    2.55    0.53
  -8  -3  -9    4.30    0.76
  -8  -3 -10   15.69    1.48
  -8  -3 -10   14.49    1.35
  -8  -3 -10   16.03    1.19
   8   3  10   13.10    1.08
  -8  -3 -10   14.41    1.25
  -8  -3 -11    0.23    0.61
  -8  -3 -11    0.20    0.42
  -8  -3 -11    0.08    0.45
  -8  -3 -12   43.67    2.52
  -8  -3 -12   44.13    1.91
  -8  -3 -12   41.79    2.11
  -8  -3 -13  289.79    8.20
  -8  -3 -13  296.28    6.82
  -8  -3 -13  264.30    7.23
  -8  -3 -14   11.71    1.56
  -8  -3 -14   10.93    0.83
  -8  -3 -14    9.62    1.00
  -8  -3 -15   96.35    4.18
  -8  -3 -15  100.52    2.78
  -8  -3 -15   89.21    3.33
  -8  -3 -16   87.24    4.04
  -8  -3 -16   88.07    3.19
  -8  -3 -17   80.67    3.93
  -8  -3 -18   25.92    2.27
  -8  -3 -19    0.52    0.86
  -8  -3 -20    3.88    1.14
  -8  -3 -21    5.91    1.20
  -8  -3 -22    1.56    0.89
  -8  -4  14    8.13    1.43
  -8  -4  13   19.61    2.01
  -8  -4  13   23.23    2.08
  -8  -4  12    0.39    0.74
  -8  -4  12    0.10    0.79
  -8  -4  11   36.54    2.53
  -8  -4  11   32.23    2.49
  -8  -4  11   37.49    2.71
  -8  -4  10    3.46    1.03
  -8  -4  10    2.34    0.98
  -8  -4  10    1.20    0.95
  -8  -4   9   -0.43    0.96
  -8  -4   9    0.44    0.72
  -8  -4   8    4.27    1.02
  -8  -4   8    5.36    1.09
  -8  -4   7   39.14    2.58
  -8  -4   6   32.89    2.28
  -8  -4   5   13.09    1.45
  -8  -4   4    1.33    0.65
  -8  -4   3   76.34    3.50
  -8  -4   2   26.71    1.98
   8   4  -1   75.09    3.36
  -8  -4   1   67.89    3.17
   8   4   0   74.32    3.29
  -8  -4   0   65.44    3.03
   8   4   1   34.09    2.10
  -8  -4  -1   31.39    2.00
  -8  -4  -2    8.67    1.08
   8   4   2    9.00    1.07
  -8  -4  -3   15.06    1.37
   8   4   3   16.16    1.41
   8   4   4   15.36    1.36
  -8  -4  -4   16.09    1.36
  -8  -4  -5  243.28    6.73
   8   4   5  257.91    6.94
  -8  -4  -6  799.66   17.62
   8   4   6  833.27   17.88
  -8  -4  -7  106.70    3.67
   8   4   7  111.49    3.82
  -8  -4  -8   69.19    3.00
  -8  -4  -8   66.58    2.68
   8   4   8   67.93    2.79
  -8  -4  -9    8.07    1.06
  -8  -4  -9    6.37    0.96
   8   4   9    7.04    0.86
  -8  -4  -9    6.61    0.82
  -8  -4 -10  203.50    6.19
   8   4  10  194.61    5.42
  -8  -4 -10  203.83    5.41
  -8  -4 -10  196.67    5.70
  -8  -4 -11    1.63    0.75
  -8  -4 -11    1.05    0.58
  -8  -4 -11    1.06    0.42
  -8  -4 -11    1.16    0.45
   8   4  11    1.99    0.53
  -8  -4 -12  198.96    6.26
  -8  -4 -12  201.29    5.11
  -8  -4 -12  179.16    5.37
  -8  -4 -13    1.60    0.74
  -8  -4 -13    0.70    0.40
  -8  -4 -13    0.32    0.40
  -8  -4 -14   54.64    3.04
  -8  -4 -14   59.78    2.01
  -8  -4 -14   53.64    2.39
  -8  -4 -15    0.89    0.91
  -8  -4 -15    0.21    0.28
  -8  -4 -15    0.51    0.50
  -8  -4 -16  162.94    5.97
  -8  -4 -17    7.78    1.40
  -8  -4 -18   35.15    2.65
  -8  -4 -19   12.31    1.68
  -8  -4 -20    0.78    0.89
  -8  -4 -21    1.23    0.91
  -8  -4 -22   19.70    2.26
  -8  -5  14   22.80    2.18
  -8  -5  13   18.92    2.07
  -8  -5  12    5.36    1.27
  -8  -5  12    7.58    1.20
  -8  -5  11   17.77    1.92
  -8  -5  11   17.91    1.71
  -8  -5  10    0.49    0.77
  -8  -5  10   -0.56    0.71
  -8  -5  10    0.93    0.89
  -8  -5   9   16.31    1.79
  -8  -5   9   15.63    1.54
  -8  -5   9   15.98    1.77
  -8  -5   8   14.79    1.66
  -8  -5   8   13.93    1.62
  -8  -5   7    8.97    1.44
  -8  -5   7   10.46    1.49
  -8  -5   6    3.80    0.91
  -8  -5   5  412.42   10.92
  -8  -5   4    5.55    1.04
  -8  -5   3    1.40    0.79
  -8  -5   2    8.29    1.13
  -8  -5   1   42.95    2.49
  -8  -5   0    0.16    0.64
   8   5   0    0.48    0.58
  -8  -5  -1   10.46    1.24
   8   5   1    8.39    1.07
  -8  -5  -2    1.03    0.60
   8   5   2    1.56    0.60
   8   5   3   36.86    2.17
  -8  -5  -3   32.53    2.05
  -8  -5  -4    0.87    0.65
   8   5   4    0.50    0.51
   8   5   5  143.56    4.64
  -8  -5  -5  134.79    4.50
  -8  -5  -6   55.89    2.57
   8   5   6   54.29    2.55
  -8  -5  -7  273.90    7.37
   8   5   7  277.70    7.37
  -8  -5  -7  293.55    7.44
  -8  -5  -8    4.74    0.81
  -8  -5  -8    3.92    0.79
   8   5   8    3.84    0.76
  -8  -5  -8    2.86    0.78
  -8  -5  -9  115.67    4.04
  -8  -5  -9  103.09    4.02
   8   5   9  101.22    3.60
  -8  -5  -9  110.58    3.60
  -8  -5 -10    4.00    0.89
  -8  -5 -10    3.84    0.63
   8   5  10    4.89    0.72
  -8  -5 -11   28.05    2.02
  -8  -5 -11   29.29    1.90
   8   5  11   27.87    1.58
  -8  -5 -11   29.19    1.57
  -8  -5 -11   24.16    1.61
  -8  -5 -12  161.95    5.17
  -8  -5 -12  161.00    5.52
   8   5  12  147.55    4.33
  -8  -5 -12  166.09    4.40
  -8  -5 -12  152.68    4.65
  -8  -5 -13  172.31    5.93
  -8  -5 -13  177.72    4.53
  -8  -5 -13  164.54    4.92
  -8  -5 -14  127.72    4.96
  -8  -5 -14  123.53    3.89
  -8  -5 -15   14.69    1.64
  -8  -5 -15   13.97    1.12
  -8  -5 -16  141.12    5.50
  -8  -5 -17   30.78    2.48
  -8  -5 -18   71.00    3.89
  -8  -5 -19    2.72    1.02
  -8  -5 -20    0.43    0.89
  -8  -5 -21    3.87    1.13
  -8  -6  14   23.74    2.38
  -8  -6  13    1.24    0.95
  -8  -6  12   58.73    3.56
  -8  -6  11    0.73    0.90
  -8  -6  10   12.71    1.61
  -8  -6  10   12.21    1.34
  -8  -6   9   27.20    1.87
  -8  -6   9   25.14    2.28
  -8  -6   8   67.70    3.00
  -8  -6   8   65.56    3.58
  -8  -6   7   30.29    2.39
  -8  -6   7   29.29    2.33
  -8  -6   6  108.58    4.56
  -8  -6   6  103.44    4.51
  -8  -6   5  143.20    5.34
  -8  -6   5  145.01    5.42
  -8  -6   4   14.26    1.62
  -8  -6   3   40.56    2.54
  -8  -6   2    0.07    0.62
  -8  -6   1   22.05    1.82
  -8  -6   0   46.17    2.59
  -8  -6  -1   59.92    2.97
  -8  -6  -2    1.25    0.63
   8   6   2    1.67    0.66
   8   6   3  339.69    8.73
  -8  -6  -3  313.07    8.52
   8   6   4    0.36    0.51
  -8  -6  -4    0.36    0.53
   8   6   5  540.23   12.60
  -8  -6  -5  526.51   12.49
  -8  -6  -6   38.16    1.97
  -8  -6  -6   35.88    2.03
   8   6   6   35.62    2.06
  -8  -6  -7  241.82    6.59
  -8  -6  -7  245.49    6.67
   8   6   7  249.01    6.77
  -8  -6  -7  247.53    6.99
  -8  -6  -8   85.81    3.32
  -8  -6  -8   83.56    3.20
   8   6   8   90.42    3.35
  -8  -6  -8   92.85    3.71
  -8  -6  -9  112.92    3.99
  -8  -6  -9  107.84    3.63
   8   6   9  107.01    3.70
  -8  -6  -9  102.99    4.10
  -8  -6 -10   12.11    1.24
  -8  -6 -10    9.61    1.25
   8   6  10    9.19    0.95
  -8  -6 -10   11.56    1.03
  -8  -6 -11   79.47    3.58
   8   6  11   72.86    2.81
  -8  -6 -11   76.25    2.77
  -8  -6 -12    2.72    0.72
  -8  -6 -12    3.32    0.91
   8   6  12    3.15    0.60
  -8  -6 -12    2.57    0.58
  -8  -6 -13  114.82    4.19
  -8  -6 -13  112.46    4.61
   8   6  13  115.31    3.44
  -8  -6 -13  110.84    3.68
  -8  -6 -14    8.33    1.32
  -8  -6 -14    5.75    0.79
  -8  -6 -15   36.69    2.56
  -8  -6 -15   35.04    1.72
  -8  -6 -16    7.70    1.30
  -8  -6 -17   40.20    2.88
  -8  -6 -18   33.73    2.69
  -8  -6 -19   39.81    3.02
  -8  -6 -20   10.59    1.67
  -8  -6 -21    2.75    1.22
  -8  -7  13    0.58    0.86
  -8  -7  12   25.93    2.42
  -8  -7  11    5.83    1.28
  -8  -7  10    8.16    1.54
  -8  -7   9   26.77    2.36
  -8  -7   8   27.58    1.71
  -8  -7   8   23.95    2.27
  -8  -7   7   -0.45    0.86
  -8  -7   7    1.30    0.58
  -8  -7   6  134.78    5.36
  -8  -7   5    0.71    0.74
  -8  -7   4  347.45    9.77
  -8  -7   4  342.59    9.75
  -8  -7   3    8.72    1.32
  -8  -7   3    7.44    1.21
  -8  -7   2   96.84    4.10
  -8  -7   2   92.66    4.10
  -8  -7   1   44.80    2.67
  -8  -7   0  225.67    6.91
  -8  -7  -1   56.78    2.92
  -8  -7  -2    0.86    0.66
   8   7   3    1.81    0.63
  -8  -7  -3    2.11    0.75
  -8  -7  -4    1.94    0.52
  -8  -7  -4    2.59    0.82
   8   7   4    2.48    0.72
  -8  -7  -5    3.50    0.61
  -8  -7  -5    3.92    0.78
   8   7   5    3.45    0.81
  -8  -7  -5    2.85    0.76
  -8  -7  -6  121.31    3.93
  -8  -7  -6  123.42    4.29
   8   7   6  129.89    4.41
  -8  -7  -6  124.13    4.40
  -8  -7  -7  286.59    7.41
   8   7   7  289.39    7.69
  -8  -7  -7  291.59    7.66
  -8  -7  -7  285.67    7.89
  -8  -7  -8  542.97   12.62
   8   7   8  543.91   12.71
  -8  -7  -8  556.79   12.68
  -8  -7  -8  553.54   13.22
  -8  -7  -9   58.95    2.71
   8   7   9   58.48    2.62
  -8  -7  -9   57.60    2.94
  -8  -7 -10    1.58    0.60
  -8  -7 -10    1.91    0.81
   8   7  10    1.69    0.52
  -8  -7 -11  270.43    7.87
   8   7  11  259.40    6.84
  -8  -7 -12   33.81    2.04
  -8  -7 -12   32.63    2.35
   8   7  12   32.66    1.77
  -8  -7 -13  253.11    7.08
  -8  -7 -13  257.05    7.85
   8   7  13  249.89    6.37
  -8  -7 -14   36.30    2.18
  -8  -7 -14   34.68    2.53
   8   7  14   36.11    1.62
  -8  -7 -14   36.66    1.82
  -8  -7 -15    1.52    0.85
  -8  -7 -16   34.56    2.60
  -8  -7 -17   20.34    2.17
  -8  -7 -18   11.69    1.76
  -8  -7 -19   48.12    3.39
  -8  -7 -20   -0.31    0.97
  -8  -8  12    2.57    1.12
  -8  -8  11    5.65    1.31
  -8  -8  10    7.03    1.43
  -8  -8   9    7.37    1.39
  -8  -8   8   43.63    3.05
  -8  -8   7   68.84    3.81
  -8  -8   6   45.71    1.90
  -8  -8   6   44.55    3.00
  -8  -8   5    6.59    1.39
  -8  -8   5    8.90    0.83
  -8  -8   4   79.01    3.91
  -8  -8   3   60.28    3.30
  -8  -8   2   47.25    2.95
  -8  -8   1    5.40    1.15
  -8  -8   0  136.47    5.11
  -8  -8  -1   -0.37    0.83
  -8  -8  -2   89.12    3.77
  -8  -8  -2   83.45    2.72
  -8  -8  -3    1.22    0.42
  -8  -8  -3    1.24    0.56
  -8  -8  -4    0.83    0.44
  -8  -8  -4    2.14    0.74
  -8  -8  -5   16.94    1.22
   8   8   5   21.10    1.69
  -8  -8  -5   21.63    1.66
  -8  -8  -6    2.35    0.59
   8   8   6    4.92    0.85
  -8  -8  -6    3.93    0.90
  -8  -8  -7    0.61    0.42
   8   8   7    0.71    0.59
  -8  -8  -7    0.28    0.60
  -8  -8  -8   19.86    1.46
   8   8   8   21.58    1.62
  -8  -8  -8   21.74    1.74
  -8  -8  -9    1.28    0.55
   8   8   9    0.14    0.46
  -8  -8  -9    1.05    0.83
  -8  -8 -10    2.59    0.69
  -8  -8 -10    3.66    0.96
   8   8  10    2.93    0.64
  -8  -8 -11    7.97    1.26
   8   8  11    6.74    0.89
  -8  -8 -12   14.70    1.35
  -8  -8 -12   14.66    1.62
   8   8  12   14.98    1.24
  -8  -8 -13   24.66    1.71
  -8  -8 -13   23.96    2.09
   8   8  13   22.68    1.43
  -8  -8 -14  289.04    7.84
  -8  -8 -14  299.40    8.95
  -8  -8 -14  304.67    7.36
  -8  -8 -14  283.77    7.31
  -8  -8 -15   18.55    1.24
  -8  -8 -15   18.62    2.04
  -8  -8 -16    0.02    0.81
  -8  -8 -17   42.78    3.09
  -8  -8 -18   33.86    2.86
  -8  -8 -19   25.72    2.53
  -8  -9  11   39.81    3.19
  -8  -9  10    0.77    0.87
  -8  -9   9   24.64    2.44
  -8  -9   8   -0.30    0.94
  -8  -9   7  128.51    5.59
  -8  -9   6    1.24    0.93
  -8  -9   5  218.02    7.50
  -8  -9   4    1.50    0.84
  -8  -9   3   48.96    1.48
  -8  -9   3   47.94    3.06
  -8  -9   2    9.09    1.34
  -8  -9   1   19.73    1.88
  -8  -9   1   18.33    0.84
  -8  -9   0  151.80    3.66
  -8  -9   0  146.15    5.49
  -8  -9   0  155.00    4.73
  -8  -9  -1   32.31    1.31
  -8  -9  -1   33.13    2.34
  -8  -9  -1   35.40    2.00
  -8  -9  -2    0.89    0.68
  -8  -9  -2    0.89    0.36
  -8  -9  -2    0.68    0.52
  -8  -9  -3   24.60    2.00
  -8  -9  -3   23.97    1.24
  -8  -9  -3   23.38    1.69
  -8  -9  -4   71.98    3.36
  -8  -9  -4   68.45    2.43
  -8  -9  -4   72.44    3.11
  -8  -9  -5   69.38    3.30
  -8  -9  -5   70.96    2.60
  -8  -9  -5   78.09    3.29
  -8  -9  -6   20.46    1.74
  -8  -9  -6   18.64    1.29
  -8  -9  -6   17.88    1.64
  -8  -9  -7    7.42    1.10
  -8  -9  -7    5.70    0.81
  -8  -9  -7    6.90    1.08
  -8  -9  -8    4.34    0.90
  -8  -9  -8    3.83    0.69
   8   9   8    4.36    0.78
  -8  -9  -8    6.30    1.10
  -8  -9  -9    6.14    1.02
  -8  -9  -9    5.02    0.83
   8   9   9    5.12    0.89
  -8  -9  -9    7.54    1.17
  -8  -9 -10   41.82    2.26
   8   9  10   38.38    2.18
  -8  -9 -10   38.97    2.53
  -8  -9 -11   11.54    1.18
   8   9  11   12.48    1.19
  -8  -9 -11   12.84    1.50
  -8  -9 -12   21.45    1.49
   8   9  12   17.40    1.37
  -8  -9 -12   19.22    1.86
  -8  -9 -13    1.46    0.55
   8   9  13    3.22    0.66
  -8  -9 -13    1.00    0.85
  -8  -9 -13    1.70    0.61
  -8  -9 -14   64.49    2.58
  -8  -9 -14   61.09    2.79
  -8  -9 -14   61.06    3.52
  -8  -9 -15   11.53    1.01
  -8  -9 -15   10.04    1.58
  -8  -9 -16    1.91    0.97
  -8  -9 -17    6.00    1.30
  -8  -9 -18    1.04    1.05
  -8  -9 -19   -0.11    0.98
  -8 -10   9   -0.97    0.94
  -8 -10   8   -0.48    1.21
  -8 -10   7   -0.23    0.91
  -8 -10   6    5.49    1.45
  -8 -10   5   62.88    3.78
  -8 -10   4   44.20    3.05
  -8 -10   4   39.07    1.89
  -8 -10   3  296.08    9.17
  -8 -10   3  294.41    7.36
  -8 -10   2   19.42    2.04
  -8 -10   2   20.86    1.39
  -8 -10   1   28.61    2.35
  -8 -10   1   26.78    1.64
  -8 -10   0    1.29    0.96
  -8 -10   0   -0.55    0.53
  -8 -10  -1   64.53    1.68
  -8 -10  -1   74.61    3.69
  -8 -10  -1   72.90    2.96
  -8 -10  -2    1.85    0.82
  -8 -10  -2    0.70    0.26
  -8 -10  -2    1.21    0.57
  -8 -10  -3   42.41    1.58
  -8 -10  -3   41.40    2.65
  -8 -10  -3   42.53    2.33
  -8 -10  -4    4.61    0.59
  -8 -10  -4    6.44    1.12
  -8 -10  -4    5.89    0.94
  -8 -10  -5   11.30    1.40
  -8 -10  -5    9.34    0.83
  -8 -10  -5   10.55    1.23
  -8 -10  -6    8.70    1.24
  -8 -10  -6    9.83    0.94
  -8 -10  -6   11.77    1.33
  -8 -10  -7    4.77    0.98
  -8 -10  -7    2.19    0.63
  -8 -10  -7    2.25    0.81
  -8 -10  -8   51.42    2.42
  -8 -10  -8   51.18    2.71
  -8 -10  -8   52.51    2.85
  -8 -10  -9   38.46    2.17
  -8 -10  -9   40.24    2.39
  -8 -10  -9   39.51    2.56
  -8 -10 -10   19.60    1.59
   8  10  10   16.62    1.48
  -8 -10 -10   17.00    1.67
  -8 -10 -11   82.02    3.34
   8  10  11   81.74    3.40
  -8 -10 -11   80.37    3.91
  -8 -10 -12   43.01    2.26
   8  10  12   41.96    2.26
  -8 -10 -12   43.44    2.84
  -8 -10 -13   46.25    3.09
  -8 -10 -13   49.02    2.35
  -8 -10 -14  112.03    4.98
  -8 -10 -14  109.61    3.69
  -8 -10 -15   48.70    3.29
  -8 -10 -16    5.48    1.29
  -8 -10 -17    8.06    1.51
  -8 -10 -18   65.16    4.09
  -8 -11   7    2.95    1.22
  -8 -11   6   89.00    4.72
  -8 -11   5   16.18    1.98
  -8 -11   4   -0.64    1.02
  -8 -11   3    6.10    1.33
  -8 -11   2    6.70    0.85
  -8 -11   2   10.15    1.69
  -8 -11   1    1.15    0.50
  -8 -11   1   -0.20    0.89
  -8 -11   0   30.43    1.81
  -8 -11   0   30.99    2.51
  -8 -11  -1   61.64    2.73
  -8 -11  -1   60.62    3.47
  -8 -11  -2   17.08    1.49
  -8 -11  -2   20.21    1.99
  -8 -11  -3   63.14    2.91
  -8 -11  -3   65.54    3.46
  -8 -11  -4   41.68    2.37
  -8 -11  -4   41.28    2.68
  -8 -11  -5    3.29    0.87
  -8 -11  -5    3.19    1.05
  -8 -11  -6   -0.10    0.60
  -8 -11  -6    0.38    0.75
  -8 -11  -7   85.72    3.79
  -8 -11  -7   86.54    3.14
  -8 -11  -7   87.69    3.85
  -8 -11  -8    2.47    0.87
  -8 -11  -8    4.32    1.04
  -8 -11  -8    3.37    0.73
  -8 -11  -9   59.06    3.18
  -8 -11  -9   54.49    2.86
  -8 -11 -10    4.11    1.03
  -8 -11 -10    4.18    0.90
  -8 -11 -11   17.46    1.89
  -8 -11 -11   18.14    1.57
  -8 -11 -12   14.67    1.72
  -8 -11 -12   16.79    1.48
  -8 -11 -13    1.15    0.88
  -8 -11 -13    2.77    0.78
  -8 -11 -14   -0.02    0.91
  -8 -11 -15   11.50    1.71
  -8 -11 -16    1.10    0.94
  -8 -11 -17    8.24    1.58
  -8 -12   5    0.19    0.86
  -8 -12   4   75.79    4.33
  -8 -12   3    1.21    0.82
  -8 -12   2    4.16    1.34
  -8 -12   1   15.20    1.96
  -8 -12   0  109.54    3.80
  -8 -12   0  116.31    5.16
  -8 -12  -1    2.42    0.71
  -8 -12  -1    2.39    0.92
  -8 -12  -2  115.89    4.11
  -8 -12  -2  115.81    5.06
  -8 -12  -3    2.76    0.69
  -8 -12  -3    2.21    0.88
  -8 -12  -4   32.91    2.13
  -8 -12  -4   32.26    2.49
  -8 -12  -5    1.15    0.63
  -8 -12  -5    2.03    0.87
  -8 -12  -6   21.91    1.85
  -8 -12  -6   21.71    2.06
  -8 -12  -7   12.60    1.46
  -8 -12  -7   13.37    1.62
  -8 -12  -8  117.79    4.75
  -8 -12  -8  117.80    4.68
  -8 -12  -9  212.87    6.97
  -8 -12  -9  202.36    6.52
  -8 -12 -10   16.26    1.79
  -8 -12 -10   15.84    1.56
  -8 -12 -11    1.73    0.88
  -8 -12 -11    0.73    0.61
  -8 -12 -12   41.39    2.89
  -8 -12 -12   39.81    2.34
  -8 -12 -13   63.52    3.74
  -8 -12 -13   64.48    2.97
  -8 -12 -14    0.01    0.86
  -8 -12 -15    0.37    0.95
  -8 -12 -16    0.43    0.96
  -8 -13   3    8.53    1.67
  -8 -13   2  114.38    5.43
  -8 -13   1    0.53    0.91
  -8 -13   0   28.97    2.58
  -8 -13  -1   64.81    2.84
  -8 -13  -1   66.40    3.87
  -8 -13  -2  226.31    6.55
  -8 -13  -2  230.78    7.84
  -8 -13  -3   34.23    2.15
  -8 -13  -3   36.08    2.73
  -8 -13  -4   57.45    2.91
  -8 -13  -4   56.42    3.38
  -8 -13  -5   14.27    1.50
  -8 -13  -5   14.11    1.77
  -8 -13  -6  102.69    4.27
  -8 -13  -6   95.11    4.40
  -8 -13  -7    3.59    0.97
  -8 -13  -7    4.03    1.01
  -8 -13  -8   44.74    2.81
  -8 -13  -8   41.48    2.69
  -8 -13  -9    4.78    1.19
  -8 -13  -9    3.00    0.94
  -8 -13 -10   66.14    3.67
  -8 -13 -10   69.88    3.47
  -8 -13 -11    3.06    1.10
  -8 -13 -11    5.32    1.04
  -8 -13 -12    4.42    1.14
  -8 -13 -12    3.99    0.80
  -8 -13 -13    2.15    1.05
  -8 -13 -14   70.99    4.17
  -8 -13 -15   25.55    2.51
  -8 -14   1    2.06    1.18
  -8 -14   0    0.82    0.91
  -8 -14  -1    3.90    1.21
  -8 -14  -2   -0.07    0.87
  -8 -14  -3   20.26    1.67
  -8 -14  -3   23.53    2.35
  -8 -14  -4   14.25    1.49
  -8 -14  -4   13.86    1.86
  -8 -14  -5   25.93    2.13
  -8 -14  -5   28.88    2.54
  -8 -14  -6    3.38    1.00
  -8 -14  -6    3.35    1.52
  -8 -14  -7   72.54    3.69
  -8 -14  -7   80.22    4.11
  -8 -14  -8  164.10    6.13
  -8 -14  -8  169.94    6.24
  -8 -14  -9   36.42    2.71
  -8 -14  -9   34.94    2.52
  -8 -14 -10   12.78    1.69
  -8 -14 -10   14.66    1.58
  -8 -14 -11    0.53    0.79
  -8 -14 -11    0.86    0.66
  -8 -14 -12   91.56    4.72
  -8 -14 -13   10.68    1.67
  -8 -14 -14   99.01    5.14
  -8 -15  -2    9.99    1.72
  -8 -15  -3   42.85    3.16
  -8 -15  -4   -0.55    1.10
  -8 -15  -5    4.91    1.19
  -8 -15  -6    0.17    0.68
  -8 -15  -6   -0.42    0.99
  -8 -15  -7    2.27    1.33
  -8 -15  -7    2.01    0.95
  -8 -15  -8    1.44    0.90
  -8 -15  -8    1.98    0.97
  -8 -15  -9   21.98    2.20
  -8 -15  -9   21.90    2.10
  -8 -15 -10    1.16    1.06
  -8 -15 -10   -1.06    0.78
  -8 -15 -11    9.63    1.69
  -8 -15 -12    2.14    0.92
  -8 -15 -13   38.47    3.07
  -8 -16  -5   15.00    1.95
  -8 -16  -6    2.13    1.03
  -8 -16  -7   35.22    2.81
  -8 -16  -8   38.37    2.82
  -8 -16  -8   35.39    2.82
  -8 -16  -9   24.72    2.34
  -8 -16  -9   22.86    2.21
  -8 -16 -10    3.04    1.08
  -8 -16 -11    9.17    1.75
  -8 -17  -8   48.02    3.44
  -9  10   3    2.84    1.17
  -9  10   2   74.26    4.51
  -9  10   1    1.76    1.20
  -9  10   0   18.73    2.30
  -9  10  -1   14.88    2.17
  -9  10  -2   59.78    3.97
   9 -10   2   58.17    3.83
  -9  10  -3   38.91    3.21
   9 -10   3   46.50    3.41
  -9  10  -4   45.06    3.42
   9 -10   4   47.55    3.51
  -9  10  -5    1.04    1.09
   9 -10   5    3.34    1.09
  -9  10  -6   35.24    3.13
  -9   9   8   -0.64    0.88
  -9   9   7    3.18    1.14
  -9   9   6    3.89    1.16
  -9   9   5   17.16    2.18
  -9   9   4   65.09    4.15
  -9   9   3    9.96    1.72
  -9   9   2   -1.39    0.97
  -9   9   1   26.60    2.61
  -9   9   0  300.47    9.91
  -9   9  -1   48.57    3.47
  -9   9  -2  125.03    5.76
  -9   9  -3   21.45    2.34
   9  -9   3   18.11    2.16
  -9   9  -4    1.80    0.88
   9  -9   4    3.99    1.39
  -9   9  -5    0.71    0.86
   9  -9   5    0.01    0.91
   9  -9   6   13.19    1.87
  -9   9  -6   12.42    1.80
   9  -9   7   11.11    1.74
  -9   9  -7   10.47    1.83
   9  -9   8   32.03    2.85
   9  -9   9   -0.60    1.08
  -9   8  10    1.82    1.01
  -9   8   9   12.58    1.87
  -9   8   8    0.73    0.87
  -9   8   7   43.97    3.35
  -9   8   6    7.77    1.58
  -9   8   5   10.24    1.76
  -9   8   4    0.69    1.10
  -9   8   3   37.89    3.06
  -9   8   2   16.23    2.06
  -9   8   1    4.92    1.34
  -9   8   0   -0.64    0.95
  -9   8  -1   87.18    4.61
  -9   8  -2  164.31    6.60
  -9   8  -3  145.88    6.11
   9  -8   3  150.64    6.12
  -9   8  -4   37.66    2.97
   9  -8   4   45.60    3.21
  -9   8  -5    1.78    0.99
   9  -8   5    1.02    0.91
  -9   8  -6  108.91    5.14
   9  -8   6  108.20    5.13
   9  -8   7   29.62    2.62
  -9   8  -7   31.38    2.69
   9  -8   8   17.19    2.06
  -9   8  -8   19.75    2.22
  -9   8  -9   36.13    2.90
   9  -8   9   35.63    2.92
   9  -8  10   12.04    1.81
  -9   8 -10    7.40    1.44
   9  -8  11    1.32    1.07
   9  -8  12   21.70    2.40
  -9   8 -13   23.21    2.41
  -9   8 -14   46.00    3.39
  -9   8 -15   -0.37    0.88
  -9   7  11   -0.41    0.86
  -9   7  10    9.85    1.64
  -9   7   9   57.44    3.70
  -9   7   8   33.59    2.83
  -9   7   7   15.61    1.96
  -9   7   6    2.43    1.03
  -9   7   5  206.91    7.61
  -9   7   4    7.33    1.45
  -9   7   3   54.07    3.57
  -9   7   2   -0.64    1.12
  -9   7   1   -0.48    0.86
  -9   7   0    0.89    0.92
  -9   7  -1   28.59    2.47
  -9   7  -2    2.33    1.04
  -9   7  -3    8.07    1.43
  -9   7  -4    1.41    0.87
   9  -7   4    1.61    1.00
  -9   7  -5    0.60    0.80
   9  -7   5    0.09    0.83
  -9   7  -6    0.91    0.84
   9  -7   6    1.11    0.91
  -9   7  -7   57.02    3.53
   9  -7   7   64.96    3.81
   9  -7   8    2.04    1.16
  -9   7  -8    0.27    0.86
  -9   7  -9  165.11    6.44
   9  -7   9  171.28    6.64
   9  -7  10   15.27    1.97
  -9   7 -10   10.34    1.72
   9  -7  11    5.17    1.22
  -9   7 -11    5.85    1.32
  -9   7 -12   43.49    3.10
   9  -7  12   47.75    3.35
  -9   7 -13   62.11    3.79
   9  -7  13   65.84    4.03
  -9   7 -14   33.92    2.80
   9  -7  14   39.54    3.12
  -9   7 -15   30.71    2.70
  -9   7 -16   -0.11    0.92
  -9   6  12   31.42    2.68
  -9   6  11    0.05    0.95
  -9   6  10   60.27    3.72
  -9   6   9    2.84    0.96
  -9   6   8   13.95    1.82
  -9   6   7    1.39    0.98
  -9   6   6    1.44    0.93
  -9   6   5   68.72    3.96
  -9   6   4  116.49    5.25
  -9   6   3   60.45    3.69
  -9   6   2   26.33    2.41
  -9   6   1    9.86    1.55
  -9   6   0    3.68    1.15
  -9   6  -1   70.80    3.83
  -9   6  -2   88.32    4.34
  -9   6  -3  157.24    6.05
  -9   6  -4    1.16    0.90
  -9   6  -5   34.15    2.61
   9  -6   5   36.36    2.68
  -9   6  -6    0.94    0.77
   9  -6   6    0.20    0.82
  -9   6  -7   64.64    3.63
   9  -6   7   69.34    3.79
  -9   6  -8   13.84    1.74
   9  -6   8   13.08    1.66
  -9   6  -9   21.49    2.10
   9  -6   9   24.94    2.30
  -9   6 -10   51.79    3.26
   9  -6  10   55.27    3.46
   9  -6  11    7.11    1.38
  -9   6 -11    5.92    1.17
   9  -6  12   -2.37    1.18
  -9   6 -12   -1.18    0.85
   9  -6  13   10.10    1.65
  -9   6 -13    8.54    1.43
   9  -6  14    5.15    1.34
  -9   6 -14    5.73    1.35
  -9   6 -15  126.06    5.33
   9  -6  15  122.18    5.64
   9  -6  16   11.64    1.79
  -9   6 -16    9.84    1.54
   9  -6  17   -0.42    0.95
  -9   5  12    5.39    1.38
  -9   5  11    5.16    1.29
  -9   5  10   22.68    2.27
  -9   5   9   33.17    2.72
  -9   5   8  100.82    4.79
  -9   5   7    1.81    1.01
  -9   5   6   62.52    3.67
  -9   5   5    0.57    0.84
  -9   5   4   56.73    3.47
  -9   5   3    5.81    1.28
  -9   5   2   52.56    3.28
  -9   5   1    8.20    1.38
  -9   5   0    5.78    1.16
  -9   5  -1    2.15    0.99
  -9   5  -2   23.23    2.09
  -9   5  -3   -0.81    0.91
  -9   5  -4   23.89    2.10
  -9   5  -5    1.34    0.86
  -9   5  -6   62.60    3.43
  -9   5  -7   98.18    4.43
   9  -5   7   99.12    4.55
  -9   5  -8   43.09    2.83
   9  -5   8   47.21    3.05
  -9   5  -9   25.08    2.20
   9  -5   9   26.44    2.32
  -9   5 -10   47.42    2.97
   9  -5  10   46.49    3.09
  -9   5 -11    7.39    1.29
   9  -5  11    9.77    1.52
  -9   5 -12    6.86    1.28
   9  -5  12    9.06    1.55
  -9   5 -13   17.99    1.84
   9  -5  13   19.82    2.09
  -9   5 -14   11.92    1.36
  -9   5 -14   12.83    1.62
   9  -5  14   12.06    1.68
  -9   5 -15    5.05    1.06
  -9   5 -15    7.57    1.29
   9  -5  15    5.96    1.26
  -9   5 -16   -0.20    0.67
   9  -5  16   -0.18    0.85
   9  -5  17    7.46    1.57
   9  -5  18   -1.11    0.87
   9  -5  19    4.98    1.41
  -9   4  12    0.82    0.91
  -9   4  11   43.04    3.06
  -9   4  10    1.18    0.92
  -9   4   9    0.96    0.75
  -9   4   8    0.58    0.81
  -9   4   7   31.71    2.51
  -9   4   6    2.14    0.77
  -9   4   5   64.48    3.61
  -9   4   4  169.82    6.29
  -9   4   3  123.99    5.21
  -9   4   2   49.65    3.10
  -9   4   1   -0.25    0.81
  -9   4   0    2.66    0.96
  -9   4  -1    2.81    0.96
  -9   4  -2   10.39    1.45
  -9   4  -3    1.75    0.80
  -9   4  -4    2.96    0.88
  -9   4  -5    1.14    0.90
  -9   4  -6   32.50    2.38
  -9   4  -7    9.41    1.39
  -9   4  -8   18.67    1.80
  -9   4  -9    3.11    1.00
   9  -4   9    2.74    0.95
  -9   4 -10  101.14    4.33
   9  -4  10   99.18    4.52
  -9   4 -11    9.03    1.35
   9  -4  11    8.52    1.43
  -9   4 -12   28.74    2.21
   9  -4  12   32.61    2.53
  -9   4 -13   10.36    1.40
   9  -4  13   10.59    1.59
  -9   4 -14  161.20    5.53
  -9   4 -14  165.43    5.89
   9  -4  14  165.01    6.30
  -9   4 -15   15.55    1.58
  -9   4 -15   16.72    1.72
   9  -4  15   20.91    2.14
  -9   4 -16    5.82    1.05
  -9   4 -16    8.58    1.24
   9  -4  16    7.37    1.45
   9  -4  17   16.78    2.01
   9  -4  18    0.17    0.82
  -9   3  13   31.12    2.52
  -9   3  12    2.19    1.17
  -9   3  11    0.01    0.76
  -9   3  10   12.72    1.72
  -9   3   9   54.15    3.30
  -9   3   8   11.36    1.64
  -9   3   7   18.03    1.93
  -9   3   6   10.09    1.53
  -9   3   5   60.32    3.38
  -9   3   4    2.29    0.93
  -9   3   3   80.56    3.92
  -9   3   2    1.36    0.89
  -9   3   1   44.80    2.83
  -9   3   0    0.32    0.76
  -9   3  -1    6.53    1.25
  -9   3  -2   45.41    2.80
  -9   3  -3  481.44   12.42
  -9   3  -4  335.09    9.47
  -9   3  -5   29.47    2.19
  -9   3  -6   70.81    3.48
  -9   3  -7   59.31    3.16
  -9   3  -8   50.35    2.83
  -9   3  -9    3.82    0.92
  -9   3 -10   13.52    1.53
  -9   3 -11    7.63    1.14
  -9   3 -12   23.06    1.92
  -9   3 -13   22.50    1.88
  -9   3 -14   42.17    2.57
  -9   3 -14   45.34    2.68
  -9   3 -15   14.59    1.55
  -9   3 -15   15.70    1.63
  -9   3 -16  107.10    4.40
  -9   3 -16  109.54    4.39
  -9   3 -17    0.08    0.90
  -9   2  13   12.21    1.72
  -9   2  12    2.39    0.96
  -9   2  11    6.50    1.36
  -9   2  10    0.15    0.92
  -9   2   9    2.31    0.95
  -9   2   8    9.31    1.39
  -9   2   7   28.78    2.34
  -9   2   6    2.01    0.93
  -9   2   5   11.60    1.50
  -9   2   4   97.79    4.33
  -9   2   3   76.12    3.71
  -9   2   2   17.85    1.79
  -9   2   1   59.99    3.22
  -9   2   0   14.32    1.59
  -9   2  -1   26.11    2.10
  -9   2  -2    2.11    0.83
  -9   2  -3   73.25    3.47
  -9   2  -4   -0.01    0.70
  -9   2  -5  285.20    8.23
  -9   2  -6    9.44    1.28
  -9   2  -7    0.23    0.76
  -9   2  -8   23.95    1.95
  -9   2  -9  179.87    5.94
  -9   2 -10   56.93    2.95
  -9   2 -11  117.91    4.53
  -9   2 -12   26.48    2.00
  -9   2 -13   21.77    1.80
  -9   2 -13   23.80    1.88
  -9   2 -14  107.81    4.39
  -9   2 -14  120.92    4.50
  -9   2 -15   77.50    3.63
  -9   2 -15   81.26    3.58
  -9   2 -16   14.65    1.59
  -9   2 -16   16.75    1.58
  -9   2 -17   18.13    1.80
  -9   2 -18    1.31    0.79
  -9   2 -19   10.45    1.56
  -9   1  13    1.74    0.77
  -9   1  12    8.14    1.41
  -9   1  11    5.76    1.22
  -9   1  10    5.68    1.20
  -9   1   9    6.93    1.23
  -9   1   8   12.37    1.56
  -9   1   7    4.01    1.10
  -9   1   6   55.50    3.17
  -9   1   5   31.36    2.33
  -9   1   4    2.10    0.86
  -9   1   3    7.32    1.23
  -9   1   2   99.86    4.23
  -9   1   1   23.38    1.98
  -9   1   0   19.46    1.76
  -9   1  -1    6.72    1.06
  -9   1  -2  107.70    4.34
  -9   1  -3  259.95    7.67
  -9   1  -4   97.57    4.04
  -9   1  -5   43.88    2.58
  -9   1  -6   94.52    3.90
  -9   1  -7    1.12    0.72
  -9   1  -8   15.63    1.50
  -9   1  -9  185.33    5.91
  -9   1 -10    0.14    0.62
  -9   1 -11   47.69    2.60
  -9   1 -12    3.55    0.81
  -9   1 -13    1.41    0.65
  -9   1 -13    0.90    0.64
  -9   1 -14    3.17    0.78
  -9   1 -14    3.77    0.85
  -9   1 -15  190.20    6.31
  -9   1 -15  191.20    5.86
  -9   1 -16    7.30    1.16
  -9   1 -16    5.84    0.94
  -9   1 -17   18.35    1.81
  -9   1 -18    0.12    0.74
  -9   1 -19   16.99    1.83
  -9   1 -20   -0.06    0.69
  -9   0  13   62.39    3.62
  -9   0  12   27.54    2.49
  -9   0  11   25.64    2.27
  -9   0  10    5.60    1.15
  -9   0   9   94.16    4.36
  -9   0   8  187.64    6.53
  -9   0   7   59.66    3.30
  -9   0   6   73.95    3.67
  -9   0   5    9.20    1.35
  -9   0   4    6.66    1.16
  -9   0   3    3.66    0.94
  -9   0   2   23.26    1.90
  -9   0   1    4.49    1.04
  -9   0   0   14.33    1.57
  -9   0  -1   -0.47    0.65
  -9   0  -2   89.23    3.77
  -9   0  -3    4.99    1.01
   9   0   3    6.05    0.99
  -9   0  -4  403.23   10.35
  -9   0  -5   78.30    3.43
  -9   0  -6  334.97    8.93
  -9   0  -7   33.45    2.14
  -9   0  -8  213.14    6.40
  -9   0  -9  226.17    6.63
  -9   0 -10  141.43    4.80
  -9   0 -11   21.49    1.66
  -9   0 -12   15.11    1.38
  -9   0 -13   19.16    1.52
  -9   0 -13   18.05    1.66
  -9   0 -14    8.66    1.04
  -9   0 -14    8.33    1.19
  -9   0 -15  113.37    3.95
  -9   0 -15  108.87    4.50
  -9   0 -16   40.98    2.11
  -9   0 -16   42.23    2.68
  -9   0 -17   80.69    3.87
  -9   0 -18    3.42    0.92
  -9   0 -19   12.70    1.58
  -9   0 -20    6.07    1.26
  -9   0 -21   59.36    3.52
  -9  -1  14    3.20    1.31
  -9  -1  13   20.52    2.41
  -9  -1  13   22.63    2.22
  -9  -1  12    5.12    1.12
  -9  -1  12    4.63    1.08
  -9  -1  11    4.09    1.17
  -9  -1  10    9.61    1.45
  -9  -1   9    1.16    0.82
  -9  -1   8   12.46    1.59
  -9  -1   7    5.30    1.09
  -9  -1   6   44.04    2.75
  -9  -1   5  129.73    5.01
  -9  -1   4   10.28    1.35
  -9  -1   3   70.42    3.46
  -9  -1   2  293.03    8.41
  -9  -1   1   21.23    1.79
  -9  -1   0   14.15    1.52
  -9  -1  -1    2.59    0.79
  -9  -1  -2   57.87    2.91
   9   1   2   59.39    2.95
   9   1   3   57.76    2.86
  -9  -1  -3   51.51    2.72
   9   1   4   36.52    2.23
  -9  -1  -4   35.66    2.22
  -9  -1  -4   35.51    2.19
  -9  -1  -5   16.82    1.48
   9   1   5   16.93    1.52
  -9  -1  -5   16.85    1.55
  -9  -1  -6   36.93    2.20
   9   1   6   38.03    2.21
  -9  -1  -6   33.96    2.15
  -9  -1  -7   27.83    1.89
  -9  -1  -7   26.00    1.84
  -9  -1  -8   26.62    1.79
  -9  -1  -8   28.47    1.91
  -9  -1  -9    2.14    0.68
  -9  -1  -9    3.78    0.77
  -9  -1 -10  314.70    8.16
  -9  -1 -10  307.80    8.33
  -9  -1 -11    1.55    0.63
  -9  -1 -12   87.59    3.34
  -9  -1 -12   84.76    3.71
  -9  -1 -13    7.19    0.91
  -9  -1 -13    6.74    1.16
  -9  -1 -14    0.34    0.44
  -9  -1 -14    0.70    0.68
  -9  -1 -15   36.74    1.91
  -9  -1 -15   34.56    2.39
  -9  -1 -16  122.50    3.84
  -9  -1 -16  119.47    4.88
  -9  -1 -17    1.67    0.79
  -9  -1 -18   12.46    1.57
  -9  -1 -19   -1.34    0.94
  -9  -1 -20   -0.15    0.74
  -9  -1 -21    2.44    0.97
  -9  -1 -22    2.89    0.76
  -9  -2  14   19.07    2.23
  -9  -2  13   24.64    2.41
  -9  -2  13   29.12    2.47
  -9  -2  12    3.04    1.07
  -9  -2  12    3.88    1.07
  -9  -2  11   -0.37    0.76
  -9  -2  11   -0.50    0.81
  -9  -2  10   -0.20    0.71
  -9  -2   9  164.74    6.19
  -9  -2   8   53.98    3.18
  -9  -2   7   39.76    2.68
  -9  -2   6    0.16    0.69
  -9  -2   5   12.42    1.47
  -9  -2   4    0.04    0.72
  -9  -2   3   -0.69    0.73
  -9  -2   2   44.79    2.67
  -9  -2   1  141.26    5.07
  -9  -2   0   17.36    1.63
  -9  -2  -1   17.32    1.58
  -9  -2  -2    1.89    0.74
   9   2   2    1.18    0.67
   9   2   3   82.79    3.54
  -9  -2  -3   71.05    3.25
   9   2   4   61.95    2.97
  -9  -2  -4   58.86    2.86
  -9  -2  -5  218.33    6.63
   9   2   5  252.55    6.96
  -9  -2  -6    8.76    1.11
   9   2   6    8.76    1.08
  -9  -2  -6    9.35    1.22
  -9  -2  -7    0.08    0.53
   9   2   7    0.63    0.50
  -9  -2  -7    0.17    0.54
   9   2   8   51.86    2.51
  -9  -2  -8   50.63    2.49
  -9  -2  -8   52.35    2.64
  -9  -2  -9  146.10    4.71
  -9  -2  -9  149.41    4.93
  -9  -2 -10   34.21    1.95
  -9  -2 -10   35.77    2.15
  -9  -2 -11   65.72    2.78
  -9  -2 -11   68.22    3.01
  -9  -2 -12    7.43    1.16
  -9  -2 -12    6.36    0.87
  -9  -2 -12    6.88    1.03
  -9  -2 -13    6.65    1.18
  -9  -2 -13    5.75    0.82
  -9  -2 -13    7.01    1.01
  -9  -2 -14    4.32    1.01
  -9  -2 -14    3.45    0.66
  -9  -2 -14    2.00    0.55
  -9  -2 -15    1.90    0.89
  -9  -2 -15    2.19    0.58
  -9  -2 -15    2.52    0.69
  -9  -2 -16  148.20    4.14
  -9  -2 -16  141.53    5.48
  -9  -2 -17   41.00    2.77
  -9  -2 -18   34.38    2.56
  -9  -2 -19    0.15    0.76
  -9  -2 -20    2.37    0.89
  -9  -2 -21   -0.29    0.76
  -9  -2 -22    1.19    0.79
  -9  -3  14   -0.05    0.86
  -9  -3  13    0.90    0.89
  -9  -3  13    0.36    0.88
  -9  -3  13    1.03    0.80
  -9  -3  12    0.07    0.82
  -9  -3  12    0.99    1.03
  -9  -3  12    0.30    0.85
  -9  -3  11    2.21    0.98
  -9  -3  11    5.03    1.22
  -9  -3  10   -0.01    0.78
  -9  -3  10   -0.18    0.75
  -9  -3   9    3.93    1.04
  -9  -3   8  138.29    5.44
  -9  -3   7  108.18    4.74
  -9  -3   6  138.68    5.36
  -9  -3   5    0.47    0.72
  -9  -3   4    0.56    0.66
  -9  -3   3  100.69    4.20
  -9  -3   2    3.62    0.94
  -9  -3   1   90.31    3.85
  -9  -3   0   21.47    1.78
  -9  -3  -1    3.85    0.91
   9   3   2   -0.46    0.56
  -9  -3  -2   -0.28    0.59
   9   3   3    0.11    0.54
  -9  -3  -3    0.07    0.60
  -9  -3  -4   14.60    1.40
   9   3   4   14.74    1.42
  -9  -3  -5  192.47    5.96
   9   3   5  212.29    6.27
   9   3   6    2.01    0.68
  -9  -3  -6    2.28    0.75
  -9  -3  -7  612.26   14.44
   9   3   7  666.41   14.73
  -9  -3  -8   19.25    1.47
   9   3   8   18.21    1.47
  -9  -3  -8   19.56    1.55
  -9  -3  -9  162.28    5.00
   9   3   9  166.14    5.08
  -9  -3  -9  164.08    5.24
  -9  -3 -10    3.08    0.65
  -9  -3 -10    3.46    0.77
   9   3  10    3.79    0.71
  -9  -3 -11  281.24    8.02
  -9  -3 -11  272.46    7.17
  -9  -3 -11  283.79    7.60
  -9  -3 -12    1.48    0.69
  -9  -3 -12    2.78    0.62
  -9  -3 -12    3.43    0.76
  -9  -3 -13   14.51    1.62
  -9  -3 -13   14.94    1.19
  -9  -3 -13   12.94    1.21
  -9  -3 -14   20.26    1.86
  -9  -3 -14   25.24    1.45
  -9  -3 -14   21.48    1.57
  -9  -3 -15   22.01    1.99
  -9  -3 -15   21.31    1.27
  -9  -3 -15   21.20    1.57
  -9  -3 -16   35.68    2.58
  -9  -3 -16   36.77    1.57
  -9  -3 -16   36.03    2.09
  -9  -3 -17  104.69    4.67
  -9  -3 -18    3.44    1.19
  -9  -3 -19    2.20    0.92
  -9  -3 -20    0.97    0.89
  -9  -3 -21    4.34    1.16
  -9  -3 -22   25.90    2.43
  -9  -4  13   13.86    1.80
  -9  -4  13   11.47    1.58
  -9  -4  12   19.21    1.96
  -9  -4  12   17.28    1.92
  -9  -4  12   20.68    2.16
  -9  -4  11    7.37    1.33
  -9  -4  11    9.62    1.52
  -9  -4  11    7.39    1.47
  -9  -4  10    6.96    1.32
  -9  -4  10    8.40    1.47
  -9  -4   9    0.09    0.73
  -9  -4   9    0.55    0.83
  -9  -4   8  115.87    5.00
  -9  -4   7    0.60    0.72
  -9  -4   6   83.16    3.96
  -9  -4   5    3.86    1.12
  -9  -4   4   39.98    2.69
  -9  -4   3   17.82    1.72
  -9  -4   2   58.75    3.10
  -9  -4   1   84.02    3.73
  -9  -4   0   58.51    2.96
  -9  -4  -1   -0.01    0.62
  -9  -4  -2   11.17    1.30
   9   4   3    3.60    0.84
  -9  -4  -3    2.50    0.80
  -9  -4  -4   87.87    3.59
   9   4   4   88.80    3.73
  -9  -4  -5  111.71    4.16
   9   4   5  123.62    4.41
  -9  -4  -6   36.65    2.13
   9   4   6   39.59    2.27
  -9  -4  -7    6.45    0.94
   9   4   7    5.69    0.88
   9   4   8    1.00    0.48
  -9  -4  -8    0.51    0.52
  -9  -4  -9    5.29    0.83
   9   4   9    3.57    0.65
  -9  -4 -10   53.09    2.84
  -9  -4 -10   54.04    2.47
   9   4  10   55.09    2.52
  -9  -4 -10   57.47    2.74
  -9  -4 -11   27.33    2.09
   9   4  11   26.62    1.63
  -9  -4 -11   26.24    1.62
  -9  -4 -11   24.27    1.71
  -9  -4 -12   67.74    3.39
  -9  -4 -12   71.43    2.73
  -9  -4 -12   69.44    2.97
  -9  -4 -13  394.72   10.65
  -9  -4 -13  406.51    9.25
  -9  -4 -13  378.85    9.67
  -9  -4 -14    1.15    0.81
  -9  -4 -14    2.36    0.54
  -9  -4 -14    2.05    0.63
  -9  -4 -15    1.00    0.76
  -9  -4 -15    1.42    0.45
  -9  -4 -15    1.15    0.57
  -9  -4 -16    9.22    1.48
  -9  -4 -17  370.49   10.65
  -9  -4 -18    1.07    0.82
  -9  -4 -19   24.09    2.30
  -9  -4 -20   14.45    1.87
  -9  -4 -21    3.79    1.25
  -9  -5  13   11.44    1.75
  -9  -5  12   46.73    3.25
  -9  -5  11   11.62    1.57
  -9  -5  11   10.10    1.59
  -9  -5  10    3.14    1.04
  -9  -5  10    3.50    1.10
  -9  -5  10    3.47    1.13
  -9  -5   9    3.89    1.21
  -9  -5   9    3.56    1.14
  -9  -5   8   10.66    1.55
  -9  -5   8   11.96    1.69
  -9  -5   7   39.62    2.69
  -9  -5   7   39.58    2.78
  -9  -5   6   62.61    3.48
  -9  -5   5    2.41    0.91
  -9  -5   4    2.19    0.88
  -9  -5   3    0.37    0.64
  -9  -5   2   86.99    3.90
  -9  -5   1    3.66    0.99
  -9  -5   0   95.04    4.08
  -9  -5  -1   10.41    1.28
  -9  -5  -2    5.97    1.02
  -9  -5  -3    9.51    1.24
  -9  -5  -4   94.95    3.84
   9   5   4  103.70    4.04
  -9  -5  -5   11.24    1.25
   9   5   5   12.20    1.29
   9   5   6 1394.97   28.70
  -9  -5  -6 1328.06   28.38
   9   5   7   70.32    3.09
  -9  -5  -7   66.77    2.93
  -9  -5  -8   47.46    2.51
   9   5   8   50.18    2.51
  -9  -5  -8   43.92    2.29
  -9  -5  -9   28.84    2.06
   9   5   9   28.26    1.85
  -9  -5  -9   29.99    1.81
  -9  -5 -10  122.13    4.66
  -9  -5 -10  129.09    4.19
   9   5  10  119.41    4.16
  -9  -5 -11    0.73    0.76
  -9  -5 -11   -0.23    0.45
   9   5  11   -0.13    0.42
  -9  -5 -11    0.25    0.52
  -9  -5 -12   26.44    2.11
   9   5  12   23.47    1.52
  -9  -5 -12   27.79    1.59
  -9  -5 -12   24.18    1.64
  -9  -5 -13   11.37    1.52
  -9  -5 -13    9.14    0.91
  -9  -5 -13    8.43    0.99
   9   5  13    8.62    0.90
  -9  -5 -14    4.38    1.03
  -9  -5 -14    3.40    0.59
  -9  -5 -14    1.38    0.55
  -9  -5 -15   24.08    2.12
  -9  -5 -15   23.48    1.24
  -9  -5 -15   21.41    1.53
  -9  -5 -16   21.54    2.09
  -9  -5 -17   11.45    1.64
  -9  -5 -18   94.92    4.61
  -9  -5 -19   68.27    3.97
  -9  -5 -20   14.86    1.99
  -9  -5 -21    4.04    1.15
  -9  -6  13   12.85    1.77
  -9  -6  12   15.27    1.92
  -9  -6  11   38.76    2.95
  -9  -6  10    1.58    1.01
  -9  -6   9    8.58    1.47
  -9  -6   9    9.94    1.28
  -9  -6   8    2.54    1.14
  -9  -6   8    0.66    0.75
  -9  -6   7   -0.91    1.04
  -9  -6   7    1.47    0.93
  -9  -6   6   12.81    1.67
  -9  -6   6   11.71    1.65
  -9  -6   5  131.97    5.23
  -9  -6   5  132.38    5.32
  -9  -6   4   48.95    3.00
  -9  -6   3   25.48    2.15
  -9  -6   2   84.51    3.91
  -9  -6   1   59.27    3.16
  -9  -6   0   14.40    1.57
  -9  -6  -1   30.49    2.12
  -9  -6  -2    1.22    0.70
  -9  -6  -3    2.06    0.81
  -9  -6  -4    0.98    0.61
  -9  -6  -5  137.17    4.82
   9   6   5  150.42    5.04
  -9  -6  -6   94.58    3.67
   9   6   6   97.67    3.85
  -9  -6  -7   35.30    2.05
  -9  -6  -7   34.18    2.01
   9   6   7   35.50    2.12
  -9  -6  -8  639.31   14.76
   9   6   8  653.26   14.85
  -9  -6  -8  640.63   14.58
  -9  -6  -8  657.82   15.21
  -9  -6  -9   23.00    1.74
  -9  -6  -9   23.17    1.87
   9   6   9   22.54    1.66
  -9  -6  -9   24.75    1.66
  -9  -6 -10    0.13    0.69
   9   6  10    0.14    0.46
  -9  -6 -10    0.81    0.53
  -9  -6 -11    2.27    0.90
   9   6  11    3.08    0.74
  -9  -6 -11    2.65    0.61
  -9  -6 -12   84.65    3.97
   9   6  12   80.58    3.14
  -9  -6 -12   89.91    3.16
  -9  -6 -12   84.85    3.38
  -9  -6 -13    5.10    1.17
  -9  -6 -13    4.39    0.72
  -9  -6 -13    2.83    0.58
   9   6  13    2.89    0.59
  -9  -6 -14   17.08    1.84
   9   6  14   14.35    1.07
  -9  -6 -14   13.20    1.19
  -9  -6 -15   18.10    1.86
  -9  -6 -15   16.77    1.31
  -9  -6 -16   60.13    3.49
  -9  -6 -17    1.64    0.96
  -9  -6 -18   71.66    4.03
  -9  -6 -19    3.00    1.06
  -9  -6 -20    4.82    1.38
  -9  -7  12    3.15    1.17
  -9  -7  11   67.13    4.04
  -9  -7  10    0.58    0.85
  -9  -7   9    1.38    0.98
  -9  -7   8    3.69    1.12
  -9  -7   7   68.93    3.79
  -9  -7   6    5.18    1.35
  -9  -7   6    8.23    1.43
  -9  -7   5   11.13    1.54
  -9  -7   5   10.32    1.52
  -9  -7   4   17.18    1.85
  -9  -7   4   17.46    1.84
  -9  -7   3   -0.01    0.74
  -9  -7   3    0.08    0.70
  -9  -7   2    0.30    0.70
  -9  -7   1  139.06    5.29
  -9  -7   0    0.49    0.67
  -9  -7  -1  751.08   17.53
  -9  -7  -2   14.66    1.57
  -9  -7  -3   19.65    1.75
  -9  -7  -4   26.12    1.96
  -9  -7  -5  275.15    7.23
  -9  -7  -5  287.92    7.90
  -9  -7  -6   32.13    1.89
  -9  -7  -6   35.16    2.21
   9   7   6   38.31    2.30
  -9  -7  -7   24.83    1.65
  -9  -7  -7   23.27    1.72
   9   7   7   26.35    1.85
  -9  -7  -7   24.16    1.86
  -9  -7  -8    6.54    0.91
   9   7   8    7.44    1.01
  -9  -7  -8    6.66    1.03
  -9  -7  -8    6.54    1.09
  -9  -7  -9   25.22    1.76
  -9  -7  -9   21.43    1.84
  -9  -7  -9   24.02    1.80
   9   7   9   24.24    1.70
  -9  -7 -10   11.73    1.45
  -9  -7 -10   13.58    1.27
   9   7  10   12.55    1.26
  -9  -7 -11   26.02    2.12
   9   7  11   24.74    1.69
  -9  -7 -11   26.20    1.68
  -9  -7 -12    0.71    0.70
   9   7  12    1.18    0.51
  -9  -7 -13    6.59    1.18
   9   7  13    7.44    0.90
  -9  -7 -14   13.70    1.72
  -9  -7 -14   12.16    1.17
  -9  -7 -15    0.15    0.79
  -9  -7 -16    3.25    1.18
  -9  -7 -17   40.54    2.99
  -9  -7 -18  113.71    5.28
  -9  -7 -19    3.75    1.14
  -9  -7 -20    8.48    1.70
  -9  -8  11   17.54    2.15
  -9  -8  10   15.75    2.10
  -9  -8   9    2.81    0.97
  -9  -8   8    4.73    1.42
  -9  -8   7   14.07    1.91
  -9  -8   6   68.77    3.93
  -9  -8   5  116.34    5.10
  -9  -8   4   28.87    2.42
  -9  -8   3    0.08    0.93
  -9  -8   2   87.20    4.15
  -9  -8   2   88.17    4.19
  -9  -8   1  260.96    8.11
  -9  -8   1  267.04    8.20
  -9  -8   0   67.57    3.43
  -9  -8   0   65.22    3.45
  -9  -8  -1    5.70    1.12
  -9  -8  -2    0.37    0.78
  -9  -8  -3   20.89    1.35
  -9  -8  -3   19.84    1.75
  -9  -8  -4    2.67    0.60
  -9  -8  -4    2.01    0.84
  -9  -8  -5   76.00    2.90
  -9  -8  -5   77.21    3.51
  -9  -8  -5   79.45    3.41
  -9  -8  -6  103.62    3.60
  -9  -8  -6  105.33    4.12
  -9  -8  -6  104.08    4.12
  -9  -8  -7  417.08   10.21
  -9  -8  -7  432.12   10.81
  -9  -8  -7  435.79   11.00
  -9  -8  -8    1.98    0.67
   9   8   8    1.33    0.73
  -9  -8  -8    2.90    0.85
  -9  -8  -9   38.27    2.20
   9   8   9   39.36    2.28
  -9  -8  -9   38.00    2.50
   9   8  10   19.39    1.58
  -9  -8 -10   19.71    1.85
   9   8  11   64.72    2.93
  -9  -8 -11   73.88    3.63
   9   8  12   10.31    1.09
  -9  -8 -12   10.03    1.52
   9   8  13  121.08    4.10
  -9  -8 -13  126.57    5.15
  -9  -8 -14    3.08    1.02
  -9  -8 -15   -0.19    0.77
  -9  -8 -16    1.33    0.83
  -9  -8 -17   14.04    1.81
  -9  -8 -18   -0.55    1.13
  -9  -8 -19    6.85    1.60
  -9  -9   9    4.58    1.27
  -9  -9   8    5.49    1.41
  -9  -9   7   10.83    1.72
  -9  -9   6    1.50    1.13
  -9  -9   5   11.22    1.63
  -9  -9   4  204.28    7.29
  -9  -9   3   17.45    1.98
  -9  -9   2    1.02    0.88
  -9  -9   1   68.22    3.66
  -9  -9   0   53.11    3.19
  -9  -9  -1    9.77    1.45
  -9  -9  -1    9.12    0.80
  -9  -9  -2    8.88    1.31
  -9  -9  -2    9.32    0.82
  -9  -9  -2    8.50    1.10
  -9  -9  -3   29.99    2.24
  -9  -9  -3   28.08    1.48
  -9  -9  -3   28.09    1.93
  -9  -9  -4   20.68    1.92
  -9  -9  -4   21.16    1.33
  -9  -9  -4   22.21    1.75
  -9  -9  -5   91.16    3.17
  -9  -9  -5   93.24    3.83
  -9  -9  -6  227.90    6.19
  -9  -9  -6  239.93    7.07
  -9  -9  -7    6.93    0.92
  -9  -9  -7    7.65    1.13
  -9  -9  -8    5.46    0.85
  -9  -9  -8    4.50    1.02
  -9  -9  -9   14.64    1.36
  -9  -9  -9   17.89    1.76
   9   9  10   10.96    1.25
  -9  -9 -10   11.72    1.53
   9   9  11   68.58    3.08
  -9  -9 -11   75.24    3.74
  -9  -9 -12   21.81    1.71
   9   9  12   24.49    1.72
  -9  -9 -12   21.04    2.02
  -9  -9 -13   83.95    4.20
  -9  -9 -13   87.23    3.43
  -9  -9 -14   30.04    2.48
  -9  -9 -14   32.26    1.92
  -9  -9 -15  106.67    4.99
  -9  -9 -15  111.43    3.77
  -9  -9 -16    0.28    0.89
  -9  -9 -17    5.74    1.26
  -9  -9 -18    0.53    0.95
  -9 -10   8    1.52    1.04
  -9 -10   7   27.89    2.63
  -9 -10   6  104.23    5.16
  -9 -10   5   11.90    1.77
  -9 -10   4   34.02    2.77
  -9 -10   3    0.83    1.01
  -9 -10   2   -0.10    0.55
  -9 -10   2    0.59    0.87
  -9 -10   1   -0.24    0.52
  -9 -10   1   -0.66    0.91
  -9 -10   0   37.04    2.14
  -9 -10   0   32.07    2.56
  -9 -10  -1    1.91    0.68
  -9 -10  -1    0.92    0.78
  -9 -10  -2   27.07    1.90
  -9 -10  -2   26.02    1.21
  -9 -10  -2   28.53    2.33
  -9 -10  -3    6.35    0.99
  -9 -10  -3    4.56    1.11
  -9 -10  -3    4.86    0.57
  -9 -10  -4    3.14    0.82
  -9 -10  -4    2.90    0.84
  -9 -10  -4    1.86    0.43
  -9 -10  -5   11.04    1.36
  -9 -10  -5   10.52    1.34
  -9 -10  -5    9.98    0.96
  -9 -10  -6  235.57    7.16
  -9 -10  -6  237.33    7.37
  -9 -10  -6  239.23    6.25
  -9 -10  -7    0.45    0.70
  -9 -10  -7    0.82    0.71
  -9 -10  -7    0.67    0.48
  -9 -10  -8   81.07    3.80
  -9 -10  -8   81.27    3.67
  -9 -10  -8   83.39    3.26
  -9 -10  -9   19.99    1.95
  -9 -10  -9   20.00    1.59
  -9 -10  -9   19.59    1.75
  -9 -10 -10   52.29    3.07
  -9 -10 -10   53.35    2.81
  -9 -10 -11    7.82    1.39
  -9 -10 -11    4.49    0.91
  -9 -10 -12   52.09    3.21
  -9 -10 -12   55.96    2.74
  -9 -10 -13    0.02    0.84
  -9 -10 -13    1.35    0.66
  -9 -10 -14   62.53    3.67
  -9 -10 -14   61.37    2.78
  -9 -10 -15   11.86    1.81
  -9 -10 -16   42.48    3.16
  -9 -10 -17   31.31    2.76
  -9 -11   6   -0.08    0.92
  -9 -11   5  122.81    5.70
  -9 -11   4   22.58    2.45
  -9 -11   3  205.93    7.62
  -9 -11   2    1.67    0.45
  -9 -11   2    3.15    1.18
  -9 -11   1    8.30    1.02
  -9 -11   1    8.49    1.49
  -9 -11   0   60.28    2.79
  -9 -11   0   58.49    3.58
  -9 -11  -1   78.08    3.30
  -9 -11  -1   75.15    4.00
  -9 -11  -2   59.92    2.91
  -9 -11  -2   61.21    3.49
  -9 -11  -3    0.65    0.69
  -9 -11  -3   -0.09    0.85
  -9 -11  -4    2.48    0.84
  -9 -11  -4    3.36    1.07
  -9 -11  -5    5.88    1.07
  -9 -11  -5    4.69    1.02
  -9 -11  -6    7.98    1.21
  -9 -11  -6    7.90    1.23
  -9 -11  -7   36.91    2.45
  -9 -11  -7   37.50    1.96
  -9 -11  -7   38.99    2.55
  -9 -11  -8   69.07    3.50
  -9 -11  -8   66.45    2.85
  -9 -11  -8   71.75    3.48
  -9 -11  -9   24.08    2.11
  -9 -11  -9   21.05    1.69
  -9 -11  -9   24.90    2.01
  -9 -11 -10    8.97    1.28
  -9 -11 -10   10.49    1.31
  -9 -11 -11   48.44    3.09
  -9 -11 -11   48.56    2.71
  -9 -11 -12  157.66    6.10
  -9 -11 -12  155.90    5.28
  -9 -11 -13    0.67    0.91
  -9 -11 -13   -0.25    0.69
  -9 -11 -14  114.94    5.21
  -9 -11 -14  109.47    4.03
  -9 -11 -15   13.21    1.89
  -9 -11 -16   11.60    1.77
  -9 -12   4    4.01    1.32
  -9 -12   3    9.49    1.63
  -9 -12   2    7.27    1.55
  -9 -12   1   26.21    2.51
  -9 -12   0    0.07    0.47
  -9 -12   0    2.65    1.09
  -9 -12  -1  123.37    4.38
  -9 -12  -1  125.37    5.50
  -9 -12  -2   11.31    1.24
  -9 -12  -2   11.48    1.65
  -9 -12  -3   97.91    3.95
  -9 -12  -3  101.15    4.71
  -9 -12  -4   12.87    1.38
  -9 -12  -4   14.34    1.77
  -9 -12  -5    0.60    0.67
  -9 -12  -5   -0.96    0.80
  -9 -12  -6    7.79    1.30
  -9 -12  -6    7.15    1.34
  -9 -12  -7   52.18    3.01
  -9 -12  -7   56.31    3.20
  -9 -12  -8    1.13    0.75
  -9 -12  -8    0.87    0.72
  -9 -12  -9    1.52    0.83
  -9 -12  -9    1.86    0.95
  -9 -12 -10    9.73    1.46
  -9 -12 -10   10.45    1.40
  -9 -12 -11    9.56    1.51
  -9 -12 -11    9.84    1.31
  -9 -12 -12    0.51    0.82
  -9 -12 -12    0.74    0.67
  -9 -12 -13   17.68    2.06
  -9 -12 -13   14.17    1.47
  -9 -12 -14    4.84    1.22
  -9 -12 -15   68.61    4.12
  -9 -13   2   -0.01    0.94
  -9 -13   1    1.07    0.91
  -9 -13   0   13.04    1.86
  -9 -13  -1   25.47    2.44
  -9 -13  -2    7.93    1.11
  -9 -13  -2    6.42    1.39
  -9 -13  -3  105.04    4.14
  -9 -13  -3  106.84    5.02
  -9 -13  -4   15.77    1.59
  -9 -13  -4   15.57    1.94
  -9 -13  -5  105.11    4.35
  -9 -13  -5  114.05    5.07
  -9 -13  -6    1.64    0.76
  -9 -13  -6    1.06    0.87
  -9 -13  -7   66.94    3.50
  -9 -13  -7   65.30    3.61
  -9 -13  -8    8.04    1.32
  -9 -13  -8    6.66    1.24
  -9 -13  -9  111.28    4.86
  -9 -13  -9  111.44    4.69
  -9 -13 -10   -0.36    0.78
  -9 -13 -10   -0.42    0.68
  -9 -13 -11   39.98    2.90
  -9 -13 -11   36.79    2.46
  -9 -13 -12    2.99    1.12
  -9 -13 -12    3.91    0.95
  -9 -13 -13   65.97    4.03
  -9 -13 -14    2.32    0.89
  -9 -14   0   58.40    3.90
  -9 -14  -1    0.89    1.04
  -9 -14  -2  201.83    7.57
  -9 -14  -3   56.22    3.61
  -9 -14  -4    4.27    0.92
  -9 -14  -4    4.95    1.31
  -9 -14  -5    6.91    1.20
  -9 -14  -5    5.14    1.34
  -9 -14  -6   -0.31    0.74
  -9 -14  -6   -0.45    0.91
  -9 -14  -7    8.63    1.39
  -9 -14  -7    6.23    1.28
  -9 -14  -8   -0.57    0.94
  -9 -14  -8    1.33    0.99
  -9 -14  -9   31.63    2.57
  -9 -14  -9   33.69    2.60
  -9 -14 -10   62.13    3.72
  -9 -14 -10   63.92    3.55
  -9 -14 -11   84.32    4.45
  -9 -14 -11   92.97    4.25
  -9 -14 -12    3.09    1.07
  -9 -14 -13   25.73    2.46
  -9 -15  -3    1.66    0.92
  -9 -15  -4   54.68    3.71
  -9 -15  -5    3.70    1.24
  -9 -15  -6    4.31    1.11
  -9 -15  -6    3.88    1.13
  -9 -15  -7    7.89    1.46
  -9 -15  -7    6.00    1.32
  -9 -15  -8  123.68    5.28
  -9 -15  -8  125.22    5.49
  -9 -15  -9    3.37    1.09
  -9 -15  -9    2.94    1.21
  -9 -15 -10    1.45    1.01
  -9 -15 -10    2.54    0.97
  -9 -15 -11    1.36    0.95
  -9 -15 -11    2.09    0.98
  -9 -15 -12   44.59    3.29
  -9 -16  -6    1.81    1.18
  -9 -16  -7    4.61    1.34
  -9 -16  -8   15.36    1.95
  -9 -16  -9   22.59    2.31
  -9 -16  -9   27.52    2.43
  -9 -16 -10   61.65    3.82
  -9 -16 -10   66.83    3.80
  -9 -16 -11   19.18    2.22
 -10   9   2    1.50    1.10
 -10   9   1   21.89    2.54
 -10   9   0    4.84    1.31
 -10   9  -1   29.17    2.81
 -10   9  -2    6.38    1.44
 -10   9  -3  197.45    7.83
 -10   9  -4    4.37    1.28
 -10   9  -5    2.31    1.08
  10  -9   5    0.51    1.03
 -10   9  -6    3.61    1.27
 -10   9  -7   91.53    5.02
 -10   8   6   27.22    2.79
 -10   8   5    1.37    0.99
 -10   8   4  123.31    5.91
 -10   8   3    2.30    1.11
 -10   8   2   26.89    2.67
 -10   8   1    9.22    1.74
 -10   8   0   56.62    3.84
 -10   8  -1   10.10    1.77
 -10   8  -2   25.41    2.54
 -10   8  -3    2.21    1.01
 -10   8  -4    7.65    1.49
 -10   8  -5   17.46    2.19
 -10   8  -6    2.17    1.06
  10  -8   6    1.53    1.20
 -10   8  -7    5.93    1.45
  10  -8   7    4.32    1.23
 -10   8  -8   28.96    2.71
  10  -8   8   33.57    2.90
 -10   8  -9   34.61    2.95
  10  -8   9   35.09    3.04
 -10   8 -10   13.02    1.89
 -10   8 -11   -0.64    0.93
 -10   8 -12    0.50    0.81
 -10   8 -13   44.50    3.41
 -10   8 -14    6.14    1.47
 -10   7   9    1.13    1.08
 -10   7   8   -1.18    0.85
 -10   7   7    6.21    1.56
 -10   7   6    0.34    0.91
 -10   7   5   -0.01    1.24
 -10   7   4   16.27    2.04
 -10   7   3   18.86    2.28
 -10   7   2   32.48    2.87
 -10   7   1    0.32    0.90
 -10   7   0    8.00    1.47
 -10   7  -1   16.89    2.14
 -10   7  -2  317.33   10.12
 -10   7  -3    1.76    0.91
 -10   7  -4   27.68    2.58
 -10   7  -5    8.17    1.53
 -10   7  -6   77.02    4.30
 -10   7  -7    3.46    1.32
  10  -7   7    1.52    0.91
 -10   7  -8   52.99    3.57
  10  -7   8   52.94    3.60
 -10   7  -9    0.34    1.01
  10  -7   9   -0.72    1.02
 -10   7 -10   25.88    2.57
  10  -7  10   29.10    2.74
 -10   7 -11    1.42    0.98
  10  -7  11   -0.62    0.97
 -10   7 -12   18.50    2.14
  10  -7  12   20.59    2.35
 -10   7 -13    1.38    0.88
 -10   7 -14    5.29    1.30
 -10   7 -15   10.05    1.61
 -10   6  11    0.79    1.03
 -10   6  10    2.90    1.20
 -10   6   9  119.93    5.65
 -10   6   8   10.87    1.77
 -10   6   7    3.96    1.25
 -10   6   6    9.86    1.65
 -10   6   5  112.15    5.41
 -10   6   4   18.08    2.20
 -10   6   3   54.49    3.62
 -10   6   2    1.63    0.99
 -10   6   1    0.12    0.90
 -10   6   0    3.09    1.09
 -10   6  -1   27.72    2.55
 -10   6  -2    5.34    1.32
 -10   6  -3   19.52    2.15
 -10   6  -4   37.08    2.84
 -10   6  -5   13.96    1.82
 -10   6  -6    0.16    0.82
 -10   6  -7    8.14    1.47
 -10   6  -8  172.74    6.62
 -10   6  -9    4.97    1.23
  10  -6   9    8.04    1.45
 -10   6 -10   17.28    2.04
  10  -6  10   20.82    2.20
 -10   6 -11    0.95    0.87
  10  -6  11    0.90    0.87
 -10   6 -12   32.22    2.67
  10  -6  12   41.62    3.15
 -10   6 -13    9.11    1.58
  10  -6  13   11.53    1.82
 -10   6 -14    1.54    0.91
  10  -6  14    0.00    1.02
 -10   6 -15    3.72    1.20
  10  -6  15    0.36    0.94
 -10   6 -16    0.13    0.81
 -10   5  11   38.49    3.08
 -10   5  10   23.09    2.39
 -10   5   9   72.66    4.21
 -10   5   8    5.40    1.39
 -10   5   7    7.73    1.50
 -10   5   6    0.62    0.82
 -10   5   5   49.62    3.36
 -10   5   4    1.90    0.95
 -10   5   3  174.15    6.78
 -10   5   2    1.63    1.04
 -10   5   1    1.05    0.87
 -10   5   0   -1.13    0.93
 -10   5  -1  113.20    5.17
 -10   5  -2    0.57    2.12
 -10   5  -3   62.72    3.67
 -10   5  -4    9.00    1.49
 -10   5  -5   61.33    3.59
 -10   5  -6    2.83    1.02
 -10   5  -7   75.94    4.00
 -10   5  -8   12.23    1.72
 -10   5  -9   69.19    3.79
 -10   5 -10    9.61    1.51
 -10   5 -11    4.20    1.05
 -10   5 -12   -0.18    0.85
  10  -5  12    4.41    1.27
 -10   5 -13    5.23    1.29
  10  -5  13    4.26    1.23
 -10   5 -14   74.32    3.65
 -10   5 -14   75.15    4.03
  10  -5  14   86.26    4.56
 -10   5 -15    7.85    1.23
 -10   5 -15    8.89    1.46
  10  -5  15    9.31    1.63
 -10   5 -16   -0.38    0.75
 -10   4  12    0.77    0.87
 -10   4  11    7.90    1.63
 -10   4  10   80.94    4.39
 -10   4   9   45.30    3.27
 -10   4   8  153.05    6.28
 -10   4   7    7.12    1.34
 -10   4   6    3.29    1.20
 -10   4   5   44.69    3.16
 -10   4   4   12.59    1.75
 -10   4   3   57.68    3.50
 -10   4   2   65.47    3.78
 -10   4   1   63.79    3.70
 -10   4   0   37.46    2.83
 -10   4  -1    4.22    1.09
 -10   4  -2   40.35    2.86
 -10   4  -3  106.63    4.81
 -10   4  -4    1.89    0.91
 -10   4  -5   48.28    3.10
 -10   4  -6   47.33    3.03
 -10   4  -7  326.90    9.66
 -10   4  -8   15.20    1.75
 -10   4  -9   49.53    3.11
 -10   4 -10   30.52    2.43
 -10   4 -11   13.28    1.65
 -10   4 -12   11.49    1.53
 -10   4 -13    4.42    1.15
 -10   4 -14   -0.72    0.63
 -10   4 -14    1.70    0.82
 -10   4 -15   55.97    3.10
 -10   4 -15   55.98    3.29
 -10   4 -16    4.98    1.08
 -10   4 -16    6.78    1.17
 -10   3  12    5.60    1.32
 -10   3  11    0.27    0.82
 -10   3  10   14.00    1.93
 -10   3   9    2.21    1.07
 -10   3   8   80.29    4.25
 -10   3   7    4.25    1.20
 -10   3   6   34.40    2.70
 -10   3   5   -0.40    0.96
 -10   3   4  203.12    7.15
 -10   3   3   17.27    1.93
 -10   3   2  159.01    6.09
 -10   3   1    0.72    0.78
 -10   3   0   12.61    1.63
 -10   3  -1   -0.66    0.76
 -10   3  -2   21.51    2.04
 -10   3  -3   23.06    2.09
 -10   3  -4   23.98    2.15
 -10   3  -5   62.90    3.49
 -10   3  -6    1.56    0.78
 -10   3  -7   32.01    2.43
 -10   3  -8   58.48    3.30
 -10   3  -9   28.88    2.30
 -10   3 -10  136.48    5.33
 -10   3 -11    5.37    1.14
 -10   3 -12    7.26    1.25
 -10   3 -13    4.87    1.06
 -10   3 -14    9.08    1.39
 -10   3 -14    7.52    1.19
 -10   3 -15   15.46    1.71
 -10   3 -15   14.82    1.71
 -10   3 -16   17.48    1.76
 -10   3 -16   13.73    1.69
 -10   3 -17    4.88    1.11
 -10   2  12    2.06    1.04
 -10   2  11   13.78    1.87
 -10   2  10    3.48    1.13
 -10   2   9   46.61    3.21
 -10   2   8   48.67    3.24
 -10   2   7   43.32    3.01
 -10   2   6    0.07    0.82
 -10   2   5    2.47    0.98
 -10   2   4   49.44    3.19
 -10   2   3    0.73    0.83
 -10   2   2   81.58    4.02
 -10   2   1   81.19    4.00
 -10   2   0   96.68    4.38
 -10   2  -1    4.09    1.05
 -10   2  -2   78.59    3.90
 -10   2  -3    5.22    1.21
 -10   2  -4  474.47   12.39
 -10   2  -5    4.89    1.10
 -10   2  -6   51.97    3.01
 -10   2  -7   16.11    1.71
 -10   2  -8   46.38    2.82
 -10   2  -9   24.76    2.06
 -10   2 -10   73.70    3.61
 -10   2 -11    0.64    0.72
 -10   2 -12    0.72    0.65
 -10   2 -13   44.66    2.72
 -10   2 -14   19.01    1.82
 -10   2 -14   16.82    1.70
 -10   2 -15    2.29    0.84
 -10   2 -15    0.92    0.82
 -10   2 -16   79.30    3.63
 -10   2 -16   76.56    3.78
 -10   2 -17   15.05    1.75
 -10   2 -18   -0.81    0.90
 -10   2 -19   29.67    2.42
 -10   1  13   11.81    1.71
 -10   1  12    1.09    0.82
 -10   1  11    5.12    1.19
 -10   1  10    1.39    0.93
 -10   1   9    1.32    1.01
 -10   1   8    7.58    1.40
 -10   1   7   22.91    2.15
 -10   1   6    1.55    1.09
 -10   1   5   68.95    3.72
 -10   1   4    9.19    1.45
 -10   1   3   35.97    2.64
 -10   1   2    7.79    1.26
 -10   1   1   62.81    3.39
 -10   1   0    0.36    0.78
 -10   1  -1    1.24    0.84
 -10   1  -2    2.64    0.85
 -10   1  -3   22.13    1.92
 -10   1  -4  106.27    4.47
 -10   1  -5  170.98    5.97
 -10   1  -6  238.94    7.40
 -10   1  -7   40.95    2.61
 -10   1  -8   87.54    3.90
 -10   1  -9    9.89    1.37
 -10   1 -10   61.98    3.16
 -10   1 -11   21.91    1.84
 -10   1 -12    1.27    0.75
 -10   1 -13   32.60    2.26
 -10   1 -14   93.55    3.93
 -10   1 -14   87.70    4.00
 -10   1 -15   46.79    2.63
 -10   1 -15   40.74    2.66
 -10   1 -16   72.29    3.32
 -10   1 -16   69.81    3.65
 -10   1 -17    0.39    0.67
 -10   1 -18   10.14    1.47
 -10   1 -19    1.93    0.82
 -10   1 -20   12.36    1.67
 -10   0  13   22.54    2.33
 -10   0  12    0.18    0.96
 -10   0  11   -0.27    0.91
 -10   0  10   12.21    1.68
 -10   0   9    1.52    0.98
 -10   0   8   45.76    3.04
 -10   0   7   -0.25    0.86
 -10   0   6   19.38    1.98
 -10   0   5   55.71    3.27
 -10   0   4   44.89    2.92
 -10   0   3  198.17    6.75
 -10   0   2   -0.90    0.70
 -10   0   1   83.11    3.90
 -10   0   0   10.64    1.43
 -10   0  -1   34.67    2.40
 -10   0  -2    2.88    0.96
 -10   0  -3  355.04    9.75
 -10   0  -4    1.94    0.82
 -10   0  -5   94.32    4.02
 -10   0  -6    1.43    0.73
 -10   0  -7    9.34    1.30
 -10   0  -8    1.06    0.65
 -10   0  -9    5.84    1.05
 -10   0 -10    3.77    0.94
 -10   0 -11   26.82    1.97
 -10   0 -12   20.72    1.70
 -10   0 -13   29.44    2.02
 -10   0 -14    4.95    0.91
 -10   0 -14    4.80    1.04
 -10   0 -15  172.17    5.41
 -10   0 -15  159.88    5.90
 -10   0 -16   56.75    2.72
 -10   0 -16   54.20    3.17
 -10   0 -17   31.35    2.42
 -10   0 -18    8.23    1.29
 -10   0 -19    0.85    0.79
 -10   0 -20    0.60    0.73
 -10   0 -21    0.65    0.76
 -10  -1  13    4.58    1.43
 -10  -1  12   26.96    2.44
 -10  -1  11    0.57    0.81
 -10  -1  10   25.92    2.40
 -10  -1   9    1.40    1.01
 -10  -1   8   77.48    4.04
 -10  -1   7   26.15    2.26
 -10  -1   6   21.67    2.05
 -10  -1   5    1.60    0.88
 -10  -1   4  105.23    4.59
 -10  -1   3    1.61    0.89
 -10  -1   2   35.37    2.49
 -10  -1   1   42.65    2.72
 -10  -1   0  206.88    6.71
 -10  -1  -1   37.90    2.51
 -10  -1  -2    3.06    0.92
 -10  -1  -3  116.82    4.56
 -10  -1  -4  154.52    5.39
 -10  -1  -5  561.12   13.61
 -10  -1  -6   53.39    2.84
 -10  -1  -7    5.79    0.98
 -10  -1  -8    0.20    0.63
 -10  -1  -9  137.62    4.83
 -10  -1 -10   -0.37    0.70
 -10  -1 -11   31.49    2.06
 -10  -1 -12    0.21    0.61
 -10  -1 -13    8.65    1.06
 -10  -1 -13    8.19    1.23
 -10  -1 -14   13.69    1.30
 -10  -1 -14   11.22    1.50
 -10  -1 -15  127.81    4.35
 -10  -1 -15  127.45    5.14
 -10  -1 -16    7.71    1.00
 -10  -1 -16    6.93    1.24
 -10  -1 -17   63.62    3.54
 -10  -1 -18    9.82    1.45
 -10  -1 -19    0.85    0.75
 -10  -1 -20    2.91    0.91
 -10  -1 -21   22.20    2.19
 -10  -1 -22   22.36    2.28
 -10  -2  13    1.83    1.13
 -10  -2  13   -0.61    0.99
 -10  -2  12    1.24    0.83
 -10  -2  12    4.89    1.20
 -10  -2  11   -0.15    0.76
 -10  -2  11    0.92    0.93
 -10  -2  10    9.30    1.52
 -10  -2   9   -0.18    0.99
 -10  -2   8   70.75    3.88
 -10  -2   7    0.24    0.78
 -10  -2   6  199.60    6.93
 -10  -2   5    1.03    0.86
 -10  -2   4  109.62    4.71
 -10  -2   3    9.97    1.44
 -10  -2   2  192.98    6.52
 -10  -2   1    5.15    0.97
 -10  -2   0   35.84    2.48
 -10  -2  -1    0.57    0.73
 -10  -2  -2   16.65    1.60
 -10  -2  -3   10.03    1.30
 -10  -2  -4   99.42    4.05
 -10  -2  -5   20.00    1.71
 -10  -2  -6  133.86    4.77
 -10  -2  -7    1.29    0.71
  10   2   7    0.04    0.64
 -10  -2  -8    0.85    0.62
  10   2   8    0.11    0.54
 -10  -2  -9   59.12    2.87
 -10  -2 -10   85.33    3.50
 -10  -2 -11  136.96    4.65
 -10  -2 -12   54.36    2.63
 -10  -2 -13   14.75    1.34
 -10  -2 -13   14.85    1.64
 -10  -2 -14    2.09    0.62
 -10  -2 -14    3.15    0.92
 -10  -2 -15   67.40    2.83
 -10  -2 -15   64.29    3.49
 -10  -2 -16  122.20    3.93
 -10  -2 -16  116.75    4.99
 -10  -2 -17   16.28    1.83
 -10  -2 -18    1.49    0.83
 -10  -2 -19    1.18    0.77
 -10  -2 -20   24.76    2.33
 -10  -2 -21   18.82    2.07
 -10  -3  13   44.96    3.29
 -10  -3  13   45.48    3.28
 -10  -3  12    0.35    0.88
 -10  -3  12    2.28    1.23
 -10  -3  12    2.56    0.93
 -10  -3  11    0.19    0.86
 -10  -3  11    0.74    0.79
 -10  -3  10   13.26    1.75
 -10  -3  10   12.49    1.69
 -10  -3   9   89.42    4.40
 -10  -3   8   18.28    2.00
 -10  -3   7   24.86    2.33
 -10  -3   6   65.97    3.64
 -10  -3   5   20.98    2.02
 -10  -3   4    2.77    0.90
 -10  -3   3   -0.21    0.78
 -10  -3   2   23.66    2.05
 -10  -3   1   65.85    3.41
 -10  -3   0    2.72    0.94
 -10  -3  -1   21.36    1.86
 -10  -3  -2   22.10    1.89
 -10  -3  -3   26.42    1.99
 -10  -3  -4  261.06    7.61
 -10  -3  -5    1.11    0.74
 -10  -3  -6   26.02    1.94
 -10  -3  -7  104.71    4.09
  10   3   7  114.29    4.28
  10   3   8   16.18    1.49
 -10  -3  -8   15.59    1.48
 -10  -3  -9    2.93    0.75
  10   3   9    2.44    0.73
 -10  -3 -10   18.18    1.65
  10   3  10   18.22    1.52
 -10  -3 -11    4.76    0.88
 -10  -3 -12  110.84    3.96
 -10  -3 -12  114.84    4.63
 -10  -3 -13    1.10    0.59
 -10  -3 -13    0.52    0.75
 -10  -3 -14   49.98    2.34
 -10  -3 -14   55.12    3.16
 -10  -3 -15    6.85    0.85
 -10  -3 -15    5.16    1.11
 -10  -3 -16  130.55    3.96
 -10  -3 -16  129.14    5.35
 -10  -3 -17   43.96    3.00
 -10  -3 -18    9.17    1.60
 -10  -3 -19    1.33    0.91
 -10  -3 -20   13.75    1.83
 -10  -3 -21    3.68    1.25
 -10  -4  12    6.77    1.40
 -10  -4  12    6.70    1.36
 -10  -4  12    9.55    1.66
 -10  -4  11   20.61    2.12
 -10  -4  11   21.78    2.26
 -10  -4  11   22.12    2.32
 -10  -4  10   40.32    2.92
 -10  -4  10   43.66    3.11
 -10  -4   9   40.88    2.94
 -10  -4   9   41.86    3.07
 -10  -4   8    2.23    0.96
 -10  -4   7  167.14    6.26
 -10  -4   6    4.35    1.14
 -10  -4   5  105.59    4.73
 -10  -4   4    0.37    0.83
 -10  -4   3    1.01    0.86
 -10  -4   2    2.42    0.92
 -10  -4   1   12.32    1.51
 -10  -4   0    2.55    0.84
 -10  -4  -1   25.94    2.07
 -10  -4  -2    6.58    1.12
 -10  -4  -3    1.01    0.78
 -10  -4  -4    5.92    1.00
 -10  -4  -5  356.24    9.44
 -10  -4  -6  393.31   10.12
 -10  -4  -7  261.74    7.58
  10   4   7  291.52    8.03
 -10  -4  -8    5.39    0.96
  10   4   8    5.76    0.97
  10   4   9   15.13    1.41
 -10  -4  -9   14.18    1.38
 -10  -4 -10  212.50    6.24
  10   4  10  214.90    6.33
 -10  -4 -11   34.02    2.00
  10   4  11   33.60    2.00
 -10  -4 -11   35.91    2.40
 -10  -4 -12  120.65    4.11
 -10  -4 -12  126.03    4.97
 -10  -4 -13   42.11    2.14
 -10  -4 -13   41.27    2.75
 -10  -4 -14   54.11    2.40
 -10  -4 -14   53.94    3.22
 -10  -4 -15    2.85    0.63
 -10  -4 -15    2.61    0.94
 -10  -4 -16   21.97    2.14
 -10  -4 -17    2.21    0.90
 -10  -4 -18   25.13    2.36
 -10  -4 -19    9.36    1.56
 -10  -4 -20    1.11    0.88
 -10  -4 -21    5.96    1.32
 -10  -5  12   11.04    1.74
 -10  -5  11    1.14    1.02
 -10  -5  11   -0.40    0.83
 -10  -5  10    0.62    0.84
 -10  -5  10   -0.18    0.99
 -10  -5  10   -0.23    0.86
 -10  -5   9   41.99    3.01
 -10  -5   9   44.71    3.16
 -10  -5   8   23.78    2.29
 -10  -5   8   30.61    2.58
 -10  -5   7   35.45    2.77
 -10  -5   6   10.96    1.67
 -10  -5   5   89.03    4.30
 -10  -5   4   18.31    1.90
 -10  -5   3    0.26    0.77
 -10  -5   2    2.47    1.01
 -10  -5   1   40.83    2.74
 -10  -5   0    6.12    1.16
 -10  -5  -1   15.85    1.65
 -10  -5  -2   11.64    1.39
 -10  -5  -3   17.20    1.63
 -10  -5  -4    8.59    1.23
 -10  -5  -5    1.25    0.69
 -10  -5  -6    1.82    0.76
  10   5   7   33.69    2.23
 -10  -5  -7   32.79    2.13
 -10  -5  -8   -0.97    0.64
  10   5   8    0.95    0.70
  10   5   9   94.85    3.84
 -10  -5  -9   99.00    3.78
 -10  -5 -10    1.00    0.78
 -10  -5 -10    0.96    0.59
  10   5  10   -0.33    0.54
 -10  -5 -11  140.19    5.23
  10   5  11  128.40    4.48
 -10  -5 -11  133.84    4.46
 -10  -5 -12  232.30    7.44
  10   5  12  222.28    6.49
 -10  -5 -12  247.55    6.62
 -10  -5 -13  260.28    8.04
 -10  -5 -13  271.89    6.86
  10   5  13  242.84    6.73
 -10  -5 -13  237.05    7.06
 -10  -5 -14   30.30    2.43
 -10  -5 -14   29.42    1.64
 -10  -5 -14   24.41    1.79
 -10  -5 -15    0.34    0.52
 -10  -5 -15    1.06    0.89
 -10  -5 -16  106.78    4.87
 -10  -5 -17   45.10    3.13
 -10  -5 -18   46.42    3.20
 -10  -5 -19    6.48    1.37
 -10  -5 -20    1.33    1.04
 -10  -6  12   21.48    2.36
 -10  -6  11    2.54    1.06
 -10  -6  10    3.22    1.17
 -10  -6   9    1.37    0.90
 -10  -6   9    3.44    1.17
 -10  -6   8   69.72    4.00
 -10  -6   8   77.36    4.22
 -10  -6   7    0.14    0.93
 -10  -6   7    1.44    1.03
 -10  -6   6   91.92    4.46
 -10  -6   6   90.69    4.50
 -10  -6   5    9.98    1.46
 -10  -6   4    7.33    1.25
 -10  -6   3    0.58    0.86
 -10  -6   2   15.86    1.75
 -10  -6   1   12.59    1.55
 -10  -6   0  108.97    4.54
 -10  -6  -1   94.63    4.14
 -10  -6  -2    0.54    0.68
 -10  -6  -3   -0.25    0.70
 -10  -6  -4   12.32    1.47
 -10  -6  -5  102.50    4.19
 -10  -6  -6   20.98    1.75
 -10  -6  -7    2.39    0.78
 -10  -6  -8    1.50    0.63
  10   6   8    2.23    0.75
 -10  -6  -9   36.31    2.42
  10   6   9   34.58    2.18
 -10  -6  -9   34.97    2.13
 -10  -6 -10   44.99    2.75
  10   6  10   39.75    2.34
 -10  -6 -10   40.51    2.28
 -10  -6 -11    5.22    1.12
  10   6  11    5.40    0.90
 -10  -6 -11    5.68    0.95
 -10  -6 -12    5.37    1.14
 -10  -6 -12    6.60    0.90
  10   6  12    5.98    0.85
 -10  -6 -13   40.31    2.74
 -10  -6 -13   38.33    2.01
  10   6  13   34.46    1.98
 -10  -6 -13   36.53    2.18
 -10  -6 -14   37.76    2.75
 -10  -6 -14   44.05    2.08
 -10  -6 -14   37.47    2.21
 -10  -6 -15   14.62    1.81
 -10  -6 -16    1.76    0.91
 -10  -6 -17  102.30    4.89
 -10  -6 -18   19.17    2.20
 -10  -6 -19   65.87    3.98
 -10  -6 -20    4.43    1.18
 -10  -7  10   -0.36    1.01
 -10  -7   9    5.58    1.36
 -10  -7   8    1.54    0.99
 -10  -7   7   28.70    2.54
 -10  -7   7   29.82    2.62
 -10  -7   6  176.43    6.70
 -10  -7   6  169.04    6.64
 -10  -7   5   28.07    2.48
 -10  -7   5   31.59    2.61
 -10  -7   4  122.18    5.20
 -10  -7   4  128.45    5.42
 -10  -7   3   12.45    1.60
 -10  -7   2   41.16    2.84
 -10  -7   1   -0.77    1.00
 -10  -7   0   69.48    3.61
 -10  -7  -1    4.55    1.07
 -10  -7  -2   39.06    2.58
 -10  -7  -3    2.05    0.85
 -10  -7  -4  226.47    7.08
 -10  -7  -5   12.79    1.39
 -10  -7  -6    2.22    0.69
 -10  -7  -6    2.27    0.83
 -10  -7  -7  185.91    5.75
 -10  -7  -7  190.65    6.04
 -10  -7  -8    3.99    0.93
 -10  -7  -8    3.23    0.90
 -10  -7  -9   -0.12    0.72
  10   7   9    1.16    0.63
 -10  -7  -9    1.05    0.71
 -10  -7 -10  224.43    7.14
  10   7  10  215.37    6.61
 -10  -7 -10  221.81    6.47
 -10  -7 -11   62.80    3.38
  10   7  11   58.22    2.87
 -10  -7 -11   62.95    2.85
 -10  -7 -12   58.74    3.39
 -10  -7 -12   63.72    2.79
  10   7  12   59.57    2.84
 -10  -7 -13   39.11    2.76
  10   7  13   42.70    2.25
 -10  -7 -13   39.72    2.34
 -10  -7 -14   40.17    2.84
 -10  -7 -15   17.80    1.93
 -10  -7 -16    9.46    1.48
 -10  -7 -17   72.21    4.12
 -10  -7 -18   13.09    1.90
 -10  -7 -19   15.08    2.05
 -10  -8   9    3.01    1.15
 -10  -8   8    0.43    0.95
 -10  -8   7   18.65    2.11
 -10  -8   6    0.66    0.99
 -10  -8   5    1.23    1.00
 -10  -8   4   29.54    2.59
 -10  -8   3   21.44    2.17
 -10  -8   3   30.52    2.54
 -10  -8   2    6.92    1.27
 -10  -8   2    8.12    1.38
 -10  -8   1  124.50    5.23
 -10  -8   0  226.92    7.52
 -10  -8  -1  102.38    4.53
 -10  -8  -2  193.81    6.61
 -10  -8  -3   37.60    2.55
 -10  -8  -4   31.98    2.37
 -10  -8  -5    0.83    0.48
 -10  -8  -5   -0.09    0.63
 -10  -8  -6   60.02    2.71
 -10  -8  -6   63.99    3.21
 -10  -8  -6   63.44    3.20
 -10  -8  -7   32.82    1.96
 -10  -8  -7   31.70    2.23
 -10  -8  -7   32.50    2.27
 -10  -8  -8    0.10    0.50
 -10  -8  -8   -0.20    0.69
 -10  -8  -8   -0.37    0.67
 -10  -8  -9   15.01    1.47
 -10  -8  -9   15.51    1.67
 -10  -8 -10   22.18    1.71
 -10  -8 -10   20.65    1.95
  10   8  11   13.19    1.37
 -10  -8 -11   19.09    1.89
  10   8  12   23.15    1.78
 -10  -8 -12   25.76    2.24
 -10  -8 -13    2.90    0.98
 -10  -8 -14   46.55    3.08
 -10  -8 -15    2.87    1.14
 -10  -8 -16   15.45    1.94
 -10  -8 -17   14.63    1.89
 -10  -8 -18  102.31    5.16
 -10  -9   7    4.07    1.51
 -10  -9   6   25.86    2.51
 -10  -9   5   75.56    4.24
 -10  -9   4    2.87    1.17
 -10  -9   3   18.25    2.07
 -10  -9   2    1.02    0.85
 -10  -9   1  159.16    6.19
 -10  -9   0    7.95    1.35
 -10  -9  -1   60.73    3.48
 -10  -9  -2   14.23    1.72
 -10  -9  -2   12.76    1.06
 -10  -9  -3   35.08    1.85
 -10  -9  -4   28.87    2.10
 -10  -9  -4   26.36    1.58
 -10  -9  -5    6.98    1.12
 -10  -9  -5    4.87    0.76
 -10  -9  -6   53.31    2.94
 -10  -9  -6   50.76    2.41
 -10  -9  -7   89.37    3.97
 -10  -9  -7   85.85    3.38
 -10  -9  -8  191.30    6.48
 -10  -9  -8  195.41    5.86
 -10  -9  -9    0.67    0.79
 -10  -9 -10   61.06    3.37
 -10  -9 -11   82.43    4.04
 -10  -9 -12   24.93    2.28
 -10  -9 -13   14.68    1.85
 -10  -9 -14    4.84    1.13
 -10  -9 -15    3.40    1.11
 -10  -9 -15    1.05    0.79
 -10  -9 -16    2.76    1.14
 -10  -9 -17    9.33    1.66
 -10  -9 -18   43.03    3.36
 -10 -10   6    9.38    1.76
 -10 -10   5    3.95    1.33
 -10 -10   4   38.61    2.98
 -10 -10   3   80.02    4.37
 -10 -10   2    4.08    1.23
 -10 -10   1   68.74    3.94
 -10 -10   0   42.32    2.41
 -10 -10   0   36.47    2.84
 -10 -10  -1  102.77    4.06
 -10 -10  -1  106.46    4.85
 -10 -10  -2   35.58    2.29
 -10 -10  -2   32.61    2.58
 -10 -10  -3    7.42    1.16
 -10 -10  -3    9.63    1.44
 -10 -10  -4   27.12    2.03
 -10 -10  -4   29.71    2.39
 -10 -10  -5   49.06    2.80
 -10 -10  -5   47.70    2.95
 -10 -10  -5   46.18    2.15
 -10 -10  -6    0.62    0.69
 -10 -10  -6    0.29    0.48
 -10 -10  -6   -0.07    0.78
 -10 -10  -7   13.10    1.52
 -10 -10  -7   11.89    1.48
 -10 -10  -7   11.48    1.11
 -10 -10  -8    1.27    0.75
 -10 -10  -8    2.78    0.86
 -10 -10  -8    2.32    0.65
 -10 -10  -9   38.46    2.64
 -10 -10  -9   34.83    2.39
 -10 -10 -10    6.36    1.21
 -10 -10 -10    5.25    1.05
 -10 -10 -11   25.66    2.24
 -10 -10 -11   22.16    1.86
 -10 -10 -12   18.09    1.95
 -10 -10 -12   16.76    1.65
 -10 -10 -13  137.81    5.66
 -10 -10 -13  128.78    4.72
 -10 -10 -14   18.97    2.02
 -10 -10 -14   19.22    1.65
 -10 -10 -15    1.83    1.06
 -10 -10 -16    2.71    1.19
 -10 -10 -17   30.31    2.78
 -10 -11   4   15.42    2.11
 -10 -11   3    6.32    1.48
 -10 -11   2   12.36    1.87
 -10 -11   1    4.35    0.86
 -10 -11   1    2.80    1.09
 -10 -11   0   25.28    1.84
 -10 -11   0   21.90    2.28
 -10 -11  -1    6.52    1.05
 -10 -11  -1    9.11    1.59
 -10 -11  -2   28.99    2.06
 -10 -11  -2   30.31    2.59
 -10 -11  -3   10.10    1.29
 -10 -11  -3   11.77    1.69
 -10 -11  -4   29.64    2.17
 -10 -11  -4   28.70    2.40
 -10 -11  -5   34.86    2.37
 -10 -11  -5   32.60    2.54
 -10 -11  -6  112.35    4.60
 -10 -11  -6  105.06    4.67
 -10 -11  -7   75.22    3.69
 -10 -11  -7   74.38    3.77
 -10 -11  -8   37.09    2.60
 -10 -11  -8   36.64    2.56
 -10 -11  -9    8.64    1.36
 -10 -11  -9    9.87    1.31
 -10 -11 -10    9.50    1.47
 -10 -11 -10   11.81    1.49
 -10 -11 -11   23.58    2.22
 -10 -11 -11   20.12    1.85
 -10 -11 -12    0.43    0.86
 -10 -11 -12    0.58    0.69
 -10 -11 -13   12.21    1.74
 -10 -11 -13   13.41    1.42
 -10 -11 -14   30.02    2.62
 -10 -11 -14   28.11    1.99
 -10 -11 -15  122.85    5.67
 -10 -11 -16   15.31    2.04
 -10 -12   2    3.80    1.42
 -10 -12   1   30.78    2.73
 -10 -12   0   72.98    4.27
 -10 -12  -1    0.66    0.55
 -10 -12  -1   -1.03    0.91
 -10 -12  -2    0.53    0.66
 -10 -12  -2    1.56    1.10
 -10 -12  -3    3.22    0.90
 -10 -12  -3    4.35    1.33
 -10 -12  -4    7.08    1.09
 -10 -12  -4    6.00    1.26
 -10 -12  -5   -0.42    0.68
 -10 -12  -5   -0.09    0.89
 -10 -12  -6   37.22    2.54
 -10 -12  -6   40.45    2.88
 -10 -12  -7    0.42    0.75
 -10 -12  -7    2.74    1.11
 -10 -12  -8  350.73   10.17
 -10 -12  -8  362.30   10.25
 -10 -12  -9   43.54    2.92
 -10 -12  -9   41.14    2.77
 -10 -12 -10   12.81    1.71
 -10 -12 -10   13.82    1.63
 -10 -12 -11   40.47    2.94
 -10 -12 -11   44.32    2.78
 -10 -12 -12   48.40    3.28
 -10 -12 -12   48.79    2.85
 -10 -12 -13   21.04    2.22
 -10 -12 -13   21.36    1.82
 -10 -12 -14   63.08    3.90
 -10 -12 -15   14.43    1.99
 -10 -13   0   14.81    2.00
 -10 -13  -1   16.32    2.03
 -10 -13  -2   33.20    2.20
 -10 -13  -2   32.69    2.89
 -10 -13  -3    7.64    1.19
 -10 -13  -3    6.20    1.48
 -10 -13  -4    1.53    0.79
 -10 -13  -4    1.10    0.96
 -10 -13  -5    2.60    0.84
 -10 -13  -5    4.49    1.35
 -10 -13  -6   35.62    2.54
 -10 -13  -6   36.88    3.05
 -10 -13  -7   44.67    2.86
 -10 -13  -7   41.44    2.97
 -10 -13  -8   21.63    2.03
 -10 -13  -8   20.12    2.08
 -10 -13  -9   17.73    1.95
 -10 -13  -9   19.07    1.96
 -10 -13 -10   54.59    3.43
 -10 -13 -10   59.52    3.39
 -10 -13 -11    1.58    0.89
 -10 -13 -11    0.44    0.76
 -10 -13 -12    1.71    1.00
 -10 -13 -12    1.64    0.84
 -10 -13 -13    1.34    1.05
 -10 -13 -14   47.66    3.44
 -10 -14  -2   13.95    1.95
 -10 -14  -3   70.92    4.29
 -10 -14  -4    7.86    1.17
 -10 -14  -4    9.74    1.67
 -10 -14  -5   38.34    2.62
 -10 -14  -5   38.66    3.05
 -10 -14  -6    2.21    0.88
 -10 -14  -6    2.45    1.04
 -10 -14  -7  195.75    6.84
 -10 -14  -7  188.43    7.07
 -10 -14  -8   62.51    3.60
 -10 -14  -8   64.85    3.70
 -10 -14  -9   61.87    3.65
 -10 -14  -9   60.08    3.55
 -10 -14 -10    1.62    1.13
 -10 -14 -10    0.83    0.86
 -10 -14 -11    9.35    1.54
 -10 -14 -11   11.27    1.50
 -10 -14 -12   22.39    2.37
 -10 -14 -12   21.14    2.01
 -10 -14 -13    9.10    1.65
 -10 -15  -5    0.60    1.01
 -10 -15  -6    0.19    0.84
 -10 -15  -7   -1.16    0.79
 -10 -15  -7   -1.75    0.96
 -10 -15  -8    6.89    1.37
 -10 -15  -8    7.18    1.39
 -10 -15  -9  167.76    6.60
 -10 -15  -9  172.29    6.65
 -10 -15 -10    2.13    1.01
 -10 -15 -10    1.67    1.01
 -10 -15 -11   56.25    3.68
 -10 -15 -11   56.84    3.50
 -10 -15 -12    0.37    0.89
 -10 -16  -8    7.48    1.49
 -10 -16  -9    3.74    1.21
 -10 -16  -9    3.24    1.23
 -10 -16 -10    1.75    1.07
 -10 -16 -10    0.37    0.97
 -11   8  -1  110.79    5.70
 -11   8  -2   28.28    2.89
 -11   8  -3   51.25    3.79
 -11   8  -4    7.56    1.72
 -11   8  -5   16.48    2.19
 -11   8  -6   25.52    2.65
 -11   8  -7   17.32    2.33
 -11   7   4   51.45    3.72
 -11   7   3    2.42    1.27
 -11   7   2    0.41    0.92
 -11   7   1    0.97    1.02
 -11   7   0    1.99    1.07
 -11   7  -1   37.46    3.17
 -11   7  -2   -0.85    1.10
 -11   7  -3    4.34    1.28
 -11   7  -4   -0.25    0.92
 -11   7  -5   11.22    1.80
 -11   7  -6    2.29    1.00
 -11   7  -7    9.95    1.67
 -11   7  -8    3.43    1.25
 -11   7  -9   29.23    2.81
 -11   7 -10   -1.60    1.08
 -11   7 -11   44.80    3.36
 -11   7 -12   13.15    1.94
 -11   7 -13   94.38    5.01
 -11   7 -14    4.06    1.39
 -11   6   7   -0.39    1.10
 -11   6   6    7.33    1.50
 -11   6   5    1.99    1.08
 -11   6   4   95.92    5.19
 -11   6   3    4.00    1.43
 -11   6   2   83.62    4.69
 -11   6   1    7.39    1.50
 -11   6   0   15.36    2.00
 -11   6  -1   66.00    4.11
 -11   6  -2  114.20    5.50
 -11   6  -3   73.04    4.37
 -11   6  -4    1.33    1.06
 -11   6  -5   72.01    4.25
 -11   6  -6   19.44    2.14
 -11   6  -7    2.98    1.22
 -11   6  -8   10.74    1.66
 -11   6  -9   38.57    3.04
 -11   6 -10   -0.52    0.86
 -11   6 -11    3.12    1.05
 -11   6 -12    9.43    1.53
 -11   6 -13  120.96    5.64
 -11   6 -14   10.84    1.63
 -11   6 -15   59.94    3.84
 -11   5   9   28.20    2.74
 -11   5   8   14.18    1.98
 -11   5   7    1.14    0.86
 -11   5   6   48.10    3.49
 -11   5   5   26.04    2.52
 -11   5   4   33.99    2.90
 -11   5   3   27.07    2.57
 -11   5   2   23.66    2.44
 -11   5   1    0.79    0.93
 -11   5   0    3.42    1.27
 -11   5  -1    2.63    1.13
 -11   5  -2   74.19    4.21
 -11   5  -3   -0.10    0.91
 -11   5  -4   85.56    4.54
 -11   5  -5    0.94    0.91
 -11   5  -6   35.65    2.89
 -11   5  -7   24.41    2.48
 -11   5  -8   96.62    4.79
 -11   5  -9    7.30    1.49
 -11   5 -10    4.06    1.24
 -11   5 -11    2.85    1.10
 -11   5 -12   19.70    2.16
 -11   5 -13   13.70    1.82
 -11   5 -14   76.80    4.22
 -11   5 -15   14.52    1.92
 -11   5 -16   16.21    2.06
 -11   4  10    8.23    1.59
 -11   4   9    1.92    1.05
 -11   4   8    1.41    1.04
 -11   4   7   15.76    2.04
 -11   4   6    0.20    0.89
 -11   4   5   18.31    2.11
 -11   4   4   12.98    1.75
 -11   4   3   67.92    4.00
 -11   4   2    2.39    1.19
 -11   4   1    2.23    1.13
 -11   4   0   18.12    2.10
 -11   4  -1   58.37    3.61
 -11   4  -2   96.15    4.72
 -11   4  -3   19.21    2.15
 -11   4  -4    3.12    1.23
 -11   4  -5   12.31    1.71
 -11   4  -6   18.06    2.03
 -11   4  -7   -1.14    0.82
 -11   4  -8  108.75    5.02
 -11   4  -9   14.40    1.88
 -11   4 -10   78.29    4.17
 -11   4 -11    3.58    1.12
 -11   4 -12    4.74    1.16
 -11   4 -13    0.42    0.82
 -11   4 -14  136.35    5.73
 -11   4 -15    1.41    1.00
 -11   4 -15   -0.21    0.79
 -11   4 -16    2.51    1.04
 -11   4 -16    0.51    0.71
 -11   3  11   -0.33    1.02
 -11   3  10   43.04    3.29
 -11   3   9   35.42    2.91
 -11   3   8   21.44    2.37
 -11   3   7    1.15    0.93
 -11   3   6    0.40    0.81
 -11   3   5    3.34    1.07
 -11   3   4   -0.26    0.85
 -11   3   3    2.56    1.09
 -11   3   2    6.79    1.36
 -11   3   1   29.03    2.51
 -11   3   0    1.65    1.10
 -11   3  -1   12.88    1.70
 -11   3  -2    2.51    1.16
 -11   3  -3  143.24    5.82
 -11   3  -4    1.00    0.83
 -11   3  -5    1.14    0.93
 -11   3  -6  146.15    5.85
 -11   3  -7   26.25    2.26
 -11   3  -8    4.98    1.20
 -11   3  -9   85.03    4.25
 -11   3 -10   27.37    2.37
 -11   3 -11   -0.91    0.79
 -11   3 -12    3.48    1.10
 -11   3 -13    2.72    0.95
 -11   3 -14   68.97    3.75
 -11   3 -15   34.00    2.54
 -11   3 -15   33.72    2.52
 -11   3 -16   41.91    2.81
 -11   3 -16   35.57    2.66
 -11   3 -17    2.10    1.14
 -11   2  11    8.79    1.60
 -11   2  10    1.02    0.94
 -11   2   9    3.91    1.28
 -11   2   8   56.52    3.70
 -11   2   7   22.61    2.32
 -11   2   6    5.79    1.22
 -11   2   5   20.23    2.21
 -11   2   4    2.20    0.95
 -11   2   3   12.45    1.74
 -11   2   2    0.03    0.94
 -11   2   1   13.24    1.72
 -11   2   0   43.65    3.00
 -11   2  -1   12.85    1.69
 -11   2  -2   16.46    1.86
 -11   2  -3    6.63    1.33
 -11   2  -4   22.04    2.08
 -11   2  -5  238.57    7.83
 -11   2  -6    4.04    1.12
 -11   2  -7   11.80    1.63
 -11   2  -8    1.48    0.94
 -11   2  -9  183.43    6.51
 -11   2 -10    0.06    0.71
 -11   2 -11   18.91    1.88
 -11   2 -12    1.50    0.76
 -11   2 -13    3.03    0.88
 -11   2 -14    1.24    0.81
 -11   2 -15   66.40    3.50
 -11   2 -15   60.69    3.43
 -11   2 -16    2.56    0.93
 -11   2 -16   -0.09    0.66
 -11   2 -17    3.17    1.00
 -11   2 -18    4.67    1.21
 -11   1  11    1.73    1.01
 -11   1  10   63.13    3.90
 -11   1   9    7.88    1.55
 -11   1   8    5.54    1.31
 -11   1   7    1.78    0.93
 -11   1   6   -0.53    0.91
 -11   1   5    0.45    0.83
 -11   1   4    0.83    0.80
 -11   1   3    3.52    1.03
 -11   1   2   93.94    4.48
 -11   1   1   11.68    1.58
 -11   1   0   15.11    1.82
 -11   1  -1   17.43    1.87
 -11   1  -2  271.77    8.46
 -11   1  -3   94.61    4.36
 -11   1  -4  230.59    7.52
 -11   1  -5   -1.13    0.95
 -11   1  -6    1.71    0.83
 -11   1  -7   33.97    2.51
 -11   1  -8   13.42    1.56
 -11   1  -9   11.87    1.49
 -11   1 -10   84.30    3.96
 -11   1 -11  102.47    4.44
 -11   1 -12    0.77    0.71
 -11   1 -13   15.07    1.63
 -11   1 -14    8.02    1.29
 -11   1 -15  183.92    6.16
 -11   1 -15  173.20    6.34
 -11   1 -16    0.29    0.67
 -11   1 -16   -0.81    0.74
 -11   1 -17    6.77    1.36
 -11   1 -18    6.54    1.24
 -11   1 -19    9.42    1.50
 -11   1 -20    0.63    0.69
 -11   0  12   -0.88    1.05
 -11   0  11    2.56    1.22
 -11   0  10   21.19    2.29
 -11   0   9   35.46    2.84
 -11   0   8   28.00    2.54
 -11   0   7   20.49    2.19
 -11   0   6   11.19    1.61
 -11   0   5   25.69    2.31
 -11   0   4   29.43    2.52
 -11   0   3    0.43    0.85
 -11   0   2   15.44    1.79
 -11   0   1    5.05    1.18
 -11   0   0   38.30    2.69
 -11   0  -1   -1.00    0.76
 -11   0  -2    2.58    1.00
 -11   0  -3    2.90    0.97
 -11   0  -4  333.36    9.56
 -11   0  -5    2.43    0.94
 -11   0  -6  182.02    6.29
 -11   0  -7    1.12    0.74
 -11   0  -8  178.90    6.15
 -11   0  -9   18.71    1.80
 -11   0 -10  179.85    6.10
 -11   0 -11    1.57    0.86
 -11   0 -12    9.34    1.26
 -11   0 -13   16.73    1.64
 -11   0 -14   65.91    3.27
 -11   0 -14   65.85    3.54
 -11   0 -15   39.48    2.43
 -11   0 -15   37.16    2.62
 -11   0 -16   92.57    3.82
 -11   0 -16   84.64    4.27
 -11   0 -17   13.68    1.72
 -11   0 -18   -0.05    0.66
 -11   0 -19    5.40    1.30
 -11   0 -20    0.79    0.77
 -11   0 -21   27.23    2.63
 -11  -1  12    1.08    1.00
 -11  -1  11    0.73    0.90
 -11  -1  10    1.11    0.90
 -11  -1   9    7.49    1.47
 -11  -1   8    1.33    1.06
 -11  -1   7  184.41    6.95
 -11  -1   6    2.24    1.12
 -11  -1   5   34.50    2.68
 -11  -1   4   17.66    1.97
 -11  -1   3  150.15    5.89
 -11  -1   2   95.12    4.44
 -11  -1   1   15.87    1.81
 -11  -1   0    5.38    1.06
 -11  -1  -1   12.87    1.63
 -11  -1  -2    1.79    0.88
 -11  -1  -3   15.69    1.77
 -11  -1  -4   15.33    1.64
 -11  -1  -5   19.69    1.81
 -11  -1  -6   37.68    2.50
 -11  -1  -7    0.41    0.82
 -11  -1  -8    0.80    0.63
 -11  -1  -9   13.24    1.50
 -11  -1 -10   41.00    2.51
 -11  -1 -11   68.25    3.31
 -11  -1 -12   66.06    3.20
 -11  -1 -13    3.24    0.87
 -11  -1 -14  106.89    4.14
 -11  -1 -14  104.60    4.62
 -11  -1 -15   -0.01    0.56
 -11  -1 -15    0.17    0.71
 -11  -1 -16  145.65    4.92
 -11  -1 -16  148.97    5.86
 -11  -1 -17   15.70    1.83
 -11  -1 -18   14.57    1.74
 -11  -1 -19   -0.02    0.70
 -11  -1 -20   -1.00    0.96
 -11  -1 -21    2.98    1.14
 -11  -2  11   -0.14    0.81
 -11  -2  10   16.01    2.02
 -11  -2   9   62.68    3.96
 -11  -2   8   34.30    2.79
 -11  -2   7   71.33    4.03
 -11  -2   6   11.77    1.67
 -11  -2   5    4.14    1.14
 -11  -2   4   -0.29    0.78
 -11  -2   3   31.83    2.52
 -11  -2   2    2.50    0.98
 -11  -2   1  356.53   10.19
 -11  -2   0    2.18    0.88
 -11  -2  -1   69.48    3.58
 -11  -2  -2    3.99    1.09
 -11  -2  -3   75.97    3.70
 -11  -2  -4   33.84    2.36
 -11  -2  -5  356.89    9.82
 -11  -2  -6    0.35    0.74
 -11  -2  -7    1.98    0.83
 -11  -2  -8   23.98    1.94
 -11  -2  -9  150.28    5.30
 -11  -2 -10    1.38    0.71
 -11  -2 -11   35.07    2.24
 -11  -2 -12   18.37    1.61
 -11  -2 -13   23.51    1.80
 -11  -2 -13   26.91    2.21
 -11  -2 -14    4.99    0.91
 -11  -2 -14    4.39    1.00
 -11  -2 -15   52.06    2.64
 -11  -2 -15   54.68    3.30
 -11  -2 -16   75.80    3.18
 -11  -2 -16   77.21    4.05
 -11  -2 -17   49.70    3.42
 -11  -2 -18   40.07    2.96
 -11  -2 -19   10.45    1.62
 -11  -2 -20   38.69    2.96
 -11  -3  11    0.78    0.99
 -11  -3  11    2.08    1.14
 -11  -3  10   -0.39    0.86
 -11  -3   9   -0.54    0.88
 -11  -3   8   20.26    2.20
 -11  -3   7   17.99    2.13
 -11  -3   6   54.79    3.51
 -11  -3   5   -0.07    0.88
 -11  -3   4   60.71    3.53
 -11  -3   3   63.87    3.60
 -11  -3   2  171.53    6.32
 -11  -3   1  107.06    4.72
 -11  -3   0    3.95    1.05
 -11  -3  -1    6.16    1.21
 -11  -3  -2   19.75    1.85
 -11  -3  -3    0.41    0.89
 -11  -3  -4   34.61    2.39
 -11  -3  -5   85.82    3.88
 -11  -3  -6   88.29    3.92
 -11  -3  -7  175.31    5.90
 -11  -3  -8    3.30    0.90
 -11  -3  -9  142.34    5.04
 -11  -3 -10    3.95    0.86
 -11  -3 -11   27.50    1.96
 -11  -3 -12   33.60    2.15
 -11  -3 -13    2.29    0.73
 -11  -3 -13    3.23    1.07
 -11  -3 -14    0.43    0.59
 -11  -3 -14    1.54    0.97
 -11  -3 -15   55.50    2.63
 -11  -3 -15   58.66    3.46
 -11  -3 -16    1.70    0.90
 -11  -3 -17   23.36    2.24
 -11  -3 -18    4.13    1.22
 -11  -3 -19   22.95    2.35
 -11  -3 -20    0.43    0.82
 -11  -4  11    4.38    1.18
 -11  -4  10    1.60    1.03
 -11  -4  10    0.18    0.91
 -11  -4   9    9.91    1.73
 -11  -4   9   11.55    1.79
 -11  -4   8   31.98    2.79
 -11  -4   7    8.61    1.46
 -11  -4   6    6.87    1.35
 -11  -4   5    0.89    0.98
 -11  -4   4   -0.84    0.84
 -11  -4   3    7.77    1.40
 -11  -4   2  235.85    7.77
 -11  -4   1    8.46    1.29
 -11  -4   0   74.04    3.76
 -11  -4  -1    4.45    1.08
 -11  -4  -2   -0.79    0.80
 -11  -4  -3   34.89    2.43
 -11  -4  -4  166.51    5.84
 -11  -4  -5    3.64    0.79
 -11  -4  -6    2.40    0.90
 -11  -4  -7    4.06    0.98
 -11  -4  -8   24.48    1.92
 -11  -4  -9   47.05    2.62
 -11  -4 -10    9.76    1.22
 -11  -4 -11   10.50    1.21
  11   4  11    7.97    1.11
 -11  -4 -12   20.41    1.63
 -11  -4 -12   20.63    1.93
 -11  -4 -13   11.96    1.28
 -11  -4 -13   10.73    1.53
 -11  -4 -14    0.92    0.58
 -11  -4 -14    0.05    0.80
 -11  -4 -15   63.16    2.73
 -11  -4 -15   61.12    3.58
 -11  -4 -16   39.21    2.91
 -11  -4 -17   23.49    2.32
 -11  -4 -18   17.96    2.12
 -11  -4 -19    6.08    1.30
 -11  -4 -20    0.69    1.05
 -11  -5  11   20.66    2.33
 -11  -5  10    3.90    1.22
 -11  -5  10    4.02    1.13
 -11  -5   9    0.87    0.84
 -11  -5   9    0.79    0.87
 -11  -5   8    2.48    1.06
 -11  -5   8    1.13    0.86
 -11  -5   7   54.48    3.56
 -11  -5   6   73.51    4.14
 -11  -5   5    8.79    1.47
 -11  -5   4   10.99    1.64
 -11  -5   3   24.74    2.32
 -11  -5   2   46.60    3.09
 -11  -5   1   48.35    3.12
 -11  -5   0   26.46    2.22
 -11  -5  -1   27.74    2.26
 -11  -5  -2    1.17    0.73
 -11  -5  -3    1.50    0.84
 -11  -5  -4  205.28    6.70
 -11  -5  -5   26.74    2.11
 -11  -5  -6  354.94    9.66
 -11  -5  -7    1.56    0.88
 -11  -5  -8  104.00    4.17
 -11  -5  -9    7.22    1.05
 -11  -5 -10   26.09    1.91
 -11  -5 -11    1.52    0.91
 -11  -5 -11   -0.50    0.66
  11   5  11   -0.12    0.57
 -11  -5 -12   32.29    2.44
  11   5  12   27.28    1.89
 -11  -5 -12   27.91    1.89
 -11  -5 -13    3.37    1.08
 -11  -5 -13    4.18    0.86
  11   5  13    2.90    0.75
 -11  -5 -14   20.61    1.55
 -11  -5 -14   20.27    2.07
 -11  -5 -15   32.96    1.86
 -11  -5 -15   33.93    2.69
 -11  -5 -16   12.56    1.81
 -11  -5 -17    1.31    0.87
 -11  -5 -18   16.42    2.05
 -11  -5 -19   23.97    2.50
 -11  -6  10    0.35    1.05
 -11  -6   9    0.16    0.92
 -11  -6   9    0.14    0.95
 -11  -6   8    0.44    0.93
 -11  -6   8    0.22    0.80
 -11  -6   7    4.17    1.07
 -11  -6   7    5.21    1.24
 -11  -6   6   18.44    2.17
 -11  -6   5   95.20    4.73
 -11  -6   4    5.69    1.32
 -11  -6   3   23.02    2.24
 -11  -6   2   28.18    2.39
 -11  -6   1  101.21    4.59
 -11  -6   0    5.55    1.18
 -11  -6  -1    3.97    1.09
 -11  -6  -2   -0.22    0.73
 -11  -6  -3   17.46    1.80
 -11  -6  -4   17.46    1.84
 -11  -6  -5  168.49    5.99
 -11  -6  -6   41.39    2.67
 -11  -6  -7   97.01    4.17
 -11  -6  -8   10.57    1.31
 -11  -6  -9   24.14    1.90
 -11  -6 -10   91.96    4.21
 -11  -6 -10   92.76    3.86
 -11  -6 -11   22.56    2.08
 -11  -6 -11   17.44    1.54
 -11  -6 -12  282.81    8.64
  11   6  12  271.37    7.72
 -11  -6 -12  270.98    7.48
 -11  -6 -13   12.18    1.65
 -11  -6 -13   11.92    1.26
  11   6  13   10.85    1.21
 -11  -6 -14    6.40    0.92
 -11  -6 -14    7.03    1.29
 -11  -6 -15    0.61    0.44
 -11  -6 -15    1.90    1.01
 -11  -6 -16   62.37    3.76
 -11  -6 -17    3.56    1.09
 -11  -6 -18   22.67    2.29
 -11  -6 -19    2.56    1.05
 -11  -7   8    2.83    1.17
 -11  -7   7   25.88    2.48
 -11  -7   7   25.96    2.58
 -11  -7   6    2.03    0.98
 -11  -7   6   -0.54    0.89
 -11  -7   5   23.12    2.34
 -11  -7   5   27.44    2.53
 -11  -7   4    0.83    0.90
 -11  -7   3   15.32    1.90
 -11  -7   2   -1.53    1.07
 -11  -7   1  113.60    5.07
 -11  -7   0    3.97    1.05
 -11  -7  -1   19.56    1.94
 -11  -7  -2    6.96    1.25
 -11  -7  -3   17.68    1.84
 -11  -7  -4   11.40    1.45
 -11  -7  -5  529.99   13.39
 -11  -7  -6    2.92    0.96
 -11  -7  -7   81.81    3.73
 -11  -7  -8    9.47    1.32
 -11  -7  -9   40.27    2.48
 -11  -7  -9   38.69    2.66
 -11  -7 -10    8.16    1.15
 -11  -7 -10    8.70    1.39
 -11  -7 -11   23.52    1.83
 -11  -7 -11   27.08    2.31
 -11  -7 -12    2.63    0.61
 -11  -7 -12    0.91    0.79
 -11  -7 -13   33.35    2.06
 -11  -7 -13   36.49    2.73
 -11  -7 -14    1.89    0.68
 -11  -7 -14    0.23    0.97
 -11  -7 -15    3.12    1.10
 -11  -7 -16    0.56    0.97
 -11  -7 -17    6.33    1.47
 -11  -7 -18  108.70    5.36
 -11  -8   7   -1.10    1.09
 -11  -8   6  145.02    6.30
 -11  -8   5   52.29    3.55
 -11  -8   5   48.50    3.40
 -11  -8   4   40.31    3.01
 -11  -8   4   40.98    3.14
 -11  -8   3    1.45    0.97
 -11  -8   3   -0.48    0.88
 -11  -8   2   34.62    2.73
 -11  -8   1   19.42    2.08
 -11  -8   0   19.12    2.02
 -11  -8  -1   37.68    2.75
 -11  -8  -2   81.36    4.07
 -11  -8  -3   67.43    3.62
 -11  -8  -4    6.82    1.28
 -11  -8  -5   18.81    1.85
 -11  -8  -6   70.72    3.17
 -11  -8  -6   76.87    3.71
 -11  -8  -7  236.69    7.36
 -11  -8  -7  233.00    7.42
 -11  -8  -8   23.39    2.00
 -11  -8  -8   21.60    2.00
 -11  -8  -9   36.78    2.40
 -11  -8  -9   35.84    2.60
 -11  -8 -10    3.71    0.85
 -11  -8 -10    2.92    0.99
 -11  -8 -11  118.29    4.50
 -11  -8 -11  124.40    5.22
 -11  -8 -12   13.09    1.37
 -11  -8 -12   14.57    1.75
 -11  -8 -13  117.42    5.19
 -11  -8 -14    1.81    0.90
 -11  -8 -15   19.03    2.16
 -11  -8 -16    7.55    1.48
 -11  -8 -17   24.65    2.48
 -11  -9   6    2.75    1.33
 -11  -9   5   -0.71    1.03
 -11  -9   4  106.27    5.24
 -11  -9   3    0.84    0.89
 -11  -9   2    6.62    1.36
 -11  -9   1    6.48    1.40
 -11  -9   0  289.43    9.27
 -11  -9   0  297.43    9.40
 -11  -9  -1    8.22    1.35
 -11  -9  -2  193.15    6.97
 -11  -9  -3   13.07    1.66
 -11  -9  -4   22.08    1.61
 -11  -9  -4   24.80    2.20
 -11  -9  -5    6.86    0.96
 -11  -9  -5   11.43    1.57
 -11  -9  -5    8.23    1.29
 -11  -9  -6   56.92    2.68
 -11  -9  -6   57.03    3.23
 -11  -9  -6   55.14    3.14
 -11  -9  -7    4.28    0.86
 -11  -9  -7    0.76    0.66
 -11  -9  -7    2.03    0.81
 -11  -9  -8    1.01    0.89
 -11  -9  -8    1.29    0.95
 -11  -9  -9   -0.36    1.00
 -11  -9 -10    0.55    0.76
 -11  -9 -11    9.15    1.47
 -11  -9 -12   77.37    4.10
 -11  -9 -13  127.04    5.47
 -11  -9 -14   35.83    2.84
 -11  -9 -15    3.11    1.19
 -11  -9 -16   -0.32    0.87
 -11  -9 -17   86.25    4.70
 -11 -10   4    0.13    1.07
 -11 -10   3   12.44    1.80
 -11 -10   2   21.08    2.26
 -11 -10   1    6.65    1.43
 -11 -10   0   16.59    1.98
 -11 -10  -1   12.02    1.82
 -11 -10  -2   62.35    3.68
 -11 -10  -2   65.06    3.25
 -11 -10  -3    7.73    1.33
 -11 -10  -3    7.86    1.29
 -11 -10  -4   23.84    2.29
 -11 -10  -4   22.23    1.96
 -11 -10  -5    9.82    1.65
 -11 -10  -5   11.54    1.50
 -11 -10  -6  203.73    6.82
 -11 -10  -7    2.23    0.78
 -11 -10  -8   32.67    2.47
 -11 -10  -9   -1.12    0.97
 -11 -10 -10  180.45    6.61
 -11 -10 -11    0.87    0.86
 -11 -10 -12  121.02    5.33
 -11 -10 -13    7.20    1.23
 -11 -10 -13    6.09    1.33
 -11 -10 -14   45.30    2.61
 -11 -10 -14   41.39    3.11
 -11 -10 -15    2.80    1.12
 -11 -10 -16    3.32    1.31
 -11 -11   2    9.34    1.67
 -11 -11   1   80.68    4.51
 -11 -11   1   77.49    3.49
 -11 -11   0    0.76    0.86
 -11 -11   0    3.40    0.90
 -11 -11  -1   32.65    2.78
 -11 -11  -1   31.68    2.24
 -11 -11  -2   13.76    1.88
 -11 -11  -2   14.49    1.60
 -11 -11  -3   18.41    2.16
 -11 -11  -3   15.33    1.65
 -11 -11  -4    1.28    1.07
 -11 -11  -4    1.71    0.91
 -11 -11  -5    0.95    0.88
 -11 -11  -5    0.90    0.81
 -11 -11  -6    0.54    0.88
 -11 -11  -6    0.78    0.79
 -11 -11  -7    2.80    1.18
 -11 -11  -7    1.20    0.79
 -11 -11  -8   69.44    3.71
 -11 -11  -8   67.96    3.69
 -11 -11  -9    9.87    1.47
 -11 -11  -9    9.39    1.51
 -11 -11 -10    1.32    0.94
 -11 -11 -10    2.19    0.85
 -11 -11 -11   19.11    1.88
 -11 -11 -11   14.90    1.94
 -11 -11 -12   37.18    2.59
 -11 -11 -12   40.31    2.97
 -11 -11 -13   54.76    3.05
 -11 -11 -13   59.56    3.72
 -11 -11 -14   37.45    2.49
 -11 -11 -14   36.59    2.96
 -11 -11 -15    0.37    0.83
 -11 -12   0    1.09    0.99
 -11 -12  -1   34.40    2.97
 -11 -12  -1   30.72    2.22
 -11 -12  -2    6.42    1.54
 -11 -12  -2    6.49    1.08
 -11 -12  -3   49.21    3.38
 -11 -12  -3   46.55    2.80
 -11 -12  -4   -0.08    0.89
 -11 -12  -4   -0.32    0.68
 -11 -12  -5   20.53    2.19
 -11 -12  -5   20.62    2.13
 -11 -12  -6    1.34    0.86
 -11 -12  -6    2.87    0.82
 -11 -12  -7   52.35    3.32
 -11 -12  -7   53.13    3.23
 -11 -12  -8    2.32    1.47
 -11 -12  -8    2.35    1.02
 -11 -12  -9    2.89    1.06
 -11 -12  -9    1.50    0.96
 -11 -12 -10   -0.82    0.98
 -11 -12 -10    1.25    0.85
 -11 -12 -11    2.27    0.94
 -11 -12 -11    0.88    0.83
 -11 -12 -12    0.60    0.81
 -11 -12 -12    2.04    1.32
 -11 -12 -13   21.29    1.95
 -11 -12 -13   20.29    2.23
 -11 -12 -14   17.11    2.15
 -11 -13  -2   18.81    2.34
 -11 -13  -3    6.68    1.59
 -11 -13  -3    7.12    1.21
 -11 -13  -4    6.96    1.37
 -11 -13  -4    6.84    1.17
 -11 -13  -5    3.47    1.17
 -11 -13  -5    1.41    0.78
 -11 -13  -6   15.65    1.95
 -11 -13  -6   15.49    1.76
 -11 -13  -7  115.04    5.27
 -11 -13  -7  114.44    4.96
 -11 -13  -8   48.94    3.25
 -11 -13  -8   45.99    3.09
 -11 -13  -9  119.41    5.21
 -11 -13  -9  122.38    5.31
 -11 -13 -10    4.74    1.16
 -11 -13 -10    5.65    1.34
 -11 -13 -11   28.79    2.41
 -11 -13 -11   31.41    2.69
 -11 -13 -12    0.62    0.77
 -11 -13 -12   -0.11    0.87
 -11 -13 -13   31.55    2.82
 -11 -14  -4    5.24    1.59
 -11 -14  -5    2.75    1.19
 -11 -14  -5   -0.49    0.70
 -11 -14  -6    1.41    1.10
 -11 -14  -6    2.24    1.03
 -11 -14  -7    0.95    0.87
 -11 -14  -7    1.98    1.15
 -11 -14  -8   18.73    2.20
 -11 -14  -8   20.60    2.08
 -11 -14  -9   14.85    1.90
 -11 -14  -9   16.24    1.96
 -11 -14 -10  195.26    7.12
 -11 -14 -10  194.32    7.28
 -11 -14 -11   20.19    2.14
 -11 -14 -11   20.56    2.25
 -11 -14 -12    2.04    1.06
 -11 -14 -12    2.75    1.24
 -11 -15  -7    2.55    1.19
 -11 -15  -7    1.43    0.91
 -11 -15  -8   64.99    4.03
 -11 -15  -8   67.25    3.84
 -11 -15  -9    7.92    1.69
 -11 -15  -9    8.08    1.47
 -11 -15 -10    8.29    1.48
 -11 -15 -10    7.30    1.47
 -11 -15 -11    6.22    1.33
 -11 -15 -11    5.70    1.41
 -12   6   1    0.44    0.98
 -12   6   0    1.97    1.08
 -12   6  -1   18.97    2.35
 -12   6  -2   -1.35    0.96
 -12   6  -3   34.43    3.09
 -12   6  -4   32.42    2.96
 -12   6  -5    1.23    1.18
 -12   6  -6    4.87    1.29
 -12   6  -7   85.74    4.83
 -12   6  -8   45.43    3.52
 -12   6  -9   20.72    2.38
 -12   6 -10   20.67    2.36
 -12   6 -11   -0.38    0.86
 -12   6 -12   -0.74    1.04
 -12   6 -13   15.91    2.30
 -12   6 -14    4.63    1.29
 -12   5   4   26.40    2.67
 -12   5   3  145.38    6.49
 -12   5   2   10.53    1.80
 -12   5   1   13.91    2.00
 -12   5   0   -0.80    1.07
 -12   5  -1   65.02    4.13
 -12   5  -2    6.47    1.49
 -12   5  -3   51.52    3.57
 -12   5  -4    3.70    1.18
 -12   5  -5   31.63    2.85
 -12   5  -6   13.11    1.91
 -12   5  -7   34.48    2.92
 -12   5  -8    4.64    1.10
 -12   5  -9   78.93    4.51
 -12   5 -10   -0.86    0.92
 -12   5 -11    2.44    1.29
 -12   5 -12   -0.53    1.01
 -12   5 -13   65.24    4.07
 -12   5 -14   11.31    1.83
 -12   5 -15    7.68    1.59
 -12   4   6   42.65    3.36
 -12   4   5   10.03    1.83
 -12   4   4   18.10    2.24
 -12   4   3   19.26    2.26
 -12   4   2   33.50    2.95
 -12   4   1    1.84    1.06
 -12   4   0   11.26    1.76
 -12   4  -1   -1.55    1.11
 -12   4  -2   24.45    2.46
 -12   4  -3   69.57    4.14
 -12   4  -4   43.06    3.17
 -12   4  -5   16.45    2.00
 -12   4  -6   25.77    2.50
 -12   4  -7   43.68    3.21
 -12   4  -8   21.15    2.27
 -12   4  -9    9.16    1.61
 -12   4 -10    5.77    1.88
 -12   4 -11    8.51    1.47
 -12   4 -12   10.61    1.75
 -12   4 -13   34.15    2.85
 -12   4 -14   29.30    2.65
 -12   4 -15   36.75    2.93
 -12   4 -15   32.56    2.69
 -12   4 -16    0.55    0.81
 -12   3   7    1.82    1.17
 -12   3   6    0.34    0.87
 -12   3   5   14.03    1.96
 -12   3   4  116.21    5.56
 -12   3   3    0.42    0.99
 -12   3   2    6.23    1.40
 -12   3   1    9.11    1.60
 -12   3   0   24.92    2.44
 -12   3  -1    1.14    0.85
 -12   3  -2   91.86    4.68
 -12   3  -3    0.99    1.05
 -12   3  -4   10.80    1.63
 -12   3  -5    6.51    1.38
 -12   3  -6   39.48    3.00
 -12   3  -7    4.85    1.31
 -12   3  -8   95.38    4.71
 -12   3  -9    2.06    1.04
 -12   3 -10   25.36    2.32
 -12   3 -11    0.17    1.00
 -12   3 -12   22.61    2.25
 -12   3 -13    8.31    1.61
 -12   3 -14   85.26    4.38
 -12   3 -15   -0.11    0.90
 -12   3 -15   -0.83    0.96
 -12   3 -16   16.57    1.90
 -12   3 -16   12.85    1.68
 -12   3 -17    6.74    1.36
 -12   2   8   11.10    1.75
 -12   2   7   21.94    2.37
 -12   2   6    0.83    0.86
 -12   2   5   12.12    1.77
 -12   2   4    0.35    0.97
 -12   2   3   54.56    3.61
 -12   2   2   60.73    3.77
 -12   2   1   62.17    3.79
 -12   2   0   -0.48    0.86
 -12   2  -1   10.94    1.78
 -12   2  -2   86.05    4.44
 -12   2  -3   57.94    3.62
 -12   2  -4   39.44    2.89
 -12   2  -5    6.17    1.32
 -12   2  -6   71.92    3.98
 -12   2  -7    6.33    1.30
 -12   2  -8   -0.66    0.92
 -12   2  -9   19.66    2.10
 -12   2 -10   21.79    2.14
 -12   2 -11    3.43    1.03
 -12   2 -12    0.22    0.77
 -12   2 -13   12.56    1.75
 -12   2 -14  116.35    5.10
 -12   2 -15    2.77    1.03
 -12   2 -15    2.04    0.79
 -12   2 -16   31.79    2.48
 -12   2 -16   24.62    2.29
 -12   2 -17    2.13    1.00
 -12   2 -18    2.01    1.04
 -12   1   9   30.51    2.79
 -12   1   8    0.98    0.97
 -12   1   7   76.91    4.42
 -12   1   6    4.12    1.24
 -12   1   5  149.99    6.37
 -12   1   4    0.23    0.94
 -12   1   3   13.89    1.78
 -12   1   2   12.51    1.76
 -12   1   1    0.46    0.83
 -12   1   0    5.22    1.40
 -12   1  -1    7.54    1.40
 -12   1  -2    4.21    1.19
 -12   1  -3  178.76    6.67
 -12   1  -4   89.22    4.41
 -12   1  -5  329.57    9.88
 -12   1  -6   38.86    2.78
 -12   1  -7   -0.12    0.83
 -12   1  -8   34.15    2.58
 -12   1  -9   46.93    3.06
 -12   1 -10   30.11    2.42
 -12   1 -11   18.14    1.87
 -12   1 -12    5.80    1.14
 -12   1 -13    8.66    1.28
 -12   1 -14    7.06    1.31
 -12   1 -15   70.05    3.67
 -12   1 -15   70.90    3.84
 -12   1 -16   -0.77    0.85
 -12   1 -16    2.27    0.81
 -12   1 -17    1.47    0.81
 -12   1 -18    2.34    0.97
 -12   1 -19   15.62    2.00
 -12   0   9    6.93    1.46
 -12   0   8   30.25    2.74
 -12   0   7   55.18    3.68
 -12   0   6   12.99    1.82
 -12   0   5    0.37    0.90
 -12   0   4   13.62    1.91
 -12   0   3   75.05    4.19
 -12   0   2   47.78    3.28
 -12   0   1    1.77    0.98
 -12   0   0    4.26    1.17
 -12   0  -1   37.20    3.28
 -12   0  -2   51.82    3.29
 -12   0  -3  243.17    8.03
 -12   0  -4   -1.60    0.96
 -12   0  -5   27.70    2.29
 -12   0  -6    4.91    1.22
 -12   0  -7    5.54    1.11
 -12   0  -8    2.56    0.88
 -12   0  -9    3.25    0.97
 -12   0 -10   -1.17    0.94
 -12   0 -11  240.09    7.66
 -12   0 -12   51.28    3.04
 -12   0 -13    5.57    1.15
 -12   0 -14    5.64    1.17
 -12   0 -15  120.75    4.76
 -12   0 -15  111.51    5.03
 -12   0 -16   16.08    1.64
 -12   0 -16   14.44    1.81
 -12   0 -17    7.07    1.33
 -12   0 -18    2.09    0.87
 -12   0 -19    6.15    1.40
 -12   0 -20    0.18    0.77
 -12  -1   9    1.93    1.16
 -12  -1   8    5.80    1.40
 -12  -1   7    0.73    0.84
 -12  -1   6    6.56    1.46
 -12  -1   5   17.89    2.03
 -12  -1   4    0.22    0.82
 -12  -1   3    4.20    1.31
 -12  -1   2    2.78    1.06
 -12  -1   1    1.38    1.00
 -12  -1   0   13.01    1.74
 -12  -1  -1   14.63    1.73
 -12  -1  -2   41.55    2.88
 -12  -1  -3   46.24    2.99
 -12  -1  -4  254.35    8.15
 -12  -1  -5  302.20    9.10
 -12  -1  -6   53.52    3.18
 -12  -1  -7   71.79    3.67
 -12  -1  -8    1.01    0.80
 -12  -1  -9   58.13    3.26
 -12  -1 -10   29.73    2.28
 -12  -1 -11   83.35    3.90
 -12  -1 -12    3.48    0.98
 -12  -1 -13   -0.15    0.71
 -12  -1 -14    2.89    0.87
 -12  -1 -14    2.24    0.85
 -12  -1 -15   13.58    1.50
 -12  -1 -15   10.97    1.53
 -12  -1 -16    0.38    0.77
 -12  -1 -17   52.54    3.39
 -12  -1 -18    5.38    1.15
 -12  -1 -19    4.29    1.06
 -12  -1 -20   -0.26    0.85
 -12  -2   9    4.39    1.30
 -12  -2   8   40.07    3.14
 -12  -2   7   43.17    3.23
 -12  -2   6  134.19    5.87
 -12  -2   5   -0.51    0.89
 -12  -2   4   16.57    1.96
 -12  -2   3    0.19    0.86
 -12  -2   2   17.56    1.98
 -12  -2   1    0.12    0.87
 -12  -2   0    3.55    1.05
 -12  -2  -1   10.70    1.54
 -12  -2  -2   -0.57    0.84
 -12  -2  -3    0.23    0.78
 -12  -2  -4    2.10    0.91
 -12  -2  -5   -0.87    0.88
 -12  -2  -6   83.92    3.98
 -12  -2  -7    8.20    1.28
 -12  -2  -8    1.99    0.91
 -12  -2  -9   40.96    2.68
 -12  -2 -10   68.58    3.45
 -12  -2 -11   58.34    3.12
 -12  -2 -12   79.36    3.66
 -12  -2 -13    5.25    1.02
 -12  -2 -14    5.46    1.05
 -12  -2 -14    5.82    1.26
 -12  -2 -15   43.09    2.52
 -12  -2 -15   43.93    3.05
 -12  -2 -16    7.75    1.33
 -12  -2 -17    9.67    1.60
 -12  -2 -18    0.46    0.78
 -12  -2 -19   16.42    2.06
 -12  -3   8   11.04    1.85
 -12  -3   7   38.50    3.12
 -12  -3   6    2.07    1.06
 -12  -3   5   16.80    1.99
 -12  -3   4    1.98    0.91
 -12  -3   3    8.53    1.45
 -12  -3   2   29.62    2.54
 -12  -3   1  139.51    5.75
 -12  -3   0   70.88    3.84
 -12  -3  -1   23.34    2.16
 -12  -3  -2    0.37    0.80
 -12  -3  -3   31.66    2.48
 -12  -3  -4  137.54    5.40
 -12  -3  -5   24.53    2.13
 -12  -3  -6   40.69    2.70
 -12  -3  -7   40.07    2.63
 -12  -3  -8   74.51    3.62
 -12  -3  -9    2.14    0.88
 -12  -3 -10    1.56    0.82
 -12  -3 -11   -0.25    0.68
 -12  -3 -12  122.79    4.69
 -12  -3 -13    3.41    0.83
 -12  -3 -13    3.74    1.07
 -12  -3 -14    3.18    0.82
 -12  -3 -14    6.12    1.32
 -12  -3 -15    1.90    0.74
 -12  -3 -15    2.99    1.08
 -12  -3 -16  123.43    5.50
 -12  -3 -17    9.93    1.58
 -12  -3 -18    9.00    1.57
 -12  -3 -19    0.54    0.78
 -12  -4   8   21.18    2.35
 -12  -4   7  110.94    5.36
 -12  -4   6   24.41    2.47
 -12  -4   5   26.82    2.57
 -12  -4   4    0.45    0.88
 -12  -4   3   86.10    4.47
 -12  -4   2    4.61    1.16
 -12  -4   1   24.85    2.28
 -12  -4   0    1.02    0.86
 -12  -4  -1   39.21    2.76
 -12  -4  -2    7.57    1.31
 -12  -4  -3    1.63    0.84
 -12  -4  -4   17.39    1.76
 -12  -4  -5    0.69    0.71
 -12  -4  -6   66.96    3.48
 -12  -4  -7   42.43    2.69
 -12  -4  -8   39.68    2.57
 -12  -4  -9  272.69    8.08
 -12  -4 -10   13.60    1.48
 -12  -4 -11   47.59    2.74
 -12  -4 -12   12.42    1.33
 -12  -4 -13   32.86    2.19
 -12  -4 -13   32.02    2.55
 -12  -4 -14   -0.03    0.62
 -12  -4 -14    1.08    0.79
 -12  -4 -15   11.81    1.30
 -12  -4 -15   15.80    1.95
 -12  -4 -16   41.32    3.04
 -12  -4 -17   15.16    1.96
 -12  -4 -18   53.99    3.60
 -12  -4 -19    2.52    1.15
 -12  -5   8   10.60    1.72
 -12  -5   7    2.39    1.01
 -12  -5   6   21.36    2.32
 -12  -5   5   10.67    1.66
 -12  -5   4   22.85    2.30
 -12  -5   3   24.24    2.32
 -12  -5   2   45.18    3.21
 -12  -5   1   88.36    4.49
 -12  -5   0    5.58    1.30
 -12  -5  -1    0.77    0.84
 -12  -5  -2   -0.09    0.75
 -12  -5  -3    6.41    1.31
 -12  -5  -4   -0.17    0.71
 -12  -5  -5    0.41    0.78
 -12  -5  -6   18.98    1.82
 -12  -5  -7    6.32    1.19
 -12  -5  -8   49.86    2.90
 -12  -5  -9    9.88    1.31
 -12  -5 -10   32.54    2.27
 -12  -5 -11  169.88    5.74
 -12  -5 -12    0.25    0.58
 -12  -5 -12    0.41    0.73
 -12  -5 -13   13.19    1.39
 -12  -5 -13   13.93    1.82
 -12  -5 -14    8.39    1.14
 -12  -5 -14    6.79    1.39
 -12  -5 -15   18.33    1.54
 -12  -5 -15   16.88    1.95
 -12  -5 -16    1.19    1.08
 -12  -5 -17   31.69    2.78
 -12  -5 -18    6.95    1.46
 -12  -6   7    8.20    1.82
 -12  -6   7    5.78    1.31
 -12  -6   6   19.15    2.23
 -12  -6   5    1.00    1.01
 -12  -6   4    2.31    1.13
 -12  -6   3    1.45    0.97
 -12  -6   2   23.68    2.31
 -12  -6   1    4.21    1.21
 -12  -6   0  107.31    4.96
 -12  -6  -1   30.83    2.53
 -12  -6  -2   14.57    1.79
 -12  -6  -3   18.43    1.98
 -12  -6  -4   95.56    4.48
 -12  -6  -5   89.67    4.23
 -12  -6  -6   26.95    2.27
 -12  -6  -7   27.60    2.24
 -12  -6  -8   15.18    1.62
 -12  -6  -9   12.81    1.51
 -12  -6 -10  102.33    4.37
 -12  -6 -11   27.73    2.11
 -12  -6 -11   28.23    2.38
 -12  -6 -12   18.19    1.64
 -12  -6 -12   17.73    1.94
 -12  -6 -13   20.72    1.72
 -12  -6 -13   20.38    2.12
 -12  -6 -14    1.34    0.71
 -12  -6 -14    1.09    0.99
 -12  -6 -15   70.33    3.08
 -12  -6 -15   64.14    3.93
 -12  -6 -16   40.88    3.11
 -12  -6 -17   93.02    4.89
 -12  -6 -18   -0.68    0.87
 -12  -7   6    2.65    1.16
 -12  -7   6    2.85    1.10
 -12  -7   5    7.26    1.41
 -12  -7   5    6.77    1.47
 -12  -7   4    0.99    1.22
 -12  -7   3    7.90    1.45
 -12  -7   2   42.51    3.14
 -12  -7   1   56.50    3.60
 -12  -7   0   43.73    3.10
 -12  -7  -1    0.24    0.81
 -12  -7  -2   38.97    2.83
 -12  -7  -3   26.93    2.33
 -12  -7  -4   33.36    2.50
 -12  -7  -5    1.49    0.76
 -12  -7  -6   31.78    2.38
 -12  -7  -7    8.19    1.27
 -12  -7  -8  121.79    4.84
 -12  -7  -9   16.04    1.68
 -12  -7  -9   18.18    1.88
 -12  -7 -10   43.06    2.68
 -12  -7 -10   48.32    3.06
 -12  -7 -11   22.15    1.87
 -12  -7 -11   21.51    2.16
 -12  -7 -12  114.36    4.44
 -12  -7 -12  108.60    4.99
 -12  -7 -13   26.57    1.97
 -12  -7 -13   28.25    2.50
 -12  -7 -14    9.98    1.24
 -12  -7 -14   11.99    1.78
 -12  -7 -15   15.58    2.00
 -12  -7 -16  117.83    5.53
 -12  -7 -17   23.16    2.39
 -12  -8   5    1.07    0.94
 -12  -8   5    1.10    0.93
 -12  -8   4    6.02    1.51
 -12  -8   4    6.22    1.51
 -12  -8   3   10.10    1.73
 -12  -8   3   10.37    1.78
 -12  -8   2    3.07    1.23
 -12  -8   1   84.14    4.49
 -12  -8   0   18.84    2.16
 -12  -8  -1   41.94    3.04
 -12  -8  -2    0.50    0.82
 -12  -8  -3    0.42    0.79
 -12  -8  -4   86.10    4.29
 -12  -8  -5   64.05    3.60
 -12  -8  -6   53.81    3.22
 -12  -8  -7    8.65    1.34
 -12  -8  -8    0.01    0.72
 -12  -8  -8    0.78    1.07
 -12  -8  -9    4.58    1.00
 -12  -8  -9    3.61    1.07
 -12  -8 -10    4.26    0.89
 -12  -8 -10    5.18    1.29
 -12  -8 -11    0.82    0.68
 -12  -8 -11    2.03    1.06
 -12  -8 -12   43.16    2.61
 -12  -8 -12   46.63    3.12
 -12  -8 -13    0.98    0.70
 -12  -8 -13    2.44    1.06
 -12  -8 -14    7.16    1.39
 -12  -8 -15    2.53    1.06
 -12  -8 -16   34.02    2.95
 -12  -9   3   15.29    1.97
 -12  -9   2    3.69    1.18
 -12  -9   2    6.40    1.37
 -12  -9   1   -0.68    1.02
 -12  -9   1    1.22    0.88
 -12  -9   0   18.09    2.11
 -12  -9  -1   71.95    4.10
 -12  -9  -2   -0.69    0.90
 -12  -9  -3  123.13    5.42
 -12  -9  -4    0.30    0.88
 -12  -9  -5   72.45    3.94
 -12  -9  -6   20.05    2.03
 -12  -9  -6   21.38    2.03
 -12  -9  -7  282.62    8.79
 -12  -9  -7  291.12    8.84
 -12  -9  -8   13.04    1.58
 -12  -9  -8   13.83    1.74
 -12  -9  -9    2.12    0.95
 -12  -9  -9    0.90    0.90
 -12  -9 -10   35.38    2.47
 -12  -9 -10   34.69    2.71
 -12  -9 -11   54.34    3.44
 -12  -9 -12   21.82    2.25
 -12  -9 -13   26.34    2.54
 -12  -9 -14    1.66    1.02
 -12  -9 -15    0.34    0.97
 -12  -9 -16    1.62    1.07
 -12 -10   2   20.84    2.46
 -12 -10   1   51.07    3.62
 -12 -10   0  142.03    6.21
 -12 -10  -1   56.38    3.68
 -12 -10  -2    1.35    1.05
 -12 -10  -3    9.16    1.62
 -12 -10  -4   -0.62    0.80
 -12 -10  -5   64.24    3.53
 -12 -10  -6   36.06    2.66
 -12 -10  -7   42.13    2.86
 -12 -10  -8   64.93    3.65
 -12 -10  -9  136.94    5.65
 -12 -10 -10    0.27    0.90
 -12 -10 -11   18.59    2.10
 -12 -10 -12    0.73    0.88
 -12 -10 -13   98.88    4.97
 -12 -10 -14    2.29    1.00
 -12 -10 -15   13.86    1.97
 -12 -11   0    2.93    1.21
 -12 -11   0    3.62    0.94
 -12 -11  -1   11.71    1.77
 -12 -11  -1   11.85    1.51
 -12 -11  -2   32.31    2.86
 -12 -11  -2   24.18    2.05
 -12 -11  -3    1.72    1.13
 -12 -11  -3   -0.75    0.81
 -12 -11  -4    0.70    1.07
 -12 -11  -4    0.50    0.71
 -12 -11  -5    2.82    1.05
 -12 -11  -5    3.49    0.97
 -12 -11  -6  261.47    8.70
 -12 -11  -6  261.05    8.31
 -12 -11  -7   35.78    2.83
 -12 -11  -7   34.48    2.68
 -12 -11  -8   47.26    3.12
 -12 -11  -8   43.41    3.03
 -12 -11  -9   27.79    2.71
 -12 -11  -9   30.39    2.61
 -12 -11 -10   12.85    1.71
 -12 -11 -10   12.18    1.71
 -12 -11 -11   19.70    2.00
 -12 -11 -11   24.16    2.35
 -12 -11 -12   16.40    2.00
 -12 -11 -12   19.29    2.13
 -12 -11 -13   17.22    1.82
 -12 -11 -13   16.86    2.10
 -12 -11 -14   16.82    1.71
 -12 -11 -14   21.11    2.33
 -12 -12  -2   12.27    1.89
 -12 -12  -2   12.07    1.45
 -12 -12  -3   -0.22    0.95
 -12 -12  -3    1.07    0.83
 -12 -12  -4   13.45    1.87
 -12 -12  -4   11.62    1.66
 -12 -12  -5    1.63    1.14
 -12 -12  -5   -0.17    0.74
 -12 -12  -6    6.63    1.35
 -12 -12  -6    3.15    0.94
 -12 -12  -7   28.02    2.51
 -12 -12  -7   25.43    2.28
 -12 -12  -8  190.58    7.00
 -12 -12  -8  181.97    6.83
 -12 -12  -9    0.85    0.96
 -12 -12  -9    0.51    0.84
 -12 -12 -10   -0.07    0.80
 -12 -12 -10    0.64    0.87
 -12 -12 -11   13.10    1.77
 -12 -12 -11   12.25    1.70
 -12 -12 -12   89.15    4.34
 -12 -12 -12   87.52    4.67
 -12 -12 -13    1.61    1.01
 -12 -12 -13    0.54    0.92
 -12 -13  -4    2.86    1.07
 -12 -13  -4    1.95    0.89
 -12 -13  -5   -0.59    0.88
 -12 -13  -5   -1.15    0.90
 -12 -13  -6    0.44    0.99
 -12 -13  -6   -1.34    1.03
 -12 -13  -7    8.79    1.61
 -12 -13  -7    8.01    1.53
 -12 -13  -8    0.11    0.93
 -12 -13  -8   -0.21    0.91
 -12 -13  -9   10.77    1.70
 -12 -13  -9   12.19    1.75
 -12 -13 -10   19.29    2.14
 -12 -13 -10   23.12    2.31
 -12 -13 -11   -0.76    1.10
 -12 -13 -11   -1.26    0.87
 -12 -13 -12    0.82    0.87
 -12 -13 -12    0.45    0.84
 -12 -14  -6    0.09    0.83
 -12 -14  -7   47.07    3.48
 -12 -14  -7   43.45    3.07
 -12 -14  -8   -0.35    0.89
 -12 -14  -8    2.43    0.99
 -12 -14  -9    1.04    1.16
 -12 -14  -9    1.21    0.96
 -12 -14 -10    3.15    1.16
 -12 -14 -10    1.81    1.01
 -12 -14 -11   25.65    2.39
 -12 -14 -11   31.05    2.76
 -12 -14 -12   -0.11    0.94
 -12 -15  -8    0.44    0.96
 -12 -15  -9   45.87    3.36
 -12 -15 -10    9.03    1.77
 -13   5  -2   47.71    3.69
 -13   5  -3    4.96    1.44
 -13   5  -4   67.09    4.30
 -13   5  -5    1.87    1.19
 -13   5  -6    6.98    1.53
 -13   5  -7    6.14    1.54
 -13   5  -8   77.41    4.60
 -13   5  -9    0.88    1.01
 -13   5 -10    2.15    1.29
 -13   5 -11    2.40    1.08
 -13   5 -12    1.55    0.96
 -13   5 -13    1.95    1.53
 -13   5 -14   40.65    3.35
 -13   4   1   13.57    2.05
 -13   4   0    2.83    0.86
 -13   4  -1  149.83    6.60
 -13   4  -2   52.82    3.77
 -13   4  -3   24.41    2.58
 -13   4  -4    9.82    1.64
 -13   4  -5   -0.69    0.92
 -13   4  -6    3.41    1.25
 -13   4  -7    5.21    1.50
 -13   4  -8   34.56    3.01
 -13   4  -9   32.61    2.88
 -13   4 -10   44.16    3.33
 -13   4 -11    1.95    1.13
 -13   4 -12   17.84    2.19
 -13   4 -13    4.88    1.37
 -13   4 -14   86.86    4.73
 -13   4 -15    4.90    1.40
 -13   3   3   13.03    2.03
 -13   3   2    8.84    1.69
 -13   3   1   23.43    2.46
 -13   3   0    5.22    1.55
 -13   3  -1   53.78    3.69
 -13   3  -2    1.44    1.06
 -13   3  -3  176.75    7.12
 -13   3  -4    6.54    1.65
 -13   3  -5    7.11    1.53
 -13   3  -6   13.75    1.95
 -13   3  -7   62.19    3.94
 -13   3  -8    2.06    1.24
 -13   3  -9   98.62    4.99
 -13   3 -10    0.86    0.92
 -13   3 -11    3.43    1.32
 -13   3 -12    5.12    1.35
 -13   3 -13   14.50    2.03
 -13   3 -14   16.39    2.03
 -13   3 -15   55.45    3.62
 -13   3 -16   40.67    3.05
 -13   2   4   42.32    3.34
 -13   2   3    8.65    1.72
 -13   2   2    2.54    1.25
 -13   2   1    2.47    1.30
 -13   2   0    6.99    1.57
 -13   2  -1   -0.44    0.88
 -13   2  -2    1.95    0.88
 -13   2  -3   10.53    1.65
 -13   2  -4    1.59    0.98
 -13   2  -5    3.77    1.29
 -13   2  -6    2.24    1.12
 -13   2  -7   28.66    2.60
 -13   2  -8   36.56    2.88
 -13   2  -9  124.26    5.60
 -13   2 -10   28.54    2.52
 -13   2 -11    1.16    0.97
 -13   2 -12    4.26    1.17
 -13   2 -13   26.49    2.49
 -13   2 -14    1.32    0.96
 -13   2 -15   36.91    2.86
 -13   2 -16   12.83    1.76
 -13   2 -17    2.19    0.86
 -13   1   5    5.47    1.32
 -13   1   4   17.33    2.08
 -13   1   3    2.08    1.00
 -13   1   2  230.55    8.37
 -13   1   1    0.97    1.00
 -13   1   0    2.31    1.24
 -13   1  -1    2.30    1.15
 -13   1  -2   60.84    3.81
 -13   1  -3    2.25    1.03
 -13   1  -4    4.55    1.18
 -13   1  -5   37.56    2.98
 -13   1  -6    4.44    1.21
 -13   1  -7    0.95    0.86
 -13   1  -8    7.33    1.43
 -13   1  -9    8.20    1.38
 -13   1 -10   66.74    3.81
 -13   1 -11    4.66    1.23
 -13   1 -12    8.00    1.32
 -13   1 -13   13.30    1.76
 -13   1 -14   36.55    2.72
 -13   1 -15   74.33    3.94
 -13   1 -16   16.17    1.90
 -13   1 -17    0.19    0.66
 -13   1 -18    3.93    1.17
 -13   0   5   15.40    2.09
 -13   0   4   15.68    2.10
 -13   0   3    1.38    1.09
 -13   0   2   15.34    2.06
 -13   0   1    8.23    1.52
 -13   0   0   16.04    2.03
 -13   0  -1    1.15    0.92
 -13   0  -2    1.09    1.05
 -13   0  -3   36.37    2.82
 -13   0  -4  224.75    7.84
 -13   0  -5   33.04    2.69
 -13   0  -6   75.71    4.08
 -13   0  -7    1.38    0.95
 -13   0  -8   57.63    3.53
 -13   0  -9    8.50    1.38
 -13   0 -10   35.22    2.65
 -13   0 -11    8.34    1.40
 -13   0 -12   -0.66    0.86
 -13   0 -13   -0.05    0.73
 -13   0 -14    6.81    1.31
 -13   0 -15    7.85    1.27
 -13   0 -15    6.69    1.33
 -13   0 -16    6.67    1.34
 -13   0 -17    3.35    1.13
 -13   0 -18   12.84    1.87
 -13  -1   6    3.63    1.24
 -13  -1   5   48.71    3.53
 -13  -1   4    2.52    1.16
 -13  -1   3  144.83    6.25
 -13  -1   2    2.86    0.94
 -13  -1   1   29.13    2.60
 -13  -1   0   -1.16    1.09
 -13  -1  -1    9.74    1.71
 -13  -1  -2   34.40    2.75
 -13  -1  -3   40.32    2.96
 -13  -1  -4    1.28    0.86
 -13  -1  -5   12.26    1.61
 -13  -1  -6    2.45    1.06
 -13  -1  -7   11.89    1.68
 -13  -1  -8   39.98    2.85
 -13  -1  -9    2.65    1.02
 -13  -1 -10  114.37    4.95
 -13  -1 -11    7.71    1.27
 -13  -1 -12    2.53    0.92
 -13  -1 -13   -0.37    0.84
 -13  -1 -14   89.85    4.19
 -13  -1 -15   22.10    1.94
 -13  -1 -15   18.72    2.11
 -13  -1 -16   30.66    2.69
 -13  -1 -17    6.55    1.48
 -13  -1 -18    7.76    1.52
 -13  -2   6   -1.32    1.06
 -13  -2   5    1.49    1.03
 -13  -2   4    4.78    1.38
 -13  -2   3   16.13    2.04
 -13  -2   2   67.04    4.02
 -13  -2   1  116.66    5.38
 -13  -2   0   11.98    1.72
 -13  -2  -1    2.66    1.04
 -13  -2  -2    0.14    0.82
 -13  -2  -3  219.98    7.68
 -13  -2  -4   13.11    1.72
 -13  -2  -5  132.52    5.54
 -13  -2  -6    0.83    0.79
 -13  -2  -7  120.94    5.15
 -13  -2  -8    8.62    1.37
 -13  -2  -9    0.57    0.74
 -13  -2 -10   -0.63    0.85
 -13  -2 -11   17.31    1.78
 -13  -2 -12   -0.60    0.79
 -13  -2 -13    4.86    1.12
 -13  -2 -14    3.89    1.05
 -13  -2 -14    0.43    0.79
 -13  -2 -15  114.85    4.66
 -13  -2 -15  111.53    5.21
 -13  -2 -16   39.22    2.99
 -13  -2 -17   24.33    2.41
 -13  -2 -18    2.09    1.20
 -13  -3   6   99.55    5.27
 -13  -3   5    6.95    1.41
 -13  -3   4   88.84    4.75
 -13  -3   3   31.29    2.77
 -13  -3   2   49.57    3.42
 -13  -3   1    5.24    1.31
 -13  -3   0    2.20    0.86
 -13  -3  -1    1.22    0.95
 -13  -3  -2    1.52    0.93
 -13  -3  -3    2.72    1.09
 -13  -3  -4   62.96    3.61
 -13  -3  -5   69.92    3.79
 -13  -3  -6   61.73    3.53
 -13  -3  -7    1.10    1.01
 -13  -3  -8   32.54    2.49
 -13  -3  -9  125.63    5.14
 -13  -3 -10    5.24    1.16
 -13  -3 -11   36.11    2.55
 -13  -3 -12   13.00    1.53
 -13  -3 -13    8.08    1.24
 -13  -3 -14    2.63    0.85
 -13  -3 -14    2.19    1.15
 -13  -3 -15   50.57    2.85
 -13  -3 -15   51.56    3.48
 -13  -3 -16    0.37    0.88
 -13  -3 -17   13.21    1.91
 -13  -4   5    0.90    1.02
 -13  -4   4    4.11    1.32
 -13  -4   3   11.81    1.87
 -13  -4   2  260.73    8.93
 -13  -4   1   10.52    1.68
 -13  -4   0   68.10    3.96
 -13  -4  -1    0.47    0.96
 -13  -4  -2   35.65    2.76
 -13  -4  -3    0.56    0.82
 -13  -4  -4  210.54    7.34
 -13  -4  -5    8.55    1.45
 -13  -4  -6   80.57    4.05
 -13  -4  -7    8.77    1.42
 -13  -4  -8   63.68    3.50
 -13  -4  -9   22.41    2.02
 -13  -4 -10   49.79    2.99
 -13  -4 -11   20.36    1.91
 -13  -4 -12   96.37    4.23
 -13  -4 -13    0.56    0.77
 -13  -4 -13    1.34    1.07
 -13  -4 -14    7.76    1.21
 -13  -4 -14    9.26    1.56
 -13  -4 -15   18.89    1.72
 -13  -4 -15   20.68    2.28
 -13  -4 -16    3.51    1.24
 -13  -4 -17   27.21    2.62
 -13  -5   5   -0.65    1.00
 -13  -5   4    3.13    1.17
 -13  -5   3   36.47    3.03
 -13  -5   2   20.42    2.28
 -13  -5   1   18.34    2.10
 -13  -5   0   29.22    2.59
 -13  -5  -1   30.30    2.64
 -13  -5  -2    1.52    1.04
 -13  -5  -3   18.91    2.06
 -13  -5  -4   81.41    4.17
 -13  -5  -5  128.69    5.36
 -13  -5  -6   62.47    3.51
 -13  -5  -7   30.45    2.45
 -13  -5  -8   76.33    3.87
 -13  -5  -9    1.75    0.87
 -13  -5 -10   53.03    3.08
 -13  -5 -11    4.28    0.95
 -13  -5 -12   45.51    2.76
 -13  -5 -12   48.30    3.21
 -13  -5 -13    2.59    0.87
 -13  -5 -13    4.98    1.19
 -13  -5 -14    0.18    0.67
 -13  -5 -14    0.03    0.96
 -13  -5 -15    3.02    0.89
 -13  -5 -15    3.12    1.15
 -13  -5 -16   36.75    3.04
 -13  -5 -17    4.66    1.46
 -13  -6   4    5.81    1.39
 -13  -6   3   14.83    2.00
 -13  -6   2    0.81    0.87
 -13  -6   1   74.13    4.24
 -13  -6   0    7.56    1.33
 -13  -6  -1    8.22    1.60
 -13  -6  -2    1.31    0.95
 -13  -6  -3   11.23    1.74
 -13  -6  -4    2.56    1.08
 -13  -6  -5   49.78    3.22
 -13  -6  -6   -0.77    0.87
 -13  -6  -7   73.54    3.83
 -13  -6  -8    8.14    1.40
 -13  -6  -9   24.13    2.10
 -13  -6 -10   22.53    1.99
 -13  -6 -11   38.54    2.66
 -13  -6 -11   41.97    3.00
 -13  -6 -12   49.64    2.97
 -13  -6 -12   56.45    3.51
 -13  -6 -13   41.28    2.63
 -13  -6 -13   39.06    3.00
 -13  -6 -14    0.48    0.74
 -13  -6 -14    1.04    1.00
 -13  -6 -15   10.85    1.79
 -13  -6 -16   17.94    2.17
 -13  -7   3    2.64    1.19
 -13  -7   2    0.63    0.90
 -13  -7   1   31.51    2.82
 -13  -7   0    6.23    1.44
 -13  -7  -1   56.36    3.59
 -13  -7  -2    7.80    1.43
 -13  -7  -3    2.67    1.15
 -13  -7  -4   58.19    3.54
 -13  -7  -5  162.35    6.27
 -13  -7  -6    0.45    0.82
 -13  -7  -7    4.83    1.11
 -13  -7  -8    1.30    0.87
 -13  -7  -9  110.12    4.72
 -13  -7 -10    7.77    1.33
 -13  -7 -10    8.47    1.56
 -13  -7 -11   47.03    2.88
 -13  -7 -11   47.26    3.26
 -13  -7 -12    0.90    0.82
 -13  -7 -12    0.78    0.99
 -13  -7 -13  165.46    5.84
 -13  -7 -13  177.93    6.87
 -13  -7 -14   19.87    1.73
 -13  -7 -14   17.16    2.12
 -13  -7 -15    2.00    1.38
 -13  -7 -16    0.83    0.96
 -13  -8   2   22.21    2.44
 -13  -8   1   -0.85    0.90
 -13  -8   0    2.72    0.95
 -13  -8  -1   13.22    1.83
 -13  -8  -2   21.12    2.26
 -13  -8  -3    9.89    1.53
 -13  -8  -4    5.26    1.22
 -13  -8  -5    3.84    1.16
 -13  -8  -6   63.95    3.74
 -13  -8  -7  127.45    5.43
 -13  -8  -8   17.46    1.94
 -13  -8  -9    8.32    1.42
 -13  -8  -9    9.05    1.53
 -13  -8 -10   40.55    2.78
 -13  -8 -10   41.23    2.99
 -13  -8 -11  119.04    4.94
 -13  -8 -11  117.75    5.37
 -13  -8 -12   45.29    2.89
 -13  -8 -12   44.28    3.18
 -13  -8 -13    8.92    1.28
 -13  -8 -13   10.41    1.66
 -13  -8 -14    1.10    0.74
 -13  -8 -14    0.48    0.92
 -13  -8 -15   13.39    1.90
 -13  -9   1   11.26    1.81
 -13  -9   1   12.70    1.86
 -13  -9   0   73.41    4.34
 -13  -9  -1    0.35    0.92
 -13  -9  -2    3.06    1.22
 -13  -9  -3    0.02    0.89
 -13  -9  -4   15.66    1.92
 -13  -9  -5    0.95    1.12
 -13  -9  -6    3.03    1.08
 -13  -9  -7    2.90    1.09
 -13  -9  -7    3.44    0.98
 -13  -9  -8   11.11    1.62
 -13  -9  -8   10.93    1.60
 -13  -9  -9    8.25    1.42
 -13  -9  -9    9.67    1.59
 -13  -9 -10    0.34    0.74
 -13  -9 -10   -0.51    1.11
 -13  -9 -11    0.21    0.73
 -13  -9 -11   -1.63    0.98
 -13  -9 -12   35.97    2.50
 -13  -9 -12   34.53    2.90
 -13  -9 -13    6.52    1.53
 -13  -9 -14   -0.02    0.91
 -13 -10  -1   87.38    4.84
 -13 -10  -2   85.88    4.69
 -13 -10  -3   84.72    4.63
 -13 -10  -4    3.04    1.05
 -13 -10  -5   39.03    3.05
 -13 -10  -5   34.44    2.65
 -13 -10  -6  207.77    7.58
 -13 -10  -6  204.36    7.24
 -13 -10  -7   11.90    1.69
 -13 -10  -8   25.00    2.32
 -13 -10  -9    1.11    0.82
 -13 -10 -10   38.17    2.94
 -13 -10 -11    1.17    0.92
 -13 -10 -12   11.22    1.73
 -13 -10 -13    0.31    0.87
 -13 -11  -1   27.85    2.32
 -13 -11  -2    1.01    0.93
 -13 -11  -3    1.86    1.15
 -13 -11  -3    1.06    0.96
 -13 -11  -4    0.48    1.02
 -13 -11  -4    0.85    0.95
 -13 -11  -5    7.17    1.55
 -13 -11  -5   10.88    1.62
 -13 -11  -6    1.72    1.08
 -13 -11  -6    1.68    0.84
 -13 -11  -7   38.74    2.95
 -13 -11  -7   39.20    2.92
 -13 -11  -8   47.16    3.25
 -13 -11  -8   44.25    3.13
 -13 -11  -9  143.42    6.06
 -13 -11 -10    4.17    1.22
 -13 -11 -11    1.10    1.15
 -13 -11 -12   48.75    3.18
 -13 -11 -12   56.67    3.69
 -13 -11 -13   39.91    2.86
 -13 -11 -14   34.32    2.58
 -13 -12  -3    1.17    0.76
 -13 -12  -4    1.56    1.05
 -13 -12  -5   55.17    3.76
 -13 -12  -5   57.01    3.50
 -13 -12  -6    2.99    1.16
 -13 -12  -6    5.51    1.27
 -13 -12  -7   33.98    2.90
 -13 -12  -7   37.00    2.84
 -13 -12  -8   -0.73    1.07
 -13 -12  -8   -1.97    1.15
 -13 -12  -9    1.96    1.01
 -13 -12  -9    0.70    0.83
 -13 -12 -10   16.33    1.96
 -13 -12 -10   14.82    1.86
 -13 -12 -11   10.18    1.61
 -13 -12 -11   10.43    1.74
 -13 -12 -12   -0.09    1.05
 -13 -12 -13   35.33    2.72
 -13 -13  -4    0.62    0.79
 -13 -13  -5   -0.68    0.94
 -13 -13  -6   35.58    2.77
 -13 -13  -7   29.79    2.61
 -13 -13  -8   31.39    2.86
 -13 -13  -8   31.78    2.74
 -13 -13  -9    0.01    0.92
 -13 -13  -9    1.25    0.96
 -13 -13 -10    1.71    1.05
 -13 -13 -10   -0.70    0.92
 -13 -13 -11   31.15    2.73
 -13 -13 -12   -0.76    0.94
 -13 -14  -7    2.49    0.99
 -13 -14  -8   21.53    2.27
 -13 -14  -9   -0.59    1.02
 -13 -14 -10    8.53    1.72
 -13 -14 -11    4.92    1.32
 -14   3  -3    0.84    1.03
 -14   3  -4   16.00    2.22
 -14   3  -5    3.23    1.20
 -14   3  -6    0.21    0.93
 -14   3  -7    0.45    0.99
 -14   3  -8   65.41    4.13
 -14   3  -9   10.93    1.92
 -14   3 -10   26.68    2.70
 -14   3 -11    1.29    1.15
 -14   3 -12    5.85    1.37
 -14   3 -13   12.66    1.87
 -14   3 -14   56.62    3.83
 -14   3 -15    1.47    1.11
 -14   2  -1   49.86    3.64
 -14   2  -2   35.37    3.16
 -14   2  -3   75.82    4.50
 -14   2  -4   41.53    3.30
 -14   2  -5    3.18    1.32
 -14   2  -6   22.39    2.44
 -14   2  -7    4.20    1.30
 -14   2  -8   26.23    2.62
 -14   2  -9   11.53    1.86
 -14   2 -10   19.80    2.20
 -14   2 -11    5.83    1.41
 -14   2 -12    9.06    1.56
 -14   2 -13   -1.40    1.06
 -14   2 -14   32.22    2.79
 -14   2 -15    0.54    0.96
 -14   1   1    3.63    1.27
 -14   1   0    3.00    1.15
 -14   1  -1    1.22    1.05
 -14   1  -2    0.29    0.98
 -14   1  -3   18.07    2.20
 -14   1  -4    0.28    1.00
 -14   1  -5    5.06    1.42
 -14   1  -6    5.07    1.30
 -14   1  -7   48.93    3.46
 -14   1  -8   31.39    2.77
 -14   1  -9   52.59    3.56
 -14   1 -10    7.71    1.44
 -14   1 -11   14.08    1.85
 -14   1 -12    0.35    0.81
 -14   1 -13    1.48    0.93
 -14   1 -14   -0.15    0.91
 -14   1 -15   -0.43    0.85
 -14   0   2   45.49    3.49
 -14   0   1    0.67    0.94
 -14   0   0    8.58    1.64
 -14   0  -1    3.93    1.36
 -14   0  -2   19.31    2.23
 -14   0  -3    6.22    1.37
 -14   0  -4   10.15    1.69
 -14   0  -5   37.36    2.99
 -14   0  -6    9.08    1.55
 -14   0  -7   12.36    1.92
 -14   0  -8   12.96    1.80
 -14   0  -9    6.41    1.38
 -14   0 -10    2.55    1.06
 -14   0 -11   94.38    4.70
 -14   0 -12    0.72    0.90
 -14   0 -13   24.38    2.36
 -14   0 -14    2.67    1.09
 -14   0 -15   34.24    2.73
 -14  -1   2    1.83    1.11
 -14  -1   1    0.10    0.82
 -14  -1   0   32.96    2.86
 -14  -1  -1   10.22    1.69
 -14  -1  -2   29.49    2.67
 -14  -1  -3   22.42    2.39
 -14  -1  -4   85.72    4.57
 -14  -1  -5  103.83    5.02
 -14  -1  -6   71.26    4.05
 -14  -1  -7   23.48    2.30
 -14  -1  -8  106.06    5.01
 -14  -1  -9   -0.52    0.90
 -14  -1 -10   27.38    2.42
 -14  -1 -11   17.50    2.00
 -14  -1 -12    7.55    1.34
 -14  -1 -13   33.84    2.68
 -14  -1 -14    4.77    1.12
 -14  -1 -15   10.86    1.62
 -14  -1 -15   11.19    1.64
 -14  -2   2   12.53    1.95
 -14  -2   1   -0.29    0.98
 -14  -2   0   -0.57    1.04
 -14  -2  -1    5.81    1.30
 -14  -2  -2    1.64    0.97
 -14  -2  -3    9.12    1.60
 -14  -2  -4    8.69    1.49
 -14  -2  -5   49.55    3.36
 -14  -2  -6    1.66    1.08
 -14  -2  -7   34.98    2.80
 -14  -2  -8   47.78    3.27
 -14  -2  -9   20.22    2.20
 -14  -2 -10  240.43    8.10
 -14  -2 -11    0.10    0.86
 -14  -2 -12    5.47    1.31
 -14  -2 -13    2.81    1.01
 -14  -2 -14   37.83    2.71
 -14  -2 -15    8.18    1.40
 -14  -2 -15    9.52    1.63
 -14  -3   2    1.10    1.07
 -14  -3   1  105.06    5.29
 -14  -3   0   22.29    2.38
 -14  -3  -1    2.18    1.18
 -14  -3  -2   15.20    1.99
 -14  -3  -3  113.05    5.32
 -14  -3  -4   36.72    2.85
 -14  -3  -5    5.87    1.25
 -14  -3  -6    7.05    1.48
 -14  -3  -7   53.44    3.42
 -14  -3  -8    4.93    1.37
 -14  -3  -9   29.09    2.49
 -14  -3 -10   12.71    1.66
 -14  -3 -11   39.05    2.75
 -14  -3 -12   14.42    1.69
 -14  -3 -13    0.38    1.30
 -14  -3 -14   29.04    2.32
 -14  -3 -14   33.36    2.79
 -14  -3 -15    9.48    1.34
 -14  -3 -15   10.54    1.77
 -14  -4   2    9.22    1.64
 -14  -4   1    4.91    1.32
 -14  -4   0    6.41    1.48
 -14  -4  -1  114.84    5.43
 -14  -4  -2    8.27    1.55
 -14  -4  -3   13.96    1.85
 -14  -4  -4   -0.04    0.79
 -14  -4  -5   66.27    3.90
 -14  -4  -6   20.31    2.18
 -14  -4  -7    0.98    0.98
 -14  -4  -8    0.05    0.88
 -14  -4  -9   12.94    1.72
 -14  -4 -10    0.03    0.74
 -14  -4 -11   63.65    3.57
 -14  -4 -12    2.01    0.89
 -14  -4 -13    9.27    1.47
 -14  -4 -14    2.78    0.88
 -14  -4 -14    3.22    1.26
 -14  -4 -15   36.77    2.52
 -14  -4 -15   41.49    3.28
 -14  -5   2  176.87    7.36
 -14  -5   1   21.77    2.42
 -14  -5   0   53.22    3.66
 -14  -5  -1    3.80    1.17
 -14  -5  -2    0.65    0.88
 -14  -5  -3   79.06    4.36
 -14  -5  -4   20.10    2.19
 -14  -5  -5   17.82    2.03
 -14  -5  -6   -0.23    0.77
 -14  -5  -7    0.10    0.84
 -14  -5  -8   13.83    1.75
 -14  -5  -9    0.60    0.77
 -14  -5 -10    3.11    1.15
 -14  -5 -11   56.62    3.38
 -14  -5 -12    6.23    1.21
 -14  -5 -13    0.98    0.78
 -14  -5 -13    1.37    0.92
 -14  -5 -14    9.06    1.37
 -14  -5 -14    6.30    1.43
 -14  -5 -15   90.16    4.88
 -14  -6   1    1.06    0.96
 -14  -6   0   33.61    2.96
 -14  -6  -1    3.04    1.18
 -14  -6  -2    9.02    1.59
 -14  -6  -3    2.06    0.96
 -14  -6  -4  116.61    5.47
 -14  -6  -5   13.30    1.85
 -14  -6  -6  112.61    5.17
 -14  -6  -7   -0.80    0.86
 -14  -6  -8   15.99    1.88
 -14  -6  -9   12.47    1.65
 -14  -6 -10    5.51    1.22
 -14  -6 -11    0.71    0.85
 -14  -6 -12   38.40    2.75
 -14  -6 -12   41.13    3.11
 -14  -6 -13   17.31    1.82
 -14  -6 -13   17.54    2.11
 -14  -6 -14    1.60    0.81
 -14  -6 -14    2.54    1.11
 -14  -7   0    0.86    0.99
 -14  -7  -1   -0.03    0.82
 -14  -7  -2    1.09    1.00
 -14  -7  -3    1.20    0.96
 -14  -7  -4   27.83    2.58
 -14  -7  -5   17.67    2.04
 -14  -7  -6   93.14    4.66
 -14  -7  -7   48.96    3.32
 -14  -7  -8  106.20    4.93
 -14  -7  -9    2.21    1.05
 -14  -7 -10   45.91    3.05
 -14  -7 -11    3.47    1.06
 -14  -7 -11    4.76    1.34
 -14  -7 -12   36.26    2.40
 -14  -7 -12   35.54    2.95
 -14  -7 -13    5.21    1.07
 -14  -7 -13    4.93    1.43
 -14  -7 -14    3.12    0.98
 -14  -7 -14    1.83    1.14
 -14  -8  -1    6.84    1.57
 -14  -8  -2    1.87    0.90
 -14  -8  -3   34.08    2.91
 -14  -8  -4   22.52    2.37
 -14  -8  -5  146.70    6.23
 -14  -8  -6    8.36    1.50
 -14  -8  -7   41.23    3.07
 -14  -8  -8   13.68    1.81
 -14  -8  -9    2.69    1.62
 -14  -8  -9    1.95    0.93
 -14  -8 -10   -0.62    0.79
 -14  -8 -10    0.49    0.99
 -14  -8 -11    8.67    1.53
 -14  -8 -11   11.28    1.78
 -14  -8 -12   78.83    4.04
 -14  -8 -12   86.30    4.65
 -14  -8 -13   11.70    1.56
 -14  -8 -13   12.67    1.85
 -14  -8 -14   62.90    3.40
 -14  -9  -2    0.80    0.92
 -14  -9  -3    7.78    1.52
 -14  -9  -4    4.70    1.35
 -14  -9  -5   83.93    4.60
 -14  -9  -6   20.29    2.25
 -14  -9  -7  205.88    7.59
 -14  -9  -8    9.73    1.61
 -14  -9  -8    9.75    1.59
 -14  -9  -9    1.85    0.97
 -14  -9  -9    2.85    1.00
 -14  -9 -10    9.31    1.51
 -14  -9 -10   10.62    1.65
 -14  -9 -11   82.68    4.21
 -14  -9 -11   78.07    4.46
 -14  -9 -12    0.08    0.72
 -14  -9 -12    2.24    1.05
 -14  -9 -13   11.58    1.67
 -14 -10  -4    0.26    0.85
 -14 -10  -5    2.79    1.12
 -14 -10  -5    3.23    1.10
 -14 -10  -6   -0.07    0.85
 -14 -10  -6    0.94    1.07
 -14 -10  -7    0.41    0.83
 -14 -10  -7    2.99    1.12
 -14 -10  -8   27.06    2.52
 -14 -10  -8   33.18    2.81
 -14 -10  -9   34.59    2.78
 -14 -10  -9   39.64    3.06
 -14 -10 -10    2.86    1.26
 -14 -10 -11   19.11    2.23
 -14 -11  -2  151.96    6.11
 -14 -11  -3    6.28    1.33
 -14 -11  -4    0.23    0.87
 -14 -11  -5    4.03    1.20
 -14 -11  -6   31.41    2.74
 -14 -11  -7    1.03    0.80
 -14 -11  -8    4.45    1.24
 -14 -11  -9   10.47    1.69
 -14 -11 -10    9.29    1.61
 -14 -12  -3    6.95    1.35
 -14 -12  -4   17.69    2.00
 -14 -12  -5    8.11    1.54
 -14 -12  -6    8.26    1.48
 -14 -12  -7    2.67    1.15
 -14 -12  -8   32.08    2.74
 -14 -12  -9    4.37    1.32
 -14 -12  -9    2.86    1.04
 -14 -12 -10   12.08    1.88
 -14 -12 -11   17.53    2.10
 -14 -12 -12   72.15    4.16
 -14 -12 -13    7.91    1.47
 -14 -13  -5    3.56    1.09
 -14 -13  -6   11.05    1.65
 -14 -13  -7   -1.30    1.15
 -14 -13  -8    0.52    0.93
 -14 -13 -12    0.60    1.07
 -15   2 -10    1.69    1.11
 -15   2 -11   23.07    2.53
 -15   2 -12    2.06    1.24
 -15   2 -13   77.12    4.57
 -15   2 -14   11.49    1.91
 -15   1  -5    8.83    1.67
 -15   1  -6   53.10    3.78
 -15   1  -7    0.02    0.99
 -15   1  -8    8.02    1.63
 -15   1  -9    4.65    1.37
 -15   1 -10   28.64    2.71
 -15   1 -11   -0.66    0.93
 -15   1 -12    3.78    1.18
 -15   1 -13   12.96    2.01
 -15   1 -14   98.44    5.04
 -15   0  -3   19.05    2.33
 -15   0  -4    8.53    1.71
 -15   0  -5    2.23    1.00
 -15   0  -6   68.95    4.24
 -15   0  -7   30.79    2.85
 -15   0  -8   67.20    4.13
 -15   0  -9   21.40    2.32
 -15   0 -10    0.78    0.83
 -15   0 -11    2.95    1.12
 -15   0 -12    4.44    1.44
 -15   0 -13   12.82    1.73
 -15   0 -14   14.14    1.84
 -15   0 -15    1.92    1.14
 -15  -1  -2    1.48    1.04
 -15  -1  -3   38.81    3.25
 -15  -1  -4    9.77    1.73
 -15  -1  -5   78.54    4.54
 -15  -1  -6    0.39    1.00
 -15  -1  -7   10.92    1.78
 -15  -1  -8    0.41    0.90
 -15  -1  -9   91.19    4.81
 -15  -1 -10   61.49    3.86
 -15  -1 -11   28.32    2.61
 -15  -1 -12   14.85    1.92
 -15  -1 -13   24.25    2.39
 -15  -1 -14   24.66    2.39
 -15  -1 -15    8.95    1.51
 -15  -2  -2   66.47    4.21
 -15  -2  -3  165.96    6.91
 -15  -2  -4   90.14    4.90
 -15  -2  -5   67.13    4.16
 -15  -2  -6   44.15    3.32
 -15  -2  -7   26.23    2.61
 -15  -2  -8    1.47    0.95
 -15  -2  -9   19.61    2.28
 -15  -2 -10    0.71    0.98
 -15  -2 -11   92.90    4.73
 -15  -2 -12    0.47    0.95
 -15  -2 -13    1.31    0.97
 -15  -2 -14    7.44    1.46
 -15  -3  -2    3.03    1.15
 -15  -3  -3    0.03    0.85
 -15  -3  -4   79.31    4.53
 -15  -3  -5    4.06    1.21
 -15  -3  -6   53.64    3.58
 -15  -3  -7    2.45    0.86
 -15  -3  -8    2.75    1.19
 -15  -3  -9   23.67    2.38
 -15  -3 -10   42.40    3.07
 -15  -3 -11   52.76    3.44
 -15  -3 -12    0.71    0.76
 -15  -3 -13    8.86    1.48
 -15  -3 -14   15.25    1.86
 -15  -4  -2   27.30    2.67
 -15  -4  -3   26.30    2.58
 -15  -4  -4   67.34    4.12
 -15  -4  -5    1.48    1.05
 -15  -4  -6    0.33    0.84
 -15  -4  -7    7.04    1.46
 -15  -4  -8   22.03    2.37
 -15  -4  -9    5.80    1.41
 -15  -4 -10   60.32    3.69
 -15  -4 -11    2.94    0.91
 -15  -4 -12   34.04    2.70
 -15  -4 -13    0.60    0.84
 -15  -4 -14   20.93    1.98
 -15  -5  -2    6.45    1.56
 -15  -5  -3   12.09    1.95
 -15  -5  -4    0.03    0.94
 -15  -5  -5   55.29    3.66
 -15  -5  -6   86.76    4.65
 -15  -5  -7    0.34    0.85
 -15  -5  -8   46.04    3.22
 -15  -5  -9   14.52    1.74
 -15  -5 -10   36.13    2.76
 -15  -5 -11   53.41    3.41
 -15  -5 -12    7.42    1.30
 -15  -5 -13    1.04    0.78
 -15  -5 -14    2.54    0.89
 -15  -6  -3   15.20    2.03
 -15  -6  -4   -0.32    0.97
 -15  -6  -5    1.78    0.87
 -15  -6  -6    1.99    0.93
 -15  -6  -7    4.12    1.16
 -15  -6  -8    0.27    0.82
 -15  -6  -9   12.32    1.85
 -15  -6 -10    3.24    1.12
 -15  -6 -11   84.61    4.40
 -15  -6 -12   -0.03    0.75
 -15  -6 -13   -0.52    0.78
 -15  -6 -14    8.68    1.38
 -15  -7  -3   15.55    2.04
 -15  -7  -4   25.23    2.58
 -15  -7  -5   30.74    2.77
 -15  -7  -6   10.69    1.75
 -15  -7  -7    0.04    1.02
 -15  -7  -8    3.02    1.11
 -15  -7  -9    9.34    1.66
 -15  -7 -10    7.62    1.33
 -15  -7 -11    9.28    1.67
 -15  -7 -11    6.82    1.40
 -15  -7 -12    2.25    1.07
 -15  -7 -13   14.66    1.73
 -15  -7 -14    5.45    1.21
 -15  -8  -4   10.28    1.76
 -15  -8  -5    0.61    1.00
 -15  -8  -6   82.66    4.60
 -15  -8  -7   54.15    3.64
 -15  -8  -8   20.52    2.28
 -15  -8  -9    0.40    0.88
 -15  -8 -10   17.71    2.21
 -15  -8 -10   20.51    2.22
 -15  -8 -11   35.50    2.81
 -15  -8 -12   17.75    1.98
 -15  -8 -13    2.45    0.99
 -15  -9  -6    5.17    1.35
 -15  -9  -7    0.98    1.06
 -15  -9  -8   10.89    1.64
 -15  -9  -8   13.57    1.90
 -15  -9  -9    1.91    1.20
 -15  -9  -9   -0.84    0.89
 -15  -9 -10    5.48    1.22
 -15  -9 -11    4.75    1.30
 -15  -9 -12   65.58    3.81
 -15  -9 -13   29.45    2.49
 -15 -10  -6   44.37    3.26
 -15 -10  -7   25.55    2.51
 -15 -10  -7   27.36    2.65
 -15 -10  -8   -0.13    0.94
 -15 -10  -8    0.47    0.96
 -15 -10  -9    2.14    1.03
 -15 -10 -10   21.96    2.43
 -15 -10 -11    3.09    1.20
 -15 -11  -3    0.15    0.87
 -15 -11  -4    0.01    0.98
 -15 -11  -5    3.80    1.34
 -15 -11  -6    1.07    0.89
 -15 -12  -5   51.04    3.61
 -16  -1 -10   11.13    1.84
 -16  -1 -11   -0.56    0.98
 -16  -1 -12   -1.66    1.19
 -16  -1 -13    4.91    1.53
 -16  -1 -14   19.78    2.27
 -16  -2  -8    0.17    1.18
 -16  -2  -9    7.75    1.57
 -16  -2 -10   57.29    3.83
 -16  -2 -11    0.89    1.15
 -16  -2 -12   15.19    1.98
 -16  -2 -13    5.57    1.38
 -16  -2 -14   24.31    2.41
 -16  -3  -7    5.75    1.49
 -16  -3  -8    1.20    0.99
 -16  -3  -9   12.64    1.77
 -16  -3 -10    9.54    1.61
 -16  -3 -11   21.11    2.22
 -16  -3 -12   26.83    2.54
 -16  -3 -13    3.35    1.16
 -16  -3 -14    0.69    0.96
 -16  -4  -7   11.79    1.77
 -16  -4  -8    4.49    1.38
 -16  -4  -9   45.62    3.38
 -16  -4 -10    3.90    1.14
 -16  -4 -11   11.65    1.91
 -16  -4 -12    5.12    1.26
 -16  -4 -13    1.15    0.87
 -16  -4 -14    5.71    1.25
 -16  -5  -7   10.34    1.81
 -16  -5  -8   13.86    1.94
 -16  -5  -9    1.81    0.91
 -16  -5 -10    5.24    1.34
 -16  -5 -11   55.70    3.72
 -16  -5 -12    2.14    1.18
 -16  -5 -13    2.12    0.87
 -16  -5 -14    8.06    1.48
 -16  -6  -7   12.69    1.96
 -16  -6  -8   11.24    1.85
 -16  -6  -9   10.34    1.71
 -16  -6 -10   14.85    1.99
 -16  -6 -11   -1.90    1.08
 -16  -6 -12   24.77    2.41
 -16  -6 -13    3.90    1.11
 -16  -7  -8    1.74    0.94
 -16  -7  -9    1.41    0.86
 -16  -7 -10   36.07    2.91
 -16  -7 -11   20.74    2.20
 -16  -7 -12   15.20    1.94
 -16  -7 -13   13.04    1.72
 -16  -8  -9    0.29    0.86
 -16  -8 -10    4.46    1.14
 -16  -8 -11   13.37    1.86
 -16  -8 -12    1.76    1.09
 -16  -8 -13   41.39    3.03
 -16  -9 -10    4.30    1.29
 -16  -9 -11   11.70    1.73
 -16  -9 -12   33.37    2.81
 -16  -9 -13   15.00    1.99
 -16 -10 -12   59.05    3.85
   0   0   0    0.00    0.00


TITL pvl615_auto in P-1
REM P-1 (#2 in standard setting)
CELL 0.71073  12.725343  12.879131  17.074943  78.8085  70.6432  75.8485
ZERR    4.00   0.000452   0.000230   0.000586   0.0022   0.0032   0.0024
LATT  1
SFAC C H N O S Zn
UNIT 80.00 80.00 32.00 16.00 8.00 4.00
REM  CrysAlisPro recorded range (K): Min=139.9; max=141.5; aver:140.7
TEMP -132
TREF
HKLF 4
END
_computing_structure_solution     'SHELXT 2018/2 (Sheldrick. 2018)'
;
_shelx_hkl_checksum   75194

