 
data_pvl901a_aP_a
 
_audit_creation_method            'SHELXL-2018/3'
_shelx_SHELXL_version_number      '2018/3'
_chemical_name_systematic         ?
_chemical_name_common             ?
_chemical_melting_point           ?
_chemical_formula_moiety          ?
_chemical_formula_sum
 'C H N O S' 
_chemical_formula_weight          75.09

loop_
 _atom_type_symbol
 _atom_type_description
 _atom_type_scat_dispersion_real
 _atom_type_scat_dispersion_imag
 _atom_type_scat_source
 'C'  'C'   0.0033   0.0016
 'International Tables Vol C Tables 4.2.6.8 and 6.1.1.4'
 'H'  'H'   0.0000   0.0000
 'International Tables Vol C Tables 4.2.6.8 and 6.1.1.4'
 'N'  'N'   0.0061   0.0033
 'International Tables Vol C Tables 4.2.6.8 and 6.1.1.4'
 'O'  'O'   0.0106   0.0060
 'International Tables Vol C Tables 4.2.6.8 and 6.1.1.4'
 'S'  'S'   0.1246   0.1234
 'International Tables Vol C Tables 4.2.6.8 and 6.1.1.4'
 
_space_group_crystal_system       triclinic
_space_group_IT_number            2
_space_group_name_H-M_alt         'P -1'
_space_group_name_Hall            '-P 1'
 
_shelx_space_group_comment
;
The symmetry employed for this shelxl refinement is uniquely defined
by the following loop, which should always be used as a source of
symmetry information in preference to the above space-group names.
They are only intended as comments.
;
 
loop_
 _space_group_symop_operation_xyz
 'x, y, z'
 '-x, -y, -z'
 
_cell_length_a                    4.5105(2)
_cell_length_b                    14.3547(7)
_cell_length_c                    14.7203(8)
_cell_angle_alpha                 106.168(2)
_cell_angle_beta                  90.791(2)
_cell_angle_gamma                 93.635(2)
_cell_volume                      913.06(8)
_cell_formula_units_Z             12
_cell_measurement_temperature     150(2)
_cell_measurement_reflns_used     ?
_cell_measurement_theta_min       ?
_cell_measurement_theta_max       ?
 
_exptl_crystal_description        ?
_exptl_crystal_colour             ?
_exptl_crystal_density_meas       ?
_exptl_crystal_density_method     ?
_exptl_crystal_density_diffrn     1.639          
_exptl_crystal_F_000              456
_exptl_transmission_factor_min    ?
_exptl_transmission_factor_max    ?
_exptl_crystal_size_max           ?
_exptl_crystal_size_mid           ?
_exptl_crystal_size_min           ?
_exptl_absorpt_coefficient_mu     0.784
_shelx_estimated_absorpt_T_min    ?
_shelx_estimated_absorpt_T_max    ?
_exptl_absorpt_correction_type    ?
_exptl_absorpt_correction_T_min   ?
_exptl_absorpt_correction_T_max   ?
_exptl_absorpt_process_details    ?
_exptl_absorpt_special_details    ?
_diffrn_ambient_temperature       150(2)
_diffrn_radiation_wavelength      0.71073
_diffrn_radiation_type            MoK\a
_diffrn_source                    ?
_diffrn_measurement_device_type   ?
_diffrn_measurement_method        ?
_diffrn_detector_area_resol_mean  ?
_diffrn_reflns_number             18978
_diffrn_reflns_av_unetI/netI      0.0349
_diffrn_reflns_av_R_equivalents   0.0321
_diffrn_reflns_limit_h_min        -6
_diffrn_reflns_limit_h_max        6
_diffrn_reflns_limit_k_min        -20
_diffrn_reflns_limit_k_max        20
_diffrn_reflns_limit_l_min        -21
_diffrn_reflns_limit_l_max        20
_diffrn_reflns_theta_min          1.441
_diffrn_reflns_theta_max          30.573
_diffrn_reflns_theta_full         25.242
_diffrn_measured_fraction_theta_max   0.996
_diffrn_measured_fraction_theta_full  0.998
_diffrn_reflns_Laue_measured_fraction_max    0.996
_diffrn_reflns_Laue_measured_fraction_full   0.998
_diffrn_reflns_point_group_measured_fraction_max   0.996
_diffrn_reflns_point_group_measured_fraction_full  0.998
_reflns_number_total              5595
_reflns_number_gt                 4170
_reflns_threshold_expression      'I > 2\s(I)'
_reflns_Friedel_coverage          0.000
_reflns_Friedel_fraction_max      .
_reflns_Friedel_fraction_full     .
 
_reflns_special_details
;
 Reflections were merged by SHELXL according to the crystal
 class for the calculation of statistics and refinement.
 
 _reflns_Friedel_fraction is defined as the number of unique
 Friedel pairs measured divided by the number that would be
 possible theoretically, ignoring centric projections and
 systematic absences.
;
 
_computing_data_collection        ?
_computing_cell_refinement        ?
_computing_data_reduction         ?
_computing_structure_solution     'SHELXT 2018/2 (Sheldrick, 2018)'
_computing_structure_refinement 'SHELXL-2018/3 (Sheldrick, 2018)'
_computing_molecular_graphics     ?
_computing_publication_material   ?
_refine_special_details           ?
_refine_ls_structure_factor_coef  Fsqd
_refine_ls_matrix_type            full
_refine_ls_weighting_scheme       calc
_refine_ls_weighting_details
'w=1/[\s^2^(Fo^2^)+(0.1246P)^2^+1.4723P] where P=(Fo^2^+2Fc^2^)/3'
_atom_sites_solution_primary      ?
_atom_sites_solution_secondary    ?
_atom_sites_solution_hydrogens    mixed
_refine_ls_hydrogen_treatment     mixed
_refine_ls_extinction_method      none
_refine_ls_extinction_coef        .
_refine_ls_number_reflns          5595
_refine_ls_number_parameters      278
_refine_ls_number_restraints      0
_refine_ls_R_factor_all           0.1024
_refine_ls_R_factor_gt            0.0802
_refine_ls_wR_factor_ref          0.2554
_refine_ls_wR_factor_gt           0.2295
_refine_ls_goodness_of_fit_ref    1.090
_refine_ls_restrained_S_all       1.090
_refine_ls_shift/su_max           0.000
_refine_ls_shift/su_mean          0.000
 
loop_
 _atom_site_label
 _atom_site_type_symbol
 _atom_site_fract_x
 _atom_site_fract_y
 _atom_site_fract_z
 _atom_site_U_iso_or_equiv
 _atom_site_adp_type
 _atom_site_occupancy
 _atom_site_site_symmetry_order  
 _atom_site_calc_flag
 _atom_site_refinement_flags_posn
 _atom_site_refinement_flags_adp
 _atom_site_refinement_flags_occupancy
 _atom_site_disorder_assembly
 _atom_site_disorder_group
S001 S 0.2327(2) 0.37483(6) 0.36657(7) 0.0427(3) Uani 1 1 d . . . . .
O1 O 1.3724(6) 0.41195(18) 0.8026(2) 0.0492(7) Uani 1 1 d . . . . .
H1 H 1.469(12) 0.459(4) 0.831(3) 0.074 Uiso 1 1 calc R U . . .
O002 O -0.8906(5) -0.06725(15) 0.07054(15) 0.0319(4) Uani 1 1 d . . . . .
O003 O -0.7330(5) 0.08386(16) 0.07050(16) 0.0342(5) Uani 1 1 d . . . . .
H1A H -0.917(10) 0.069(3) -0.003(3) 0.051 Uiso 1 1 d . U . . .
N004 N -0.1809(5) 0.06349(16) 0.29591(15) 0.0243(4) Uani 1 1 d . . . . .
N005 N 0.6956(5) 0.25262(15) 0.58053(15) 0.0243(4) Uani 1 1 d . . . . .
O007 O 1.2735(7) 0.50370(18) 0.7066(2) 0.0547(7) Uani 1 1 d . . . . .
N008 N 0.7940(6) 0.19659(17) 0.63535(18) 0.0312(5) Uani 1 1 d . . . . .
N009 N -0.2704(6) -0.03039(17) 0.29427(18) 0.0322(5) Uani 1 1 d . . . . .
N00B N 0.4339(6) 0.35303(18) 0.44805(19) 0.0328(5) Uani 1 1 d . . . . .
N00C N 0.0446(6) 0.27135(18) 0.32544(19) 0.0325(5) Uani 1 1 d . . . . .
C00D C -0.5205(6) 0.01547(19) 0.18137(18) 0.0248(5) Uani 1 1 d . . . . .
C00E C 0.0369(6) 0.11396(18) 0.36509(18) 0.0233(5) Uani 1 1 d . . . . .
C00F C 0.4788(6) 0.20952(18) 0.50877(17) 0.0235(5) Uani 1 1 d . . . . .
C00G C -0.3281(6) 0.09270(19) 0.22895(18) 0.0244(5) Uani 1 1 d . . . . .
H00G H -0.303579 0.154439 0.217088 0.029 Uiso 1 1 calc R U . . .
C00H C -0.7266(6) 0.00996(19) 0.10301(18) 0.0249(5) Uani 1 1 d . . . . .
C00I C 0.3618(6) 0.26034(18) 0.44748(18) 0.0246(5) Uani 1 1 d . . . . .
C00J C 0.1364(6) 0.21267(19) 0.37579(18) 0.0245(5) Uani 1 1 d . . . . .
C00K C 0.1573(6) 0.06790(19) 0.42526(19) 0.0267(5) Uani 1 1 d . . . . .
H00K H 0.095211 0.001779 0.418557 0.032 Uiso 1 1 calc R U . . .
C00L C -0.4751(7) -0.0582(2) 0.2253(2) 0.0304(6) Uani 1 1 d . . . . .
H00L H -0.579314 -0.120542 0.207473 0.036 Uiso 1 1 calc R U . . .
C00M C 1.0338(6) 0.34653(19) 0.67812(19) 0.0267(5) Uani 1 1 d . . . . .
C00N C 0.3705(6) 0.11535(19) 0.49680(19) 0.0264(5) Uani 1 1 d . . . . .
H00N H 0.441548 0.080825 0.538189 0.032 Uiso 1 1 calc R U . . .
C00O C 0.9959(7) 0.2539(2) 0.6938(2) 0.0311(6) Uani 1 1 d . . . . .
H00O H 1.103357 0.235083 0.741022 0.037 Uiso 1 1 calc R U . . .
C00P C 0.8380(6) 0.34301(19) 0.6052(2) 0.0276(5) Uani 1 1 d . . . . .
H00P H 0.807369 0.393890 0.577081 0.033 Uiso 1 1 calc R U . . .
C00Q C 1.2365(6) 0.4291(2) 0.7295(2) 0.0352(6) Uani 1 1 d . . . . .
O00R O 1.7479(17) 0.5501(4) 0.9271(3) 0.140(3) Uani 1 1 d . . . . .
N1 N 2.0829(7) 0.6587(2) 0.9563(2) 0.0413(6) Uani 1 1 d . . . . .
C00S C 2.2412(11) 0.7151(3) 0.9032(3) 0.0562(10) Uani 1 1 d . . . . .
H00A H 2.248841 0.676507 0.837010 0.084 Uiso 1 1 calc R U . . .
H00B H 2.443933 0.733068 0.929897 0.084 Uiso 1 1 calc R U . . .
H00C H 2.138780 0.774091 0.906598 0.084 Uiso 1 1 calc R U . . .
C00T C 2.1381(16) 0.6816(3) 1.0550(3) 0.0757(16) Uani 1 1 d . . . . .
H00D H 2.344582 0.670244 1.067643 0.114 Uiso 1 1 calc R U . . .
H00E H 2.003944 0.640422 1.081662 0.114 Uiso 1 1 calc R U . . .
H00F H 2.103949 0.750100 1.084139 0.114 Uiso 1 1 calc R U . . .
C00U C 1.8380(16) 0.5753(6) 0.8755(7) 0.121(4) Uani 1 1 d . . . . .
H00U H 1.803576 0.559901 0.808957 0.145 Uiso 1 1 calc R U . . .
 
loop_
 _atom_site_aniso_label
 _atom_site_aniso_U_11
 _atom_site_aniso_U_22
 _atom_site_aniso_U_33
 _atom_site_aniso_U_23
 _atom_site_aniso_U_13
 _atom_site_aniso_U_12
S001 0.0461(5) 0.0288(4) 0.0584(5) 0.0245(4) -0.0189(4) -0.0090(3)
O1 0.0387(13) 0.0349(12) 0.0636(17) -0.0001(11) -0.0244(12) -0.0073(10)
O002 0.0320(10) 0.0269(10) 0.0351(10) 0.0075(8) -0.0083(8) -0.0033(8)
O003 0.0360(11) 0.0315(10) 0.0378(11) 0.0160(9) -0.0104(9) -0.0028(8)
N004 0.0271(10) 0.0215(10) 0.0243(10) 0.0076(8) -0.0038(8) -0.0027(8)
N005 0.0264(10) 0.0198(10) 0.0257(10) 0.0060(8) -0.0022(8) -0.0029(8)
O007 0.0587(16) 0.0264(11) 0.0744(19) 0.0103(12) -0.0038(14) -0.0118(11)
N008 0.0369(12) 0.0254(11) 0.0315(11) 0.0109(9) -0.0108(10) -0.0074(9)
N009 0.0389(13) 0.0231(11) 0.0353(12) 0.0123(9) -0.0118(10) -0.0079(9)
N00B 0.0354(12) 0.0242(11) 0.0409(13) 0.0140(10) -0.0061(10) -0.0043(9)
N00C 0.0328(12) 0.0270(11) 0.0404(13) 0.0162(10) -0.0103(10) -0.0055(9)
C00D 0.0245(11) 0.0246(12) 0.0242(11) 0.0058(9) -0.0026(9) -0.0002(9)
C00E 0.0254(11) 0.0210(11) 0.0229(11) 0.0063(8) -0.0010(9) -0.0014(8)
C00F 0.0256(11) 0.0212(11) 0.0226(11) 0.0052(8) -0.0003(9) -0.0011(9)
C00G 0.0252(11) 0.0244(11) 0.0239(11) 0.0079(9) -0.0020(9) 0.0004(9)
C00H 0.0227(11) 0.0252(12) 0.0258(11) 0.0061(9) -0.0027(9) -0.0004(9)
C00I 0.0266(12) 0.0216(11) 0.0265(11) 0.0086(9) 0.0015(9) -0.0004(9)
C00J 0.0247(11) 0.0236(11) 0.0271(11) 0.0107(9) 0.0011(9) 0.0002(9)
C00K 0.0310(13) 0.0218(11) 0.0274(12) 0.0083(9) -0.0062(10) -0.0030(9)
C00L 0.0351(14) 0.0233(12) 0.0319(13) 0.0082(10) -0.0092(11) -0.0051(10)
C00M 0.0236(11) 0.0236(11) 0.0295(12) 0.0025(9) 0.0003(9) -0.0028(9)
C00N 0.0302(12) 0.0214(11) 0.0276(12) 0.0083(9) -0.0065(10) -0.0032(9)
C00O 0.0334(14) 0.0274(13) 0.0313(13) 0.0079(10) -0.0068(11) -0.0047(10)
C00P 0.0283(12) 0.0204(11) 0.0323(13) 0.0054(9) -0.0004(10) -0.0024(9)
C00Q 0.0246(12) 0.0282(13) 0.0468(17) 0.0018(12) 0.0002(12) -0.0028(10)
O00R 0.239(7) 0.131(4) 0.050(2) 0.002(2) -0.007(3) 0.126(5)
N1 0.0409(15) 0.0328(13) 0.0450(15) 0.0038(11) -0.0033(12) -0.0015(11)
C00S 0.077(3) 0.045(2) 0.051(2) 0.0182(17) 0.013(2) 0.0150(19)
C00T 0.143(5) 0.045(2) 0.044(2) 0.0203(18) 0.001(3) -0.001(3)
C00U 0.107(5) 0.154(7) 0.170(7) 0.135(6) 0.103(5) 0.095(5)
 
_geom_special_details
;
 All esds (except the esd in the dihedral angle between two l.s. planes)
 are estimated using the full covariance matrix.  The cell esds are taken
 into account individually in the estimation of esds in distances, angles
 and torsion angles; correlations between esds in cell parameters are only
 used when they are defined by crystal symmetry.  An approximate (isotropic)
 treatment of cell esds is used for estimating esds involving l.s. planes.
;
 
loop_
 _geom_bond_atom_site_label_1
 _geom_bond_atom_site_label_2
 _geom_bond_distance
 _geom_bond_site_symmetry_2
 _geom_bond_publ_flag
S001 N00B 1.605(3) . ?
S001 N00C 1.618(3) . ?
O1 C00Q 1.319(4) . ?
O002 C00H 1.263(3) . ?
O003 C00H 1.281(3) . ?
N004 C00G 1.355(3) . ?
N004 N009 1.375(3) . ?
N004 C00E 1.414(3) . ?
N005 C00P 1.361(3) . ?
N005 N008 1.375(3) . ?
N005 C00F 1.409(3) . ?
O007 C00Q 1.212(4) . ?
N008 C00O 1.317(4) . ?
N009 C00L 1.321(4) . ?
N00B C00I 1.347(3) . ?
N00C C00J 1.347(3) . ?
C00D C00G 1.379(3) . ?
C00D C00L 1.409(4) . ?
C00D C00H 1.453(3) . ?
C00E C00K 1.369(3) . ?
C00E C00J 1.424(3) . ?
C00F C00N 1.371(3) . ?
C00F C00I 1.424(4) . ?
C00I C00J 1.448(4) . ?
C00K C00N 1.409(4) . ?
C00M C00P 1.369(4) . ?
C00M C00O 1.412(4) . ?
C00M C00Q 1.469(4) . ?
O00R C00U 1.009(7) . ?
N1 C00T 1.412(5) . ?
N1 C00S 1.439(5) . ?
N1 C00U 1.752(12) . ?
 
loop_
 _geom_angle_atom_site_label_1
 _geom_angle_atom_site_label_2
 _geom_angle_atom_site_label_3
 _geom_angle
 _geom_angle_site_symmetry_1
 _geom_angle_site_symmetry_3
 _geom_angle_publ_flag
N00B S001 N00C 101.05(13) . . ?
C00G N004 N009 111.8(2) . . ?
C00G N004 C00E 130.6(2) . . ?
N009 N004 C00E 117.6(2) . . ?
C00P N005 N008 111.6(2) . . ?
C00P N005 C00F 130.6(2) . . ?
N008 N005 C00F 117.7(2) . . ?
C00O N008 N005 104.5(2) . . ?
C00L N009 N004 104.6(2) . . ?
C00I N00B S001 107.0(2) . . ?
C00J N00C S001 106.58(19) . . ?
C00G C00D C00L 105.0(2) . . ?
C00G C00D C00H 128.2(2) . . ?
C00L C00D C00H 126.9(2) . . ?
C00K C00E N004 119.8(2) . . ?
C00K C00E C00J 117.8(2) . . ?
N004 C00E C00J 122.3(2) . . ?
C00N C00F N005 119.8(2) . . ?
C00N C00F C00I 117.6(2) . . ?
N005 C00F C00I 122.6(2) . . ?
N004 C00G C00D 106.7(2) . . ?
O002 C00H O003 123.4(2) . . ?
O002 C00H C00D 118.4(2) . . ?
O003 C00H C00D 118.2(2) . . ?
N00B C00I C00F 127.1(2) . . ?
N00B C00I C00J 112.7(2) . . ?
C00F C00I C00J 120.2(2) . . ?
N00C C00J C00E 127.4(2) . . ?
N00C C00J C00I 112.7(2) . . ?
C00E C00J C00I 119.9(2) . . ?
C00E C00K C00N 122.2(2) . . ?
N009 C00L C00D 111.9(2) . . ?
C00P C00M C00O 105.0(2) . . ?
C00P C00M C00Q 127.5(3) . . ?
C00O C00M C00Q 127.6(3) . . ?
C00F C00N C00K 122.3(2) . . ?
N008 C00O C00M 112.1(3) . . ?
N005 C00P C00M 106.8(2) . . ?
O007 C00Q O1 124.5(3) . . ?
O007 C00Q C00M 123.4(3) . . ?
O1 C00Q C00M 112.0(3) . . ?
C00T N1 C00S 119.0(4) . . ?
C00T N1 C00U 134.5(4) . . ?
C00S N1 C00U 106.3(3) . . ?
O00R C00U N1 91.9(9) . . ?
 
_refine_diff_density_max    2.037
_refine_diff_density_min   -1.734
_refine_diff_density_rms    0.113

_shelx_res_file
;
TITL pvl901a_aP_a.res in P-1
    pvl901a_aP_a.res
    created by SHELXL-2018/3 at 14:25:42 on 21-Oct-2022
REM Old TITL pvl901a_aP in P-1
REM SHELXT solution in P-1: R1 0.188, Rweak 0.010, Alpha 0.053
REM <I/s>   0.000 for    0 systematic absences,  Orientation as input
REM Formula found by SHELXT:  C18 N7 O4 S
CELL  0.71073   4.5105  14.3547  14.7203  106.168   90.791   93.635
ZERR   12.000   0.0002   0.0007   0.0008    0.002    0.002    0.002
LATT  1
SFAC C H N O S
UNIT 12 12 12 12 12
ACTA
TEMP -123.150
L.S. 10
BOND
LIST 6
FMAP 2
PLAN 20
WGHT    0.124600    1.472300
FVAR       0.83570
S001  5    0.232667    0.374831    0.366566    11.00000    0.04614    0.02878 =
         0.05837    0.02453   -0.01891   -0.00902
O1    4    1.372358    0.411952    0.802551    11.00000    0.03874    0.03490 =
         0.06356   -0.00014   -0.02436   -0.00735
AFIX 148
H1    2    1.469064    0.458651    0.830592    11.00000   -1.50000
AFIX   0
O002  4   -0.890595   -0.067251    0.070536    11.00000    0.03201    0.02689 =
         0.03506    0.00748   -0.00833   -0.00327
O003  4   -0.732950    0.083864    0.070501    11.00000    0.03600    0.03151 =
         0.03781    0.01602   -0.01036   -0.00281
H1A   2   -0.917172    0.069273   -0.002717    11.00000   -1.50000
N004  3   -0.180908    0.063488    0.295912    11.00000    0.02713    0.02153 =
         0.02430    0.00765   -0.00382   -0.00273
N005  3    0.695636    0.252618    0.580534    11.00000    0.02642    0.01981 =
         0.02569    0.00595   -0.00220   -0.00290
O007  4    1.273462    0.503699    0.706596    11.00000    0.05875    0.02644 =
         0.07439    0.01027   -0.00384   -0.01184
N008  3    0.794045    0.196589    0.635349    11.00000    0.03692    0.02541 =
         0.03146    0.01093   -0.01081   -0.00738
N009  3   -0.270393   -0.030385    0.294273    11.00000    0.03888    0.02307 =
         0.03530    0.01229   -0.01178   -0.00793
N00B  3    0.433931    0.353030    0.448052    11.00000    0.03540    0.02418 =
         0.04087    0.01404   -0.00607   -0.00431
N00C  3    0.044607    0.271350    0.325439    11.00000    0.03276    0.02704 =
         0.04043    0.01618   -0.01026   -0.00551
C00D  1   -0.520451    0.015471    0.181368    11.00000    0.02451    0.02464 =
         0.02419    0.00580   -0.00257   -0.00022
C00E  1    0.036891    0.113960    0.365090    11.00000    0.02544    0.02102 =
         0.02293    0.00630   -0.00102   -0.00144
C00F  1    0.478754    0.209522    0.508771    11.00000    0.02563    0.02122 =
         0.02261    0.00523   -0.00028   -0.00108
C00G  1   -0.328122    0.092700    0.228953    11.00000    0.02524    0.02445 =
         0.02391    0.00790   -0.00203    0.00039
AFIX  43
H00G  2   -0.303579    0.154439    0.217088    11.00000   -1.20000
AFIX   0
C00H  1   -0.726618    0.009957    0.103013    11.00000    0.02271    0.02517 =
         0.02576    0.00607   -0.00267   -0.00040
C00I  1    0.361846    0.260344    0.447481    11.00000    0.02661    0.02160 =
         0.02653    0.00856    0.00147   -0.00038
C00J  1    0.136364    0.212674    0.375790    11.00000    0.02466    0.02360 =
         0.02714    0.01072    0.00107    0.00020
C00K  1    0.157344    0.067899    0.425259    11.00000    0.03097    0.02175 =
         0.02735    0.00828   -0.00620   -0.00298
AFIX  43
H00K  2    0.095211    0.001779    0.418557    11.00000   -1.20000
AFIX   0
C00L  1   -0.475077   -0.058232    0.225317    11.00000    0.03509    0.02325 =
         0.03185    0.00822   -0.00917   -0.00513
AFIX  43
H00L  2   -0.579314   -0.120542    0.207473    11.00000   -1.20000
AFIX   0
C00M  1    1.033792    0.346533    0.678120    11.00000    0.02362    0.02356 =
         0.02945    0.00247    0.00032   -0.00283
C00N  1    0.370452    0.115346    0.496799    11.00000    0.03025    0.02140 =
         0.02758    0.00830   -0.00649   -0.00321
AFIX  43
H00N  2    0.441548    0.080825    0.538189    11.00000   -1.20000
AFIX   0
C00O  1    0.995868    0.253883    0.693815    11.00000    0.03341    0.02736 =
         0.03133    0.00793   -0.00677   -0.00465
AFIX  43
H00O  2    1.103357    0.235083    0.741022    11.00000   -1.20000
AFIX   0
C00P  1    0.838010    0.343014    0.605153    11.00000    0.02830    0.02042 =
         0.03229    0.00535   -0.00042   -0.00242
AFIX  43
H00P  2    0.807369    0.393890    0.577081    11.00000   -1.20000
AFIX   0
C00Q  1    1.236525    0.429089    0.729494    11.00000    0.02464    0.02823 =
         0.04677    0.00176    0.00016   -0.00282
O00R  4    1.747932    0.550105    0.927119    11.00000    0.23935    0.13117 =
         0.05034    0.00203   -0.00734    0.12591
N1    3    2.082948    0.658669    0.956285    11.00000    0.04093    0.03280 =
         0.04504    0.00378   -0.00325   -0.00150
C00S  1    2.241245    0.715081    0.903217    11.00000    0.07700    0.04498 =
         0.05128    0.01822    0.01272    0.01499
AFIX 137
H00A  2    2.248841    0.676507    0.837010    11.00000   -1.50000
H00B  2    2.443933    0.733068    0.929897    11.00000   -1.50000
H00C  2    2.138780    0.774091    0.906598    11.00000   -1.50000
AFIX   0
C00T  1    2.138074    0.681614    1.054983    11.00000    0.14265    0.04463 =
         0.04358    0.02027    0.00089   -0.00087
AFIX 137
H00D  2    2.344582    0.670244    1.067643    11.00000   -1.50000
H00E  2    2.003944    0.640422    1.081662    11.00000   -1.50000
H00F  2    2.103949    0.750100    1.084139    11.00000   -1.50000
AFIX   0
C00U  1    1.838041    0.575322    0.875469    11.00000    0.10680    0.15444 =
         0.16964    0.13470    0.10296    0.09506
AFIX  43
H00U  2    1.803576    0.559901    0.808957    11.00000   -1.20000
REM #####
AFIX   0
HKLF 4




REM  pvl901a_aP_a.res in P-1
REM wR2 = 0.2554, GooF = S = 1.090, Restrained GooF = 1.090 for all data
REM R1 = 0.0802 for 4170 Fo > 4sig(Fo) and 0.1024 for all 5595 data
REM 278 parameters refined using 0 restraints

END

WGHT      0.1246      1.4724

REM Highest difference peak  2.037,  deepest hole -1.734,  1-sigma level  0.113
Q1    1   1.9169  0.5822  0.9357  11.00000  0.05    1.74
Q2    1   1.7904  0.5440  0.8507  11.00000  0.05    1.60
Q3    1   2.2612  0.7055  1.0707  11.00000  0.05    0.46
Q4    1   1.8432  0.5597  0.9938  11.00000  0.05    0.46
Q5    1   2.2934  0.7783  0.9311  11.00000  0.05    0.41
Q6    1   2.0266  0.6977  1.0635  11.00000  0.05    0.36
Q7    1   1.6602  0.5273  0.9911  11.00000  0.05    0.34
Q8    1   2.1308  0.6757  0.9362  11.00000  0.05    0.33
Q9    1   2.3389  0.7240  0.9389  11.00000  0.05    0.33
Q10   1  -0.4959 -0.0273  0.1946  11.00000  0.05    0.32
Q11   1   1.8695  0.6356  0.9736  11.00000  0.05    0.32
Q12   1   1.8575  0.5506  1.0262  11.00000  0.05    0.31
Q13   1   1.5624  0.5952  0.9981  11.00000  0.05    0.31
Q14   1   2.2029  0.6420  1.0929  11.00000  0.05    0.30
Q15   1  -0.4349  0.0574  0.2108  11.00000  0.05    0.30
Q16   1   0.2488  0.2346  0.4133  11.00000  0.05    0.30
Q17   1   2.0932  0.5991  0.9397  11.00000  0.05    0.29
Q18   1   0.4214  0.1614  0.5023  11.00000  0.05    0.28
Q19   1   1.3586  0.5260  0.7279  11.00000  0.05    0.28
Q20   1   1.7768  0.4689  0.9985  11.00000  0.05    0.27
;
_shelx_res_checksum   47652

_shelx_hkl_file
;
  -1   0   0  443.46   11.30
  -1   0   0  452.85   10.60
  -1   0   0  463.05   11.30
   1   0   0  442.26   11.10
   1   0   0  455.85   11.40
   1   0   0  453.85   10.50
  -2   0   0 1268.07   30.20
  -2   0   0 1247.68   30.40
  -2   0   0 1278.67   28.80
   2   0   0 1235.38   29.90
   2   0   0 1279.27   30.60
   2   0   0 1229.38   28.50
  -3   0   0    6.40    1.70
  -3   0   0    9.10    1.40
  -3   0   0    5.70    1.70
   3   0   0   10.70    1.40
   3   0   0   10.40    2.00
   3   0   0   10.60    2.30
  -4   0   0  136.19    5.50
  -4   0   0  137.89    7.50
  -4   0   0  130.69    7.30
   4   0   0  147.59    7.90
   4   0   0  136.59    5.10
  -5   0   0    2.90    1.30
  -5   0   0    4.10    2.50
   5   0   0    0.50    0.90
   5   0   0    1.50    2.00
  -6   0   0    1.30    1.30
  -6   0   0    6.10    2.70
   6   0   0   -1.10    2.30
   6  -1   0   49.10    6.80
  -6   1   0   43.30    6.20
   5  -1   0   -0.50    0.70
   5  -1   0    1.20    2.10
  -5   1   0    0.60    0.90
  -5   1   0    0.60    1.70
   4  -1   0    4.50    2.10
   4  -1   0    4.00    1.10
  -4   1   0    2.70    1.10
  -4   1   0    4.50    2.10
  -4   1   0    1.30    1.40
   3  -1   0    7.40    1.80
   3  -1   0    7.20    1.90
  -3   1   0    5.00    1.60
  -3   1   0    8.40    1.30
  -3   1   0    9.90    2.20
   2  -1   0    4.20    0.80
   2  -1   0    6.60    1.30
   2  -1   0    9.30    1.80
  -2   1   0    5.40    1.40
  -2   1   0    6.20    0.90
  -2   1   0    6.30    1.50
   1  -1   0    1.60    0.40
   1  -1   0    2.40    0.90
   1  -1   0    0.20    0.60
  -1   1   0    2.00    0.80
  -1   1   0    1.60    0.80
  -1   1   0    1.60    0.50
   0   1   0    0.00    0.20
  -1  -1   0  447.46   11.80
  -1  -1   0  466.35   11.10
  -1  -1   0  455.65   11.40
   1   1   0  472.45   11.40
   1   1   0  474.65   11.90
   1   1   0  467.45   11.00
  -2  -1   0  580.94   15.80
  -2  -1   0  607.14   15.50
  -2  -1   0  586.14   14.40
   2   1   0  585.54   15.90
   2   1   0  561.54   15.10
   2   1   0  568.64   14.20
  -3  -1   0  170.08    7.60
  -3  -1   0  170.88    7.30
  -3  -1   0  179.18    6.20
   3   1   0  179.48    7.20
   3   1   0  179.58    5.90
   3   1   0  196.28    8.10
  -4  -1   0   -0.10    0.90
  -4  -1   0    0.60    1.70
  -4  -1   0    1.50    1.50
   4   1   0    1.60    1.70
   4   1   0   -0.60    0.60
  -5  -1   0  145.19    6.30
  -5  -1   0  148.59    8.80
   5   1   0  153.48    9.30
   5   1   0  139.59    5.70
  -6  -1   0    1.50    1.90
  -6  -1   0    1.20    2.30
   6   1   0   -1.00    2.60
   6  -2   0   27.60    5.30
  -6   2   0   35.20    6.00
   5  -2   0   42.20    5.50
   5  -2   0   38.60    2.40
  -5   2   0   45.80    2.70
  -5   2   0   44.20    5.60
   4  -2   0   46.90    2.50
   4  -2   0   48.70    5.30
  -4   2   0   46.00    5.50
  -4   2   0   48.30    2.70
  -4   2   0   44.00    4.80
   3  -2   0    0.10    0.50
   3  -2   0    2.00    1.30
   3  -2   0    0.20    0.90
  -3   2   0    0.50    1.10
  -3   2   0    0.00    0.60
  -3   2   0    1.60    1.20
   2  -2   0  419.16   12.20
   2  -2   0  416.86   11.70
   2  -2   0  405.46   10.10
  -2   2   0  406.06   10.20
  -2   2   0  386.96   11.70
  -2   2   0  412.66   11.80
   1  -2   0 2396.66   58.79
   1  -2   0 2385.26   57.29
   1  -2   0 2435.56   61.49
  -1   2   0 2460.15   62.09
   0  -2   0  142.39    3.30
   0  -2   0  138.29    4.20
   0  -2   0  146.49    3.40
   0   2   0  145.99    3.90
   0   2   0  150.28    4.60
  -1  -2   0    2.20    1.00
  -1  -2   0    2.00    0.70
  -1  -2   0    0.60    0.60
   1   2   0    2.20    0.70
   1   2   0    1.60    0.60
   1   2   0    1.80    1.00
  -2  -2   0  861.01   21.90
  -2  -2   0  923.91   21.40
  -2  -2   0  872.61   22.70
   2   2   0  913.61   21.80
   2   2   0  879.21   22.80
   2   2   0  867.21   21.10
  -3  -2   0  152.98    7.10
  -3  -2   0  156.68    5.90
  -3  -2   0  163.08    7.00
   3   2   0  194.98    9.90
   3   2   0  156.18    7.40
   3   2   0  157.78    5.60
  -4  -2   0    0.10    1.30
  -4  -2   0   -0.60    0.90
   4   2   0    2.10    1.10
   4   2   0    2.90    2.00
  -5  -2   0    3.10    1.50
  -5  -2   0    0.00    1.60
   5   2   0    1.50    1.30
   5   2   0   -2.00    1.90
  -6  -2   0    0.40    1.40
  -6  -2   0    0.00    2.30
   6   2   0    0.00    2.40
   6  -3   0    1.10    2.50
  -6   3   0   -0.70    2.10
   5  -3   0   78.19    6.70
   5  -3   0   58.99    4.00
  -5   3   0   60.79    2.90
  -5   3   0   71.59    7.30
   4  -3   0    6.80    1.20
   4  -3   0    8.70    2.40
  -4   3   0    7.80    1.30
  -4   3   0    9.40    2.50
   3  -3   0  594.84   17.80
   3  -3   0  593.04   17.10
   3  -3   0  592.04   14.60
  -3   3   0  633.44   17.80
  -3   3   0  590.84   14.70
  -3   3   0  567.94   17.20
   2  -3   0   66.09    2.60
   2  -3   0   65.39    3.80
  -2   3   0   64.79    3.70
  -2   3   0   68.19    2.70
  -2   3   0   61.69    3.60
   1  -3   0 4727.33  112.29
   1  -3   0 4750.02  112.89
   1  -3   0 4730.43  109.69
  -1   3   0 4811.32  112.99
   0  -3   0 3538.65   80.39
   0  -3   0 3526.55   85.49
   0   3   0 3602.84   85.29
   0   3   0 3512.85   80.39
  -1  -3   0 1589.34   36.90
  -2  -3   0  336.77   10.10
  -2  -3   0  363.06    9.90
  -2  -3   0  335.37   11.00
   2   3   0  349.57    9.70
   2   3   0  346.47   11.10
   2   3   0  359.86   10.00
  -3  -3   0  149.88    5.90
  -3  -3   0  148.59    7.10
  -3  -3   0  152.48    7.20
   3   3   0  143.49    5.60
   3   3   0  147.09    7.30
  -4  -3   0   43.80    4.40
  -4  -3   0   44.90    4.90
   4   3   0   44.30    5.50
   4   3   0   36.10    3.40
  -5  -3   0   82.29    6.50
  -5  -3   0   78.69    5.00
   5   3   0   73.79    6.70
   5   3   0   78.99    4.50
  -6  -3   0    7.70    2.30
  -6  -3   0   10.60    3.40
   6   3   0    9.40    3.90
   6  -4   0    9.90    3.70
   5  -4   0    0.90    2.00
   5  -4   0    0.60    0.60
  -5   4   0   -2.70    1.70
   4  -4   0   40.50    5.30
  -4   4   0   42.00    5.00
  -4   4   0   35.00    2.30
   3  -4   0    2.70    0.80
   3  -4   0    2.60    1.50
   3  -4   0    3.10    1.50
  -3   4   0    2.80    1.60
  -3   4   0    2.80    0.90
  -3   4   0    2.50    1.40
   2  -4   0  294.67    7.90
   2  -4   0  296.37    9.70
   2  -4   0  269.87    8.90
  -2   4   0  274.27    9.30
  -2   4   0  285.87    7.80
  -2   4   0  291.87    9.30
   1  -4   0 1135.89   26.30
   1  -4   0 1130.39   27.00
   1  -4   0 1125.09   26.20
   1  -4   0 1144.19   27.20
   1  -4   0 1112.19   25.80
  -1   4   0 1148.49   26.30
   0  -4   0   11.10    1.30
   0  -4   0   10.80    0.60
   0  -4   0   11.30    1.60
   0  -4   0   12.40    0.60
   0   4   0   11.40    1.60
   0   4   0   11.30    1.30
  -1  -4   0  174.28    5.70
  -1  -4   0  174.78    4.90
  -1  -4   0  175.18    6.40
   1   4   0  175.98    6.40
   1   4   0  167.58    5.50
   1   4   0  177.38    4.80
  -2  -4   0  277.27    8.30
  -2  -4   0  263.27    9.30
  -2  -4   0  261.87    8.30
   2   4   0  253.07    8.00
   2   4   0  266.17    9.50
   2   4   0  271.47    8.10
  -3  -4   0  125.29    5.50
   3   4   0  121.99    6.30
   3   4   0  138.79    7.90
   3   4   0  115.59    5.10
  -4  -4   0   27.10    3.30
  -4  -4   0   21.80    3.40
   4   4   0   28.40    3.10
   4   4   0   29.00    4.40
  -5  -4   0  177.98    8.00
  -5  -4   0  166.68    9.40
   5   4   0  189.88   10.60
  -6  -4   0    1.60    2.30
  -6  -4   0    2.90    2.00
   6   4   0   -0.60    2.50
   6  -5   0    7.70    3.70
  -6   5   0   17.30    4.70
   5  -5   0    5.20    0.80
   5  -5   0    4.10    0.80
   5  -5   0    3.80    2.60
  -5   5   0    6.30    2.80
   4  -5   0   21.30    3.80
   4  -5   0   24.00    1.70
  -4   5   0   21.40    3.60
   3  -5   0  170.88    5.20
   3  -5   0  161.78    7.10
   3  -5   0  165.28    7.90
  -3   5   0  165.18    8.30
  -3   5   0  168.98    7.50
   2  -5   0    0.40    0.70
   2  -5   0    1.20    0.60
   2  -5   0    2.20    0.80
   2  -5   0    2.70    1.20
   2  -5   0    1.00    1.00
  -2   5   0    0.70    1.00
   1  -5   0    4.60    0.90
   1  -5   0    5.20    1.30
   1  -5   0    4.90    1.00
  -1   5   0    3.70    0.90
  -1   5   0    4.10    1.30
   0  -5   0   32.60    1.10
   0  -5   0   31.40    2.10
   0  -5   0   33.40    1.10
   0  -5   0   29.80    2.40
   0   5   0   33.20    2.50
   0   5   0   34.50    2.10
  -1  -5   0  647.64   17.80
  -1  -5   0  667.33   15.50
  -1  -5   0  677.33   16.90
   1   5   0  650.03   16.60
   1   5   0  666.23   15.30
   1   5   0  661.43   17.80
  -2  -5   0   46.20    2.80
  -2  -5   0   48.50    3.80
  -2  -5   0   49.30    3.20
   2   5   0   49.99    3.90
   2   5   0   51.29    3.00
   2   5   0   53.59    2.80
  -3  -5   0  251.97   10.50
   3   5   0  251.27    9.50
   3   5   0  271.67    9.10
   3   5   0  265.47   10.80
  -4  -5   0   22.20    3.10
  -4  -5   0   26.20    3.70
   4   5   0   26.50    4.60
  -5  -5   0    3.80    1.80
  -5  -5   0    6.80    2.70
   5   5   0   11.60    4.30
  -6  -5   0    0.90    1.90
  -6  -5   0    0.30    2.20
   6   5   0   -1.70    2.30
   6  -6   0   44.30    7.10
  -6   6   0   50.89    7.00
   5  -6   0   10.80    3.60
  -5   6   0   10.20    3.10
   4  -6   0    0.40    0.60
   4  -6   0    2.90    2.20
   4  -6   0    1.50    0.80
  -4   6   0    0.50    1.50
   3  -6   0  213.18    9.30
   3  -6   0  215.38    6.40
   3  -6   0  201.18    6.60
   3  -6   0  218.78    8.50
   3  -6   0  198.18    8.50
  -3   6   0  206.28    8.70
   2  -6   0    0.80    1.00
   2  -6   0    0.30    0.70
   2  -6   0    0.50    0.70
   2  -6   0    0.20    0.50
   2  -6   0   -0.60    0.90
  -2   6   0    1.60    1.00
   1  -6   0   66.89    3.00
   1  -6   0   67.29    3.90
   1  -6   0   66.59    2.90
   1  -6   0   68.79    3.50
  -1   6   0   72.09    3.10
  -1   6   0   70.69    3.90
  -1   6   0   67.89    3.10
   0  -6   0 1017.00   22.00
   0  -6   0  986.50   22.10
   0  -6   0  974.00   25.10
   0  -6   0  988.90   24.10
   0   6   0 1027.80   25.20
   0   6   0 1027.30   24.10
  -1  -6   0  228.48    7.50
  -1  -6   0  218.08    8.30
  -1  -6   0  225.98    5.90
   1   6   0  214.38    5.70
   1   6   0  230.88    7.40
   1   6   0  240.88    8.50
  -2  -6   0  116.99    5.40
  -2  -6   0  123.39    4.70
  -2  -6   0  117.69    6.30
   2   6   0  117.39    5.10
   2   6   0  120.89    6.20
   2   6   0  115.49    4.40
  -3  -6   0    0.70    1.10
  -3  -6   0    0.40    1.40
  -3  -6   0   -0.20    0.90
   3   6   0    1.40    1.50
   3   6   0    1.40    1.10
   3   6   0    0.40    0.90
  -4  -6   0  122.79    6.40
  -4  -6   0  109.79    6.40
   4   6   0  107.49    7.40
  -5  -6   0   27.70    4.50
  -5  -6   0   30.60    4.10
   5   6   0   33.30    5.30
   6  -7   0   51.59    7.10
  -6   7   0   46.00    6.90
   5  -7   0    2.90    2.50
  -5   7   0    1.40    2.10
   4  -7   0   15.30    1.70
   4  -7   0   11.50    1.60
   4  -7   0   18.90    3.80
  -4   7   0   11.70    2.90
   3  -7   0   95.99    4.30
   3  -7   0   96.69    6.30
   3  -7   0   89.69    5.60
   3  -7   0  107.19    4.10
   3  -7   0  104.69    5.60
  -3   7   0   98.99    5.80
   2  -7   0   45.70    3.00
   2  -7   0   50.19    3.80
   2  -7   0   55.59    4.20
   2  -7   0   45.90    2.60
   2  -7   0   45.40    2.90
  -2   7   0   42.90    3.20
   1  -7   0  559.24   16.20
   1  -7   0  566.14   14.80
   1  -7   0  580.74   14.20
  -1   7   0  560.94   14.70
  -1   7   0  569.14   14.40
  -1   7   0  577.74   16.30
   0  -7   0 1414.16   35.30
   0  -7   0 1435.36   34.00
   0   7   0 1480.75   35.40
   0   7   0 1434.56   33.90
  -1  -7   0   34.70    2.70
  -1  -7   0   37.10    4.10
  -1  -7   0   34.20    1.90
   1   7   0   34.90    1.40
   1   7   0   31.80    3.50
   1   7   0   33.70    2.60
  -2  -7   0  361.46   14.20
  -2  -7   0  382.16   10.70
  -2  -7   0  401.26   12.20
   2   7   0  378.16   11.60
   2   7   0  379.56   10.30
   2   7   0  392.46   13.40
  -3  -7   0  439.16   13.30
  -3  -7   0  443.16   13.90
   3   7   0  434.56   15.50
   3   7   0  420.26   12.60
  -4  -7   0   15.60    2.90
  -4  -7   0   16.40    3.00
   4   7   0   19.60    4.10
  -5  -7   0   -0.10    1.80
  -5  -7   0    1.50    1.80
   5   7   0   -0.70    2.10
   6  -8   0   -0.20    2.80
  -6   8   0    0.30    2.50
   5  -8   0    2.60    2.70
   5  -8   0    3.80    0.80
  -5   8   0    0.60    2.10
   4  -8   0   86.99    4.00
   4  -8   0   91.39    7.00
   4  -8   0   88.09    3.70
  -4   8   0   81.19    6.20
   3  -8   0  405.96   11.30
   3  -8   0  413.96   15.00
   3  -8   0  407.56   11.90
  -3   8   0  413.66   13.80
   2  -8   0    6.70    2.10
   2  -8   0    7.10    1.60
   2  -8   0    7.30    1.50
   2  -8   0   10.50    2.40
   2  -8   0    5.30    1.20
  -2   8   0    6.40    1.60
   1  -8   0    0.50    0.80
   1  -8   0    0.60    1.10
   1  -8   0   -0.50    0.70
  -1   8   0    1.50    1.10
  -1   8   0    1.50    0.70
  -1   8   0    1.00    0.70
   0  -8   0   62.49    3.60
   0  -8   0   61.49    4.20
   0   8   0   60.09    4.10
   0   8   0   63.19    3.50
  -1  -8   0  222.08    5.50
  -1  -8   0  211.88    8.90
  -1  -8   0  218.88    8.90
   1   8   0  214.38    9.90
   1   8   0  219.08    5.30
  -2  -8   0   17.80    2.60
  -2  -8   0   22.40    2.20
  -2  -8   0   18.00    3.30
   2   8   0   13.40    2.70
   2   8   0   23.70    3.00
   2   8   0   18.00    1.80
  -3  -8   0  248.78    8.90
  -3  -8   0  247.08    9.70
   3   8   0  250.77   11.30
   3   8   0  243.98    8.30
  -4  -8   0   22.40    3.70
  -4  -8   0   29.70    3.90
   4   8   0   24.80    4.40
  -5  -8   0   17.20    3.50
  -5  -8   0    7.40    2.70
   5   8   0   15.70    3.90
   5  -9   0    1.50    0.70
   5  -9   0    2.50    2.60
  -5   9   0    0.70    2.10
   4  -9   0    0.70    2.00
   4  -9   0    0.50    0.80
   4  -9   0    1.30    1.00
  -4   9   0    1.10    1.70
   3  -9   0    4.40    1.30
   3  -9   0    9.60    2.70
  -3   9   0    9.90    2.40
   2  -9   0   64.59    3.70
   2  -9   0   57.59    4.60
   2  -9   0   63.09    3.50
   2  -9   0   69.99    5.20
   2  -9   0   62.79    4.00
  -2   9   0   69.29    4.00
   1  -9   0   50.59    4.00
   1  -9   0   56.09    3.40
   1  -9   0   50.79    2.60
  -1   9   0   56.19    4.30
  -1   9   0   51.99    3.30
   0  -9   0    4.00    1.60
   0  -9   0    9.90    2.00
   0   9   0   11.30    2.20
  -1  -9   0  129.09    6.00
  -1  -9   0  133.39    7.10
   1   9   0  129.29    5.80
   1   9   0  135.19    7.00
  -2  -9   0  107.89    5.90
  -2  -9   0  111.69    4.20
   2   9   0  109.29    6.70
   2   9   0  104.19    3.80
  -3  -9   0   49.80    3.50
  -3  -9   0   48.00    4.80
   3   9   0   42.10    3.00
   3   9   0   42.10    5.30
  -4  -9   0   -1.30    1.10
  -4  -9   0    1.90    1.80
   4   9   0    0.40    1.90
  -5  -9   0   28.30    4.40
  -5  -9   0   34.30    4.80
   5   9   0   33.30    5.90
   5 -10   0    6.40    3.50
   5 -10   0    6.30    1.20
  -5  10   0    9.50    3.30
   4 -10   0    6.40    1.50
   4 -10   0    5.70    1.50
   4 -10   0    7.30    2.90
  -4  10   0    9.40    2.80
   3 -10   0   10.80    1.80
   3 -10   0   12.10    3.20
   3 -10   0    8.60    1.90
  -3  10   0   13.90    2.90
   2 -10   0   82.79    4.20
   2 -10   0   76.49    5.80
   2 -10   0   85.59    4.90
  -2  10   0   80.39    4.50
   1 -10   0   21.90    3.30
   1 -10   0   19.90    2.50
   1 -10   0   29.40    1.90
  -1  10   0   22.70    2.60
  -1  10   0   20.70    3.20
   0 -10   0   22.60    2.70
   0 -10   0   15.50    2.90
   0  10   0   19.90    3.00
   0  10   0   16.10    2.30
  -1 -10   0   60.79    4.30
   1  10   0   67.79    5.10
  -2 -10   0   12.90    2.70
  -2 -10   0   14.90    1.60
   2  10   0   16.50    3.30
   2  10   0   14.00    1.40
  -3 -10   0   27.70    3.80
  -3 -10   0   27.70    2.90
   3  10   0   21.60    2.30
   3  10   0   22.70    4.00
  -4 -10   0    1.70    1.80
  -4 -10   0    0.90    1.40
   4  10   0    4.00    2.60
  -5 -10   0   -0.30    2.00
  -5 -10   0    0.40    1.90
   5  10   0    1.00    2.40
   5 -11   0    1.50    2.70
  -5  11   0    0.00    2.20
   4 -11   0   54.49    7.10
   4 -11   0   47.50    3.70
  -4  11   0   57.59    5.90
   3 -11   0   36.20    5.20
   3 -11   0   36.40    3.80
   3 -11   0   36.70    3.50
  -3  11   0   29.40    3.90
   2 -11   0   -0.40    1.00
   2 -11   0    1.40    1.60
   2 -11   0    1.30    1.10
   2 -11   0    1.60    1.00
  -2  11   0   -0.40    0.90
   1 -11   0  110.89    5.50
   1 -11   0  118.19    4.00
   1 -11   0  108.99    5.30
   1 -11   0   99.29    5.90
  -1  11   0  102.19    6.40
  -1  11   0  114.49    5.50
   0 -11   0  153.28    6.90
   0  11   0  137.59    7.50
  -1 -11   0  106.99    5.90
   1  11   0   96.99    6.50
  -2 -11   0  156.58    4.80
  -2 -11   0  165.28    8.00
   2  11   0  155.78    4.50
   2  11   0  152.18    8.70
  -3 -11   0   16.90    2.30
  -3 -11   0   13.20    3.10
   3  11   0   12.10    3.20
   3  11   0   12.10    1.80
  -4 -11   0   20.70    3.80
  -4 -11   0   20.30    3.20
   4  11   0   22.20    4.80
  -5 -11   0    3.20    2.70
  -5 -11   0    2.10    2.10
   5  11   0    4.60    3.10
   5 -12   0    5.10    3.60
  -5  12   0    0.20    2.20
   4 -12   0    3.30    1.40
   4 -12   0   -0.40    2.30
   4 -12   0    3.70    1.70
  -4  12   0    0.50    2.40
   3 -12   0   77.59    5.20
   3 -12   0   86.79    7.10
   3 -12   0   85.19    4.70
  -3  12   0   80.39    5.60
   2 -12   0   -0.10    0.90
   2 -12   0    0.10    0.80
   2 -12   0    0.70    1.60
   2 -12   0    0.20    1.10
   1 -12   0   92.49    3.40
   1 -12   0   88.49    3.30
   1 -12   0   90.29    5.30
  -1  12   0   89.39    6.30
   0 -12   0   44.70    4.40
   0  12   0   48.00    5.30
  -1 -12   0   18.50    3.10
   1  12   0   21.50    4.00
  -2 -12   0   23.70    3.60
   2  12   0   20.60    3.80
  -3 -12   0   55.69    6.00
  -3 -12   0   55.39    3.40
   3  12   0   51.79    6.60
   3  12   0   50.89    2.80
  -4 -12   0   54.69    6.10
  -4 -12   0   55.79    4.40
   4  12   0   53.69    7.30
   5 -13   0    3.10    3.50
  -5  13   0    4.10    2.90
   4 -13   0    1.90    2.90
   4 -13   0    3.60    1.50
  -4  13   0    1.80    2.10
   3 -13   0   28.10    3.40
   3 -13   0   29.40    5.20
  -3  13   0   30.10    4.10
   2 -13   0   69.19    4.00
   2 -13   0   69.49    3.80
   2 -13   0   75.39    4.90
   2 -13   0   73.89    7.70
   1 -13   0   30.30    1.70
   1 -13   0   29.80    1.60
   1 -13   0   37.00    4.10
  -1  13   0   39.60    5.20
   0 -13   0   74.59    5.30
   0  13   0   84.99    6.30
  -1 -13   0   13.80    2.90
   1  13   0    5.90    2.40
  -2 -13   0   44.60    5.20
   2  13   0   47.80    9.10
  -3 -13   0   94.79    6.90
   3  13   0   87.59    3.60
   3  13   0   96.29    3.70
   3  13   0   93.69    7.70
  -4 -13   0    0.30    1.40
  -4 -13   0    0.70    1.90
   4  13   0    0.80    2.30
   4 -14   0    8.30    2.20
   4 -14   0   10.60    4.20
  -4  14   0    7.30    2.80
   3 -14   0  420.86   13.90
   3 -14   0  427.76   14.10
   3 -14   0  436.26   18.30
   2 -14   0   32.00    3.90
   2 -14   0   27.40    4.80
   2 -14   0   27.00    2.80
   2 -14   0   29.50    2.50
   1 -14   0  124.09    6.80
  -1  14   0  117.89    7.80
   0 -14   0  100.29    6.30
   0  14   0   99.29    7.20
  -1 -14   0   98.19    6.80
  -2 -14   0   72.19    6.00
   2  14   0   81.79    8.50
  -3 -14   0    7.30    3.00
   3  14   0    5.80    2.90
   4  14   0   23.90    5.40
   4 -15   0   12.90    2.70
   4 -15   0   19.30    3.70
   4 -15   0   10.30    4.20
   3 -15   0    8.60    2.30
   3 -15   0    2.80    1.80
   3 -15   0    6.60    3.30
   2 -15   0   45.40    5.00
   2 -15   0   34.60    2.60
   2 -15   0   44.50    6.50
   2 -15   0   37.20    2.80
   1 -15   0   23.90    3.80
  -1  15   0   23.10    4.20
   0 -15   0   42.30    4.90
   0  15   0   48.30    6.20
  -1 -15   0   21.90    3.80
   1  15   0   22.80    4.60
  -2 -15   0   84.59    6.80
   2  15   0   86.49    7.50
  -3 -15   0   43.80    5.90
   3  15   0   49.60    6.80
   4 -16   0    3.40    2.00
   4 -16   0    6.20    2.50
   4 -16   0    7.00    3.90
   3 -16   0   16.20    4.90
   3 -16   0   12.30    3.30
   3 -16   0   15.40    2.80
   2 -16   0   45.10    4.90
   2 -16   0   42.10    2.80
   2 -16   0   42.60    6.60
   1 -16   0   -1.20    1.30
  -1  16   0    1.40    2.00
   0 -16   0   32.60    4.60
   0  16   0   34.90    5.40
  -1 -16   0    1.90    1.80
   1  16   0    1.30    2.20
  -2 -16   0   49.80    6.30
   2  16   0   39.20    6.10
  -3 -16   0    3.40    2.70
   3 -17   0   11.10    2.40
   3 -17   0   16.80    3.40
   2 -17   0   27.90    2.00
   2 -17   0   32.70    6.30
   2 -17   0   33.20    4.60
   1 -17   0   17.20    3.60
  -1  17   0   12.20    3.70
   0 -17   0    8.30    2.80
   0  17   0    1.90    2.30
  -1 -17   0    9.50    3.10
   1  17   0    5.00    2.80
   2  17   0   78.19    8.70
   3 -18   0    1.20    2.10
   3 -18   0   -0.30    2.90
   2 -18   0    1.00    1.80
   1 -18   0   -1.20    1.70
  -1  18   0   -0.10    2.10
   0 -18   0    1.50    2.10
   0  18   0    0.60    2.40
   1  18   0   49.20    8.80
  -2 -18   0   67.09    7.60
   2  18   0   82.69    9.40
   2 -19   0    1.00    3.10
   2 -19   0   -0.90    1.90
   1 -19   0    1.80    2.30
   1 -19   0    1.00    2.60
  -1  19   0    2.80    2.70
   0 -19   0   15.80    4.10
   0  19   0   16.50    4.20
  -1 -19   0   39.80    6.20
   1  19   0   38.80    6.60
   1  19  -1  180.98   12.10
  -1 -19   1  180.48   10.80
   0  19  -1    8.30    3.70
  -1  19  -1   13.50    4.20
   1 -19   1   11.80    3.40
   2 -19   1    8.10    3.10
   2 -19   1    9.40    4.20
   2  18  -1   -1.50    2.30
  -2 -18   1   -1.90    2.00
   1  18  -1   52.99    7.40
  -1 -18   1   57.39    6.70
   0  18  -1   14.00    4.00
   0 -18   1   10.50    3.20
  -1  18  -1    0.10    2.20
   1 -18   1    1.20    1.90
   2 -18   1    1.30    2.00
   2 -18   1   -0.50    2.70
   3 -18   1   29.70    6.40
   3 -18   1   23.60    4.20
   3  17  -1   26.50    5.60
  -3 -17   1   39.80    6.00
   2  17  -1   18.50    4.70
  -2 -17   1   19.60    4.10
   1  17  -1   11.40    3.90
  -1 -17   1   14.80    3.30
   0  17  -1   17.90    4.50
   0 -17   1   20.60    4.00
  -1  17  -1    4.10    2.50
   1 -17   1   -0.40    1.70
   2 -17   1    8.20    2.60
   2 -17   1    3.70    2.90
   2 -17   1    6.00    1.40
   3 -17   1    4.90    2.30
   3 -17   1    9.60    2.40
   3 -17   1   11.80    4.30
   3  16  -1    7.50    4.10
   2  16  -1   86.19    9.20
  -2 -16   1   75.69    7.80
   1  16  -1   -1.60    1.70
  -1 -16   1    1.50    1.90
   0  16  -1    9.20    3.30
   0 -16   1    4.70    2.20
  -1  16  -1   21.50    4.50
   1 -16   1   31.80    4.50
   2 -16   1   29.50    4.00
   2 -16   1   32.70    2.70
   2 -16   1   31.40    5.50
   2 -16   1   30.10    2.80
   3 -16   1   17.80    3.30
   3 -16   1   11.50    2.50
   3 -16   1   11.80    3.90
   4 -16   1    6.90    2.70
   4 -16   1   10.30    7.00
   3  15  -1    2.30    2.70
  -3 -15   1    5.60    2.80
   2  15  -1    0.80    2.20
  -2 -15   1   -1.10    1.70
   1  15  -1    3.50    2.30
  -1 -15   1   -0.30    1.30
   0  15  -1   12.10    3.30
   0 -15   1   14.50    3.40
  -1  15  -1   17.80    3.90
   1 -15   1    9.50    2.40
   2 -15   1    0.70    1.50
   2 -15   1    0.60    1.00
   2 -15   1   -0.20    0.90
   2 -15   1   -1.90    2.00
   3 -15   1   -1.20    1.20
   3 -15   1    0.00    2.10
   3 -15   1   -0.70    1.30
   4 -15   1    2.40    2.90
   4 -15   1    0.10    1.70
   4 -15   1   -0.20    1.50
   4  14  -1    2.00    2.90
  -4 -14   1    0.60    2.10
   3  14  -1    0.40    0.60
   3  14  -1    0.30    2.10
  -3 -14   1    0.00    1.80
   2  14  -1   10.10    3.40
  -2 -14   1    5.40    2.40
   1  14  -1   17.70    4.00
   0  14  -1  160.98    9.10
   0 -14   1  150.58    7.80
  -1  14  -1   10.80    3.00
   1 -14   1   11.40    1.20
   1 -14   1   12.20    1.30
   1 -14   1    7.50    2.30
   2 -14   1  114.79    5.20
   2 -14   1  107.79    5.00
   2 -14   1  115.39    6.30
   3 -14   1   54.89    4.30
   3 -14   1   71.89    5.00
   3 -14   1   52.39    6.60
  -4  14  -1   43.70    5.30
   4 -14   1   41.00    4.20
   4 -14   1   45.20    5.10
   4 -14   1   39.00    6.10
   4  13  -1    7.20    3.30
  -4 -13   1    4.20    2.50
  -4 -13   1    8.30    2.20
   3  13  -1    0.00    0.80
   3  13  -1    0.70    1.80
  -3 -13   1   -1.20    0.80
  -3 -13   1    1.50    1.80
   2  13  -1   14.20    3.80
   1  13  -1   73.59    6.10
  -1 -13   1   72.39    5.30
   0  13  -1   38.60    5.20
   0 -13   1   46.50    4.80
  -1  13  -1   45.20    5.10
   1 -13   1   47.70    2.40
   1 -13   1   47.20    3.90
   1 -13   1   39.60    2.70
   2 -13   1   78.19    4.40
   2 -13   1   91.89    4.60
   2 -13   1   87.79    6.90
   2 -13   1   90.39    5.30
   3 -13   1   70.19    8.60
   3 -13   1   76.39    5.20
   3 -13   1   82.79    4.90
  -4  13  -1   -0.80    1.70
   4 -13   1   -1.00    2.00
   4 -13   1   -0.60    1.10
  -5  13  -1   15.40    4.20
   5 -13   1   12.80    4.60
   4  12  -1   27.20    5.40
  -4 -12   1   21.80    3.20
  -4 -12   1   16.00    3.60
   3  12  -1   37.70    5.90
   3  12  -1   28.70    2.30
  -3 -12   1   25.30    4.00
  -3 -12   1   27.50    2.80
   2  12  -1    1.90    1.90
   2  12  -1    0.80    0.50
  -2 -12   1    0.60    1.20
  -2 -12   1    1.10    0.60
   1  12  -1  206.78   10.10
  -1 -12   1  202.08    8.80
   0  12  -1  182.78    9.10
   0 -12   1  181.98    8.00
  -1  12  -1   29.50    4.20
   1 -12   1   27.80    1.90
   1 -12   1   23.00    1.80
   1 -12   1   32.70    3.60
   2 -12   1  211.08    7.80
   2 -12   1  229.18    8.10
   2 -12   1  211.68    8.40
   2 -12   1  235.88   10.90
  -3  12  -1   37.50    4.50
   3 -12   1   36.00    5.30
   3 -12   1   43.00    4.10
   4 -12   1    0.00    1.40
   4 -12   1    2.60    2.40
   4 -12   1    0.40    1.10
  -5  12  -1   26.20    5.10
   5 -12   1   13.10    4.40
   5  11  -1    1.60    2.60
  -5 -11   1    2.00    2.20
  -5 -11   1   -0.20    1.80
   4  11  -1   25.60    5.10
  -4 -11   1   24.90    4.10
  -4 -11   1   24.70    3.50
   3  11  -1   91.89    7.20
   3  11  -1   93.19    4.30
  -3 -11   1   83.69    6.00
  -3 -11   1   87.49    4.60
   2  11  -1   33.80    4.70
  -2 -11   1   47.00    4.90
  -2 -11   1   33.70    2.20
   1  11  -1  403.16   14.90
  -1 -11   1  436.96   13.90
   0  11  -1   80.19    5.60
   0 -11   1   79.59    4.80
  -1  11  -1  394.66   13.90
   1 -11   1  343.37   12.80
   1 -11   1  404.76   10.50
   1 -11   1  398.26   12.40
   1 -11   1  398.66   10.50
   2 -11   1   26.30    4.10
   2 -11   1   29.30    3.70
   2 -11   1   30.10    3.20
   2 -11   1   27.60    3.00
   2 -11   1   24.90    2.70
  -3  11  -1  174.08    8.20
   3 -11   1  146.59    7.00
   3 -11   1  163.78    6.70
   3 -11   1  162.78    9.20
  -4  11  -1   95.59    7.00
   4 -11   1   92.59    5.30
   4 -11   1  105.89    5.00
  -5  11  -1   53.29    6.70
   5 -11   1   44.40    6.70
   5 -11   1   56.19    3.30
   5  10  -1    1.10    2.50
  -5 -10   1    2.20    2.00
  -5 -10   1    6.00    2.90
   4  10  -1   15.70    3.90
  -4 -10   1   17.90    3.10
   3  10  -1   21.20    2.50
   3  10  -1   17.90    3.70
  -3 -10   1   15.00    2.40
  -3 -10   1   23.00    3.70
   2  10  -1  315.87   12.90
   2  10  -1  315.47    8.70
  -2 -10   1  328.57   11.60
  -2 -10   1  325.07    9.10
   1  10  -1  194.98    8.90
  -1 -10   1  179.18    4.60
  -1 -10   1  176.88    7.60
   0  10  -1  170.08    6.90
   0  10  -1  178.28    8.20
   0 -10   1  194.98    7.40
   0 -10   1  177.28    4.50
   0 -10   1  180.48    4.60
   0 -10   1  175.58    8.40
  -1  10  -1    9.50    2.30
   1 -10   1    8.50    2.00
   1 -10   1    6.10    1.90
   1 -10   1    7.20    1.30
   1 -10   1   13.30    2.10
   1 -10   1    8.40    1.30
  -2  10  -1   48.60    3.60
   2 -10   1   44.90    3.20
   2 -10   1   45.70    4.50
   2 -10   1   46.40    3.60
   2 -10   1   54.59    4.70
  -3  10  -1    1.00    1.30
   3 -10   1    0.20    1.10
   3 -10   1    2.10    1.80
  -4  10  -1    6.10    2.50
   4 -10   1    2.20    2.20
   4 -10   1    4.20    1.60
   4 -10   1    8.70    1.80
  -5  10  -1   36.60    5.60
   5 -10   1   41.40    2.80
   5 -10   1   37.20    6.20
   5   9  -1    9.70    3.80
  -5  -9   1   18.50    3.70
  -5  -9   1   13.30    3.20
  -4  -9   1    2.40    1.60
  -4  -9   1    5.00    2.20
   3   9  -1   16.80    3.50
   3   9  -1   15.70    2.20
  -3  -9   1   24.40    3.00
  -3  -9   1   17.90    3.00
   2   9  -1  384.36   10.40
   2   9  -1  401.96   14.40
  -2  -9   1  391.66   10.80
  -2  -9   1  385.76   12.70
   1   9  -1   42.60    1.70
   1   9  -1   34.70    2.90
   1   9  -1   36.10    4.20
  -1  -9   1   39.00    3.80
  -1  -9   1   48.50    4.30
  -1  -9   1   41.00    1.70
   0   9  -1   52.79    4.10
   0   9  -1   54.79    3.40
   0  -9   1   56.79    2.00
  -1   9  -1  295.77   10.60
   1  -9   1  290.67   10.10
   1  -9   1  287.17    8.40
   1  -9   1  305.67    8.40
   1  -9   1  281.47   11.70
   1  -9   1  291.97    9.40
  -2   9  -1   38.00    3.70
   2  -9   1   39.30    4.30
   2  -9   1   41.70    2.90
   2  -9   1   39.20    3.20
   2  -9   1   37.40    2.90
   2  -9   1   41.50    4.60
  -3   9  -1    2.10    1.70
   3  -9   1    1.50    1.60
   3  -9   1    3.60    1.10
   3  -9   1    1.60    1.20
  -4   9  -1  102.99    6.90
   4  -9   1   97.89    4.40
   4  -9   1   95.79    4.70
   4  -9   1   93.89    7.20
  -5   9  -1    0.40    2.00
   5  -9   1    0.20    0.80
   5  -9   1    2.30    2.60
   5   8  -1   20.60    4.50
  -5  -8   1   21.80    4.10
  -5  -8   1   17.60    3.50
   4   8  -1    0.80    1.90
  -4  -8   1    1.10    1.40
  -4  -8   1    1.00    1.40
   3   8  -1  819.62   24.60
   3   8  -1  779.22   20.70
  -3  -8   1  805.82   22.30
   2   8  -1  112.89    5.40
   2   8  -1  118.69    6.80
   2   8  -1  111.19    4.20
  -2  -8   1  112.79    6.70
  -2  -8   1  108.89    4.40
  -2  -8   1  101.29    5.30
   1   8  -1  311.87   11.20
   1   8  -1  295.17    9.60
   1   8  -1  306.07    7.60
  -1  -8   1  298.57    7.70
  -1  -8   1  315.67   10.30
  -1  -8   1  295.87   11.10
   0   8  -1 1675.83   41.00
   0   8  -1 1699.03   39.50
   0  -8   1 1698.03   37.30
   0  -8   1 1760.72   37.60
   0  -8   1 1642.24   39.50
   0  -8   1 1594.04   40.90
  -1   8  -1   15.70    2.50
   1  -8   1   22.80    2.70
   1  -8   1   18.80    2.10
   1  -8   1   18.10    1.80
   1  -8   1   17.50    2.60
   1  -8   1   18.50    1.90
  -2   8  -1  460.65   13.70
   2  -8   1  455.05   13.40
   2  -8   1  458.75   13.30
   2  -8   1  469.35   12.80
   2  -8   1  476.25   15.20
  -3   8  -1    3.00    1.70
   3  -8   1    2.50    1.20
   3  -8   1    1.60    0.90
   3  -8   1    5.60    2.30
  -4   8  -1    9.90    2.70
   4  -8   1    9.90    1.80
   4  -8   1   17.20    3.80
   4  -8   1   12.00    1.70
  -5   8  -1    4.60    2.70
   5  -8   1    5.90    1.50
   5  -8   1    7.00    3.10
   5  -8   1    9.30    1.40
  -6   8  -1   -1.10    2.50
   6  -8   1    0.70    2.60
   5   7  -1   20.90    4.60
  -5  -7   1   14.10    3.00
  -5  -7   1   22.80    4.10
   4   7  -1  107.99    7.60
  -4  -7   1  102.49    5.90
  -4  -7   1   91.49    5.90
   3   7  -1    0.80    1.00
   3   7  -1    1.00    1.00
   3   7  -1    3.00    2.00
  -3  -7   1    1.90    1.30
   2   7  -1   -0.60    1.00
   2   7  -1    0.90    1.00
   2   7  -1    0.90    0.60
  -2  -7   1   -0.20    0.60
  -2  -7   1   -0.90    1.10
   1   7  -1  954.60   23.50
   1   7  -1  928.01   21.40
   1   7  -1  942.91   25.00
  -1  -7   1  981.00   23.80
  -1  -7   1  920.31   25.10
  -1  -7   1  938.61   21.60
   0   7  -1   99.49    5.00
   0   7  -1   90.69    4.10
   0  -7   1   91.89    4.90
   0  -7   1   99.69    3.10
   0  -7   1   99.89    3.30
   0  -7   1   90.59    4.10
  -1   7  -1    3.70    1.00
  -1   7  -1    5.20    1.50
   1  -7   1    5.40    1.40
   1  -7   1    5.10    1.60
   1  -7   1    5.00    1.00
   1  -7   1    5.20    1.20
  -2   7  -1   18.30    2.40
   2  -7   1   19.20    2.00
   2  -7   1   18.90    2.70
   2  -7   1   19.90    2.40
   2  -7   1   25.00    3.20
   2  -7   1   13.60    1.90
  -3   7  -1  443.36   14.40
   3  -7   1  430.36   12.30
   3  -7   1  417.06   13.80
   3  -7   1  426.76   14.10
   3  -7   1  431.76   11.80
   3  -7   1  463.95   15.20
  -4   7  -1   39.80    4.90
   4  -7   1   40.20    5.20
   4  -7   1   48.40    2.80
   4  -7   1   37.30    2.70
  -5   7  -1    0.30    1.90
   5  -7   1   -0.40    0.70
   5  -7   1   -1.70    1.80
   5  -7   1    0.10    0.90
  -6   7  -1   32.30    5.70
   6  -7   1   33.00    5.70
   6   6  -1   10.10    4.10
  -6  -6   1    9.10    2.70
  -6  -6   1    4.90    3.60
   5   6  -1    3.80    2.70
  -5  -6   1    0.50    1.70
  -5  -6   1    3.60    1.90
   4   6  -1  112.39    7.80
  -4  -6   1  118.89    6.20
  -4  -6   1  120.39    6.80
   3   6  -1   45.80    3.30
   3   6  -1   52.19    5.50
  -3  -6   1   48.50    5.40
  -3  -6   1   48.70    3.50
  -3  -6   1   56.89    4.40
   2   6  -1   69.69    3.70
   2   6  -1   71.89    4.80
   2   6  -1   75.29    3.30
  -2  -6   1   77.19    4.90
  -2  -6   1   61.49    3.30
  -2  -6   1   64.09    3.70
   1   6  -1   45.50    2.70
   1   6  -1   43.70    3.40
   1   6  -1   43.10    1.90
  -1  -6   1   44.70    2.80
  -1  -6   1   40.50    3.40
  -1  -6   1   45.10    2.00
   0   6  -1   55.59    2.90
   0   6  -1   58.59    3.50
   0  -6   1   53.89    3.40
   0  -6   1   56.29    2.10
   0  -6   1   65.79    3.10
  -1   6  -1  136.79    5.60
  -1   6  -1  129.59    4.80
   1  -6   1  131.69    4.70
   1  -6   1  138.69    5.60
   1  -6   1  133.69    5.20
  -2   6  -1    0.60    0.90
   2  -6   1    0.00    0.70
   2  -6   1    0.40    0.80
   2  -6   1    0.70    1.00
   2  -6   1    0.10    0.50
   2  -6   1    0.80    0.70
  -3   6  -1   -1.00    0.70
  -3   6  -1   -1.20    1.00
   3  -6   1    0.40    1.10
   3  -6   1   -0.20    0.60
   3  -6   1   -0.50    1.00
   3  -6   1    0.00    1.10
  -4   6  -1  102.79    6.70
   4  -6   1   90.69    6.60
   4  -6   1  102.19    4.30
  -5   6  -1    1.40    2.00
   5  -6   1    0.60    0.90
   5  -6   1    1.20    0.90
   5  -6   1    4.20    2.40
  -6   6  -1   18.10    4.60
   6  -6   1   18.50    4.60
   6   5  -1    7.00    3.80
  -6  -5   1    4.80    3.10
  -6  -5   1    2.70    2.00
   5   5  -1   18.90    4.50
  -5  -5   1   20.50    3.90
  -5  -5   1   15.50    2.80
   4   5  -1  320.77   10.60
   4   5  -1  323.77   13.60
  -4  -5   1  340.27   12.40
  -4  -5   1  321.47   11.10
   3   5  -1    3.30    1.90
   3   5  -1    3.70    1.20
  -3  -5   1    3.40    1.90
  -3  -5   1    4.60    1.50
  -3  -5   1    5.30    1.60
   2   5  -1  671.43   19.20
   2   5  -1  666.43   16.80
   2   5  -1  640.14   17.00
  -2  -5   1  643.64   18.80
  -2  -5   1  681.73   17.10
  -2  -5   1  677.43   17.40
   1   5  -1   80.89    4.50
   1   5  -1   85.29    2.90
   1   5  -1   93.29    3.80
  -1  -5   1   84.59    3.00
  -1  -5   1   88.09    4.60
  -1  -5   1   90.19    3.80
   0   5  -1  493.65   11.40
   0   5  -1  496.25   13.30
   0   5  -1  465.85   12.40
   0  -5   1  484.35   12.50
   0  -5   1  496.55   13.40
   0  -5   1  493.05   11.30
  -1   5  -1   76.59    3.70
  -1   5  -1   80.99    3.40
   1  -5   1   72.49    3.70
   1  -5   1   74.19    3.20
   1  -5   1   77.19    3.50
   1  -5   1   74.39    3.00
  -2   5  -1    1.90    0.90
  -2   5  -1    2.60    1.10
   2  -5   1   -0.50    0.70
   2  -5   1    0.60    0.70
   2  -5   1    0.70    0.90
   2  -5   1    1.60    1.00
  -3   5  -1   88.69    5.50
  -3   5  -1   93.69    5.20
  -3   5  -1   96.19    4.20
   3  -5   1   96.49    5.70
   3  -5   1   99.59    5.40
   3  -5   1   96.89    4.10
  -4   5  -1   26.60    2.60
  -4   5  -1   19.80    3.70
   4  -5   1   31.00    4.50
   4  -5   1   23.00    2.30
  -5   5  -1   71.49    7.50
  -5   5  -1   73.39    3.60
   5  -5   1   74.39    3.50
   5  -5   1   73.89    6.50
  -6   5  -1   39.50    6.30
   6  -5   1   33.20    5.80
   6   4  -1   -4.40    2.20
  -6  -4   1   -0.10    1.50
  -6  -4   1   -1.50    1.90
   5   4  -1   25.50    4.90
   5   4  -1   24.60    3.40
  -5  -4   1   35.40    5.00
  -5  -4   1   25.00    3.20
   4   4  -1  185.88    9.60
  -4  -4   1  172.48    8.40
   3   4  -1  313.27    9.50
   3   4  -1  313.37   11.90
  -3  -4   1  324.97   10.80
  -3  -4   1  324.17   10.00
  -3  -4   1  300.27   11.60
   2   4  -1  143.39    5.20
   2   4  -1  143.39    6.50
   2   4  -1  151.68    5.20
  -2  -4   1  130.79    6.30
  -2  -4   1  143.79    5.30
  -2  -4   1  144.59    5.40
   1   4  -1    4.30    0.70
   1   4  -1    4.10    0.90
   1   4  -1    2.60    1.20
  -1  -4   1    5.60    1.40
  -1  -4   1    4.10    1.00
  -1  -4   1    3.60    0.80
   0   4  -1  466.05   12.40
   0   4  -1  473.65   10.80
   0   4  -1  461.35   11.60
   0  -4   1  474.55   11.70
   0  -4   1  478.25   10.80
   0  -4   1  450.05   12.30
  -1   4  -1  844.92   19.90
  -1   4  -1  812.62   19.90
  -1   4  -1  826.02   20.20
   1  -4   1  805.42   19.80
   1  -4   1  853.91   21.00
   1  -4   1  846.02   19.90
  -2   4  -1  375.56   11.40
  -2   4  -1  375.76   11.20
  -2   4  -1  381.26   10.30
   2  -4   1  382.36   10.20
   2  -4   1  392.86   11.70
   2  -4   1  384.36   11.30
  -3   4  -1  593.84   17.40
  -3   4  -1  569.44   16.80
  -3   4  -1  580.14   15.00
   3  -4   1  590.84   17.60
   3  -4   1  577.64   16.90
   3  -4   1  572.64   14.80
  -4   4  -1    1.80    1.60
  -4   4  -1    1.10    0.90
  -4   4  -1    1.20    1.70
   4  -4   1    1.60    0.90
   4  -4   1    1.30    1.70
  -5   4  -1  156.28    9.20
  -5   4  -1  145.19    5.50
   5  -4   1  133.09    8.60
   5  -4   1  139.79    5.20
   6  -4   1    2.60    2.80
   6   3  -1    2.20    2.90
  -6  -3   1    2.80    1.60
  -6  -3   1    3.50    2.70
   5   3  -1    1.50    1.20
   5   3  -1    0.10    2.10
  -5  -3   1    0.80    1.90
  -5  -3   1    0.80    1.20
   4   3  -1    8.80    2.80
   4   3  -1    8.40    1.60
  -4  -3   1    7.00    1.70
  -4  -3   1   12.40    2.70
   3   3  -1   42.20    2.60
   3   3  -1   42.40    4.30
  -3  -3   1   39.60    2.70
  -3  -3   1   42.70    4.90
  -3  -3   1   41.00    3.40
   2   3  -1   73.59    3.20
   2   3  -1   78.59    3.60
   2   3  -1   74.09    4.50
  -2  -3   1   75.19    4.40
  -2  -3   1   79.79    3.40
  -2  -3   1   76.79    3.70
   1   3  -1  706.93   16.90
   1   3  -1  699.03   18.10
   1   3  -1  704.43   16.70
  -1  -3   1  730.73   16.80
  -1  -3   1  726.83   17.00
   0   3  -1 1033.20   22.80
   0   3  -1 1027.50   23.90
   0  -3   1 1020.70   22.80
   0  -3   1 1031.30   23.90
  -1   3  -1  193.38    5.60
  -1   3  -1  187.08    5.80
   1  -3   1  188.38    5.80
   1  -3   1  187.78    5.50
   1  -3   1  193.58    5.90
   1  -3   1  185.58    5.70
  -2   3  -1   58.69    2.70
  -2   3  -1   57.89    3.30
  -2   3  -1   58.89    3.50
   2  -3   1   58.79    3.40
   2  -3   1   54.99    3.30
   2  -3   1   56.99    2.60
  -3   3  -1    6.10    1.70
  -3   3  -1    7.20    1.30
  -3   3  -1    5.50    1.70
   3  -3   1    5.80    1.70
   3  -3   1    6.90    1.80
   3  -3   1    7.20    1.20
  -4   3  -1   31.00    3.80
  -4   3  -1   34.70    4.40
  -4   3  -1   30.20    2.40
   4  -3   1   29.10    2.20
   4  -3   1   29.30    4.00
  -5   3  -1   24.80    4.40
  -5   3  -1   26.00    2.60
   5  -3   1   17.10    3.80
   5  -3   1   21.70    2.20
  -6   3  -1   11.30    4.80
   6  -3   1    6.60    3.20
   6   2  -1    3.00    3.10
  -6  -2   1    5.30    1.80
  -6  -2   1    5.60    3.10
   5   2  -1   96.39    7.70
   5   2  -1   80.39    4.10
  -5  -2   1   91.39    6.90
  -5  -2   1   87.19    4.60
   4   2  -1    1.00    1.70
   4   2  -1    1.70    0.90
  -4  -2   1    3.50    1.80
  -4  -2   1    1.30    1.00
   3   2  -1  765.42   18.60
   3   2  -1  740.63   20.40
   3   2  -1  782.82   22.00
  -3  -2   1  745.93   21.40
  -3  -2   1  761.62   20.90
  -3  -2   1  767.32   19.00
   2   2  -1  138.19    4.30
   2   2  -1  132.29    5.00
   2   2  -1  133.49    5.90
  -2  -2   1  124.49    5.10
  -2  -2   1  129.39    5.80
  -2  -2   1  128.19    4.40
   1   2  -1 1957.90   51.29
   1   2  -1 1864.91   49.20
  -1  -2   1 1908.91   54.69
  -1  -2   1 1898.01   49.20
   0   2  -1 4002.50   91.09
   0   2  -1 4013.30   92.59
   0  -2   1 3993.70   92.39
   0  -2   1 4048.99   91.09
  -1   2  -1 1221.18   27.90
  -1   2  -1 1194.98   27.60
  -2   2  -1   12.00    1.80
  -2   2  -1   10.50    1.80
  -2   2  -1   11.00    1.30
   2  -2   1    6.80    1.10
   2  -2   1   12.90    2.00
   2  -2   1    9.10    1.60
  -3   2  -1   16.50    2.70
  -3   2  -1   14.70    2.40
  -3   2  -1   14.00    1.80
   3  -2   1   15.70    1.80
   3  -2   1   16.70    2.70
   3  -2   1   15.70    2.70
  -4   2  -1   25.90    3.70
  -4   2  -1   25.20    2.60
  -4   2  -1   30.00    4.30
   4  -2   1   26.80    2.50
   4  -2   1   23.40    3.60
  -5   2  -1   24.70    4.30
  -5   2  -1   25.30    2.80
   5  -2   1   25.40    2.50
   5  -2   1   20.60    3.90
  -6   2  -1   55.99    4.60
  -6   2  -1   87.59    9.20
   6  -2   1   68.59    7.80
   6   1  -1   -2.10    2.30
  -6  -1   1    2.10    2.60
   5   1  -1    3.40    1.10
   5   1  -1    4.00    2.60
  -5  -1   1    2.60    2.20
  -5  -1   1    4.50    1.40
   4   1  -1  109.89    4.30
   4   1  -1  105.99    7.00
  -4  -1   1  114.69    6.70
  -4  -1   1  108.99    4.60
   3   1  -1  261.57   10.20
   3   1  -1  260.27    7.30
   3   1  -1  242.78    8.90
  -3  -1   1  256.17    9.40
  -3  -1   1  252.47    7.50
  -3  -1   1  246.78    9.70
   2   1  -1  223.58    8.20
   2   1  -1  228.78    6.20
   2   1  -1  229.48    7.30
  -2  -1   1  218.08    7.90
  -2  -1   1  233.08    7.50
  -2  -1   1  234.58    6.40
   1   1  -1  210.58    6.60
   1   1  -1  213.98    5.90
   1   1  -1  214.88    5.30
  -1  -1   1  208.58    5.30
  -1  -1   1  208.98    6.50
  -1  -1   1  213.88    6.00
   0   1  -1   -0.10    0.10
   0  -1   1    0.00    0.20
  -1   1  -1  743.43   17.40
  -1   1  -1  755.62   17.30
  -1   1  -1  731.93   17.80
   1  -1   1  759.62   17.50
   1  -1   1  737.93   17.70
   1  -1   1  749.13   17.20
  -2   1  -1  283.37    9.00
  -2   1  -1  276.77    8.60
  -2   1  -1  282.97    7.90
   2  -1   1  287.67    8.90
   2  -1   1  276.57    7.70
   2  -1   1  283.37    8.80
  -3   1  -1  582.94   17.20
  -3   1  -1  575.74   16.80
  -3   1  -1  602.84   15.40
   3  -1   1  613.24   17.40
   3  -1   1  570.24   15.00
   3  -1   1  604.64   17.00
  -4   1  -1    8.60    2.30
  -4   1  -1   10.90    2.70
  -4   1  -1   10.00    1.80
   4  -1   1    6.10    1.40
   4  -1   1   12.60    3.00
  -5   1  -1   48.80    3.60
  -5   1  -1   59.59    6.30
   5  -1   1   53.39    6.00
   5  -1   1   55.19    3.40
  -6   1  -1   30.70    3.10
  -6   1  -1   37.40    5.90
   6  -1   1   34.20    5.60
   6   0  -1   26.80    5.70
  -6   0   1   36.40    5.90
   5   0  -1   36.70    5.30
   5   0  -1   35.70    2.30
  -5   0   1   47.00    6.10
  -5   0   1   34.20    2.50
   4   0  -1   23.10    4.10
   4   0  -1   22.10    1.70
  -4   0   1   23.90    2.20
  -4   0   1   17.70    3.00
   3   0  -1   16.70    2.70
   3   0  -1   12.80    1.30
   3   0  -1   17.50    3.00
  -3   0   1   11.60    1.40
  -3   0   1   12.30    2.30
  -3   0   1   14.10    2.70
   2   0  -1  496.55   14.10
   2   0  -1  479.95   13.10
   2   0  -1  489.65   11.50
  -2   0   1  487.35   11.60
  -2   0   1  471.85   13.80
  -2   0   1  474.85   13.30
   1   0  -1  676.83   16.50
   1   0  -1  654.63   14.70
  -1   0   1  649.14   14.80
  -1   0   1  695.83   15.90
  -1   0   1  659.23   16.40
   0   0  -1    0.10    0.10
  -1   0  -1   19.90    1.70
  -1   0  -1   18.20    1.40
  -1   0  -1   16.20    1.30
   1   0   1   16.40    1.50
   1   0   1   15.90    1.20
  -2   0  -1  743.73   17.90
  -2   0  -1  752.62   18.90
  -2   0  -1  717.33   18.90
   2   0   1  745.23   17.80
   2   0   1  745.63   19.00
   2   0   1  712.03   18.60
  -3   0  -1   -0.10    0.90
  -3   0  -1   -0.50    0.80
  -3   0  -1   -1.80    0.40
   3   0   1    0.40    0.60
   3   0   1   -1.30    0.80
   3   0   1    0.70    1.00
  -4   0  -1    0.40    1.40
  -4   0  -1    0.60    0.90
  -4   0  -1   -0.60    1.10
   4   0   1    0.70    1.50
   4   0   1    0.50    0.70
  -5   0  -1  133.29    8.40
  -5   0  -1  125.89    6.10
   5   0   1  117.29    5.80
   5   0   1  122.59    8.10
  -6   0  -1   10.30    3.60
  -6   0  -1    9.30    2.10
   6   0   1    6.60    3.10
   6  -1  -1    5.60    3.30
  -6   1   1    3.60    3.00
   5  -1  -1   -0.20    1.80
  -5   1   1    0.90    0.80
  -5   1   1    0.90    1.80
   4  -1  -1  170.08    9.00
   4  -1  -1  165.78    6.80
  -4   1   1  181.28    5.70
  -4   1   1  179.58    8.70
   3  -1  -1   48.00    3.40
   3  -1  -1   41.40    4.30
   3  -1  -1   42.70    2.00
  -3   1   1   48.20    2.20
  -3   1   1   44.00    3.60
  -3   1   1   40.30    3.60
   2  -1  -1   41.10    3.10
   2  -1  -1   41.90    1.60
  -2   1   1   43.00    3.10
  -2   1   1   42.10    2.90
  -2   1   1   40.70    1.70
   1  -1  -1 1393.16   31.90
  -1   1   1 1366.96   31.80
   0  -1  -1  151.88    3.90
   0   1   1  148.89    3.60
   0   1   1  152.18    4.20
  -1  -1  -1  126.89    4.10
  -1  -1  -1  123.69    4.00
  -1  -1  -1  122.89    3.90
   1   1   1  124.29    4.00
   1   1   1  121.69    4.10
   1   1   1  115.09    3.80
  -2  -1  -1   81.59    4.10
  -2  -1  -1   83.19    4.10
  -2  -1  -1   87.59    3.70
   2   1   1   88.99    4.30
   2   1   1   86.59    3.50
   2   1   1   95.29    4.10
  -3  -1  -1   76.89    4.70
  -3  -1  -1   81.79    4.80
  -3  -1  -1   81.59    4.00
   3   1   1   80.19    3.80
   3   1   1   80.89    4.60
   3   1   1   73.59    4.70
  -4  -1  -1   11.60    2.10
  -4  -1  -1    5.80    2.10
  -4  -1  -1    9.30    2.70
   4   1   1   12.00    2.90
   4   1   1    8.10    1.60
  -5  -1  -1    2.00    2.00
  -5  -1  -1   -0.80    1.00
   5   1   1    1.30    1.10
   5   1   1    0.10    1.90
  -6  -1  -1    0.70    2.70
  -6  -1  -1    0.50    1.40
   6   1   1   -1.60    2.30
   6  -2  -1    4.80    3.20
  -6   2   1    2.10    2.60
   5  -2  -1   10.40    1.00
   5  -2  -1   12.50    3.60
  -5   2   1    6.80    2.70
   4  -2  -1   16.60    1.30
   4  -2  -1   16.90    3.40
  -4   2   1   14.40    2.90
  -4   2   1   14.60    1.40
   3  -2  -1  205.98    8.90
   3  -2  -1  191.18    7.70
   3  -2  -1  197.78    5.40
  -3   2   1  207.98    5.60
  -3   2   1  189.08    8.20
  -3   2   1  215.68    8.40
   2  -2  -1    3.80    1.30
   2  -2  -1    3.20    0.50
   2  -2  -1    3.00    1.10
  -2   2   1    5.60    0.70
  -2   2   1    3.60    1.30
  -2   2   1    4.60    1.30
   1  -2  -1 1560.24   35.40
   1  -2  -1 1522.45   34.60
  -1   2   1 1509.75   35.20
   0  -2  -1 1573.34   36.10
   0  -2  -1 1626.24   41.90
   0   2   1 1647.64   41.80
  -1  -2  -1   23.30    1.60
  -1  -2  -1   25.20    1.90
  -1  -2  -1   21.90    1.70
   1   2   1   22.00    1.80
   1   2   1   25.10    1.70
   1   2   1   23.70    1.50
  -2  -2  -1   37.20    2.40
  -2  -2  -1   32.20    2.50
  -2  -2  -1   34.00    2.70
   2   2   1   33.80    2.20
   2   2   1   31.30    2.30
   2   2   1   36.50    2.90
  -3  -2  -1    5.60    1.40
  -3  -2  -1    4.60    1.60
  -3  -2  -1    3.70    1.50
   3   2   1    3.70    1.70
   3   2   1    2.40    1.00
  -4  -2  -1   84.69    5.80
  -4  -2  -1   94.59    6.10
  -4  -2  -1   87.09    5.30
   4   2   1   86.79    6.10
   4   2   1   86.99    4.50
  -5  -2  -1  216.38   10.70
  -5  -2  -1  202.88    8.30
   5   2   1  190.28   10.30
   5   2   1  195.08    8.50
  -6  -2  -1    3.50    3.00
  -6  -2  -1    3.40    1.90
   6   2   1    9.10    3.50
   6  -3  -1   22.10    4.90
   5  -3  -1   32.00    5.30
  -5   3   1   23.60    4.10
   4  -3  -1   52.49    2.10
   4  -3  -1   60.59    5.40
  -4   3   1   59.99    5.10
  -4   3   1   53.09    2.20
   3  -3  -1   35.90    3.60
   3  -3  -1   47.30    5.50
   3  -3  -1   38.80    1.70
  -3   3   1   38.50    4.30
  -3   3   1   37.20    1.80
  -3   3   1   38.70    4.10
   2  -3  -1  142.79    4.00
   2  -3  -1  140.09    4.10
   2  -3  -1  149.69    6.30
   2  -3  -1  148.09    5.60
  -2   3   1  143.19    6.00
  -2   3   1  139.39    5.70
   1  -3  -1   29.00    2.30
   1  -3  -1   26.00    1.30
   1  -3  -1   29.50    2.20
   1  -3  -1   23.50    1.70
  -1   3   1   26.00    2.20
  -1   3   1   25.70    1.80
  -1   3   1   27.10    1.30
   0  -3  -1   -0.30    0.70
   0  -3  -1    0.50    0.60
   0  -3  -1   -0.10    0.20
   0   3   1    0.10    0.20
   0   3   1    0.60    0.60
   0   3   1    1.50    0.80
  -1  -3  -1  448.06   11.00
  -1  -3  -1  440.36   12.10
  -1  -3  -1  468.65   11.70
   1   3   1  443.66   11.50
   1   3   1  433.26   12.00
   1   3   1  448.26   10.90
  -2  -3  -1  983.70   23.60
  -2  -3  -1  908.21   24.20
  -2  -3  -1  981.60   23.60
   2   3   1  963.60   24.40
   2   3   1  955.90   23.30
   2   3   1  950.60   23.30
  -3  -3  -1   36.70    4.20
  -3  -3  -1   30.80    3.60
  -3  -3  -1   33.40    2.80
   3   3   1   36.80    4.00
   3   3   1   33.20    5.30
   3   3   1   33.10    2.60
  -4  -3  -1   40.90    4.70
  -4  -3  -1   40.90    4.00
   4   3   1   34.50    3.50
   4   3   1   40.40    4.90
  -5  -3  -1   61.09    6.60
  -5  -3  -1   53.39    4.40
   5   3   1   61.59    6.90
  -6  -3  -1   -0.50    1.60
  -6  -3  -1    0.70    2.30
   6   3   1   -0.90    2.30
   6  -4  -1   17.00    4.50
   5  -4  -1   -0.70    1.90
  -5   4   1    0.70    1.80
   4  -4  -1   49.70    5.70
   4  -4  -1   39.40    1.70
   4  -4  -1   40.10    1.70
  -4   4   1   40.90    5.00
   3  -4  -1   20.40    2.80
   3  -4  -1   22.90    1.30
   3  -4  -1   21.70    1.40
   3  -4  -1   21.10    3.30
  -3   4   1   19.70    2.80
  -3   4   1   26.30    3.60
   2  -4  -1  105.19    4.60
   2  -4  -1  105.69    3.60
   2  -4  -1  107.29    5.40
   2  -4  -1  101.29    3.30
  -2   4   1  108.89    4.80
  -2   4   1  107.19    5.20
   1  -4  -1 1264.47   30.70
   1  -4  -1 1297.67   29.20
   1  -4  -1 1278.37   29.50
   1  -4  -1 1323.47   31.10
  -1   4   1 1306.87   29.70
  -1   4   1 1276.37   29.10
   0  -4  -1  128.89    5.30
   0  -4  -1  129.89    4.40
   0   4   1  124.29    4.80
  -1  -4  -1 1124.69   26.80
  -1  -4  -1 1115.99   27.50
  -1  -4  -1 1146.99   25.60
   1   4   1 1139.29   26.70
   1   4   1 1128.59   27.40
   1   4   1 1119.79   25.50
  -2  -4  -1  478.85   14.30
  -2  -4  -1  475.45   13.10
  -2  -4  -1  496.25   13.50
   2   4   1  485.85   12.80
   2   4   1  490.85   14.30
   2   4   1  469.75   13.20
  -3  -4  -1  111.69    5.40
  -3  -4  -1  115.19    6.20
   3   4   1  110.19    5.30
   3   4   1  122.99    6.50
   3   4   1  111.39    5.10
  -4  -4  -1   15.40    2.80
  -4  -4  -1   12.60    2.70
   4   4   1   16.40    3.40
   4   4   1   14.70    2.40
  -5  -4  -1   15.50    3.60
  -5  -4  -1   21.90    3.50
   5   4   1   16.20    4.00
  -6  -4  -1   -0.90    1.70
  -6  -4  -1    1.50    2.60
   6   4   1    2.90    2.70
   6  -5  -1   12.90    4.40
  -6   5   1   15.10    4.30
   5  -5  -1   39.90    6.70
  -5   5   1   35.50    5.40
   4  -5  -1    1.00    0.50
   4  -5  -1    0.10    0.40
   4  -5  -1    4.10    2.30
  -4   5   1    0.90    1.70
   3  -5  -1    0.50    1.30
   3  -5  -1   -0.10    0.90
   3  -5  -1    0.10    0.40
   3  -5  -1    0.00    0.50
  -3   5   1    1.00    1.30
  -3   5   1   -0.20    1.20
   2  -5  -1   24.80    2.50
   2  -5  -1   23.00    1.50
   2  -5  -1   25.90    3.00
   2  -5  -1   22.40    3.10
   2  -5  -1   26.20    1.80
  -2   5   1   23.70    2.60
   1  -5  -1  317.27   10.00
   1  -5  -1  320.67   10.20
   1  -5  -1  325.37    8.60
   1  -5  -1  321.27    8.70
  -1   5   1  337.57    8.90
   0  -5  -1  119.29    5.00
   0  -5  -1  118.29    4.40
   0   5   1  113.09    4.80
   0   5   1  111.49    4.20
  -1  -5  -1 2118.09   46.30
  -1  -5  -1 2069.79   48.80
   1   5   1 2031.90   47.80
   1   5   1 2080.09   46.10
   1   5   1 2168.38   48.90
  -2  -5  -1  192.38    8.00
  -2  -5  -1  205.28    7.30
  -2  -5  -1  200.08    6.70
   2   5   1  190.58    7.00
   2   5   1  208.28    8.10
   2   5   1  197.38    6.40
  -3  -5  -1  775.12   22.40
  -3  -5  -1  743.73   22.30
  -3  -5  -1  775.52   21.00
   3   5   1  780.62   20.40
   3   5   1  741.03   20.40
   3   5   1  803.72   22.50
  -4  -5  -1    4.70    1.80
  -4  -5  -1    1.20    1.50
   4   5   1    4.10    2.20
  -5  -5  -1   53.69    5.30
  -5  -5  -1   40.60    5.30
   5   5   1   66.69    7.20
  -6  -5  -1   -0.60    2.00
  -6  -5  -1    4.80    2.90
   6   5   1   -0.80    2.30
   6  -6  -1   12.00    4.10
  -6   6   1   19.10    4.60
   5  -6  -1   20.30    4.60
  -5   6   1   21.20    4.30
   4  -6  -1   14.10    1.20
   4  -6  -1   15.20    3.60
   4  -6  -1   13.80    1.20
  -4   6   1   23.60    4.10
   3  -6  -1  201.48    8.00
   3  -6  -1  197.38    9.30
   3  -6  -1  187.48    8.50
   3  -6  -1  199.18    6.20
   3  -6  -1  206.08    5.90
  -3   6   1  197.88    8.40
   2  -6  -1   14.70    1.50
   2  -6  -1   17.00    2.20
   2  -6  -1   18.50    1.90
   2  -6  -1   16.40    2.60
   2  -6  -1   15.70    2.60
  -2   6   1   15.50    2.20
   1  -6  -1   14.10    2.10
   1  -6  -1   12.30    2.10
   1  -6  -1   12.30    1.50
   1  -6  -1   11.50    1.30
  -1   6   1   16.30    1.70
  -1   6   1   12.40    2.00
  -1   6   1   11.50    1.40
   0  -6  -1   93.09    4.60
   0  -6  -1   78.59    3.80
   0   6   1   82.99    3.70
   0   6   1   90.89    4.50
  -1  -6  -1  116.69    5.00
  -1  -6  -1  106.99    5.40
   1   6   1  111.69    3.10
   1   6   1  113.39    4.80
   1   6   1  116.19    5.50
  -2  -6  -1  483.15   15.80
  -2  -6  -1  504.95   13.40
  -2  -6  -1  497.05   15.60
   2   6   1  503.65   15.60
   2   6   1  490.45   12.90
   2   6   1  520.05   14.30
  -3  -6  -1  117.29    5.90
  -3  -6  -1   90.79    6.10
  -3  -6  -1  110.49    5.50
   3   6   1  109.39    5.40
   3   6   1  108.19    5.00
   3   6   1  107.49    6.50
  -4  -6  -1   41.50    4.40
  -4  -6  -1   26.70    3.70
   4   6   1   28.50    4.30
  -5  -6  -1    9.10    2.60
  -5  -6  -1    6.50    2.50
   5   6   1    6.60    4.30
   6  -7  -1   14.00    4.50
  -6   7   1   19.80    5.00
   5  -7  -1   11.00    3.70
  -5   7   1   11.10    3.50
   4  -7  -1   72.99    2.80
   4  -7  -1   78.49    6.60
   4  -7  -1   71.89    2.90
  -4   7   1   74.39    5.80
   3  -7  -1   91.49    6.20
   3  -7  -1   79.09    4.70
   3  -7  -1   77.19    3.60
   3  -7  -1   77.59    3.30
  -3   7   1   79.29    5.10
   2  -7  -1  335.47   10.00
   2  -7  -1  336.17   10.30
   2  -7  -1  332.67   11.70
   2  -7  -1  334.57    9.50
   2  -7  -1  360.46   12.40
  -2   7   1  346.07   10.70
   1  -7  -1   16.60    1.40
   1  -7  -1   17.70    1.90
   1  -7  -1   16.40    2.50
  -1   7   1   20.00    2.00
  -1   7   1   20.60    1.90
  -1   7   1   20.00    2.60
   0  -7  -1 1265.87   31.80
   0  -7  -1 1267.67   30.60
   0   7   1 1266.37   30.40
   0   7   1 1298.37   31.80
  -1  -7  -1   -0.30    0.80
  -1  -7  -1    0.00    1.00
   1   7   1    1.00    0.90
   1   7   1   -0.20    0.20
   1   7   1   -0.50    0.90
   1   7   1   -0.10    0.30
  -2  -7  -1   49.00    2.80
  -2  -7  -1   43.50    3.50
   2   7   1   48.00    2.50
   2   7   1   44.40    3.30
   2   7   1   43.90    4.60
  -3  -7  -1  204.38    7.80
  -3  -7  -1  195.18    8.40
   3   7   1  207.88    9.60
   3   7   1  185.68    7.10
  -4  -7  -1   34.50    4.40
  -4  -7  -1   33.70    4.20
   4   7   1   25.60    4.20
  -5  -7  -1   -0.60    1.70
   5   7   1   -0.90    2.00
   6  -8  -1    1.30    3.20
  -6   8   1    4.90    3.30
   5  -8  -1   11.30    3.80
  -5   8   1   11.80    3.80
   4  -8  -1    7.20    1.40
   4  -8  -1    6.50    1.20
   4  -8  -1    8.10    3.00
  -4   8   1    8.30    2.70
   3  -8  -1   34.40    2.60
   3  -8  -1   43.40    5.10
   3  -8  -1   39.50    2.50
  -3   8   1   32.70    3.80
   2  -8  -1   41.00    2.80
   2  -8  -1   34.80    2.40
   2  -8  -1   39.00    4.60
   2  -8  -1   34.00    3.90
   2  -8  -1   34.10    2.70
  -2   8   1   27.50    2.90
   1  -8  -1   10.20    1.70
   1  -8  -1    8.80    2.30
   1  -8  -1   13.80    1.40
  -1   8   1   10.20    1.40
  -1   8   1   11.90    1.70
   0  -8  -1  409.46   13.20
   0  -8  -1  397.56   11.90
   0   8   1  396.46   11.70
   0   8   1  405.36   13.00
  -1  -8  -1  402.26   13.60
  -1  -8  -1  408.76   12.50
   1   8   1  407.46   12.20
  -2  -8  -1    5.30    1.70
  -2  -8  -1    6.50    2.10
  -2  -8  -1   10.20    1.50
   2   8   1    6.80    1.10
   2   8   1    5.50    2.00
  -3  -8  -1  160.68    7.80
  -3  -8  -1  171.98    6.90
   3   8   1  153.18    8.50
   3   8   1  161.98    6.30
  -4  -8  -1   -1.30    1.00
  -4  -8  -1    1.40    1.60
   4   8   1   -1.20    1.70
  -5  -8  -1   48.50    5.80
  -5  -8  -1   47.00    5.60
   5   8   1   34.20    5.40
   5  -9  -1   15.90    4.40
  -5   9   1   14.80    3.80
   4  -9  -1    2.80    1.00
   4  -9  -1    2.20    2.20
   4  -9  -1    1.50    1.00
  -4   9   1    2.30    2.00
   3  -9  -1   26.00    2.50
   3  -9  -1   27.20    2.90
   3  -9  -1   27.50    4.30
  -3   9   1   25.00    3.50
   2  -9  -1   39.60    2.80
   2  -9  -1   46.20    3.40
   2  -9  -1   45.70    3.00
   2  -9  -1   54.89    5.70
  -2   9   1   43.50    3.20
   1  -9  -1  101.89    5.90
   1  -9  -1   98.49    3.60
   1  -9  -1  102.99    4.80
  -1   9   1  100.99    4.60
  -1   9   1  107.49    5.90
  -1   9   1   99.19    3.90
   0  -9  -1    2.80    1.20
   0  -9  -1    1.00    1.50
   0   9   1    2.70    1.20
   0   9   1    1.60    1.30
  -1  -9  -1  115.59    5.70
  -1  -9  -1  111.29    6.40
   1   9   1  105.59    5.30
   1   9   1  109.89    6.20
  -2  -9  -1   76.69    5.00
  -2  -9  -1   76.89    3.30
   2   9   1   73.69    5.50
   2   9   1   73.39    3.50
  -3  -9  -1   22.00    2.80
  -3  -9  -1   21.30    3.40
   3   9   1   20.90    2.40
   3   9   1   16.50    3.30
  -4  -9  -1   16.70    2.90
   4   9   1   10.50    3.20
  -5  -9  -1    4.10    2.50
  -5  -9  -1    2.50    2.20
   5   9   1    4.70    2.90
   5 -10  -1   46.60    7.30
  -5  10   1   39.10    5.70
   4 -10  -1    0.20    0.90
   4 -10  -1    0.10    0.80
   4 -10  -1   -2.10    1.60
  -4  10   1    0.10    1.60
   3 -10  -1   29.70    2.90
   3 -10  -1   24.10    2.90
   3 -10  -1   17.80    3.80
  -3  10   1   21.70    3.30
   2 -10  -1   60.79    4.10
   2 -10  -1   61.39    3.50
   2 -10  -1   66.89    5.40
   2 -10  -1   70.19    4.50
  -2  10   1   70.69    4.10
   1 -10  -1    0.90    0.60
   1 -10  -1    3.80    0.80
   1 -10  -1   -0.30    0.80
  -1  10   1   -0.10    0.80
  -1  10   1   -0.80    0.90
   0 -10  -1  564.34   16.30
   0 -10  -1  574.64   19.40
   0  10   1  548.25   17.40
   0  10   1  543.25   15.80
  -1 -10  -1   16.90    2.80
   1  10   1   13.40    2.80
  -2 -10  -1  961.50   26.40
   2  10   1  958.40   21.80
   2  10   1  922.51   27.50
   2  10   1  961.00   22.00
  -3 -10  -1   34.40    3.30
  -3 -10  -1   33.80    4.50
   3  10   1   39.90    5.30
   3  10   1   29.80    2.40
  -4 -10  -1   82.19    5.40
  -4 -10  -1   89.99    6.50
   4  10   1   91.19    7.40
  -5 -10  -1   -0.60    1.80
  -5 -10  -1    3.40    2.50
   5  10   1    2.60    2.80
   5 -11  -1    4.10    3.30
  -5  11   1    2.90    2.80
   4 -11  -1    3.90    2.70
   4 -11  -1    9.90    1.70
   4 -11  -1    6.60    1.70
  -4  11   1    5.60    2.40
   3 -11  -1    2.40    1.20
   3 -11  -1    1.80    2.20
  -3  11   1   -0.40    1.20
   2 -11  -1   33.90    3.80
   2 -11  -1   46.70    3.40
   2 -11  -1   37.90    5.00
   2 -11  -1   41.20    2.90
  -2  11   1   48.90    3.50
   1 -11  -1    8.40    2.10
   1 -11  -1    9.60    1.10
   1 -11  -1    9.30    1.20
  -1  11   1    9.90    1.90
  -1  11   1    5.10    2.00
   0 -11  -1  296.97   10.70
   0  11   1  298.17   11.90
  -1 -11  -1  220.48    9.30
   1  11   1  232.98   10.30
  -2 -11  -1   43.60    4.90
   2  11   1   41.60    5.20
  -3 -11  -1    0.90    2.00
  -3 -11  -1    0.40    1.10
   3  11   1    0.80    1.90
   3  11   1    0.70    0.80
  -4 -11  -1    2.10    1.60
  -4 -11  -1    4.50    2.30
   4  11   1    3.90    2.80
  -5 -11  -1   48.90    6.10
   5  11   1   43.00    6.50
   5 -12  -1    0.10    2.70
  -5  12   1    3.50    2.90
   4 -12  -1    0.60    1.00
   4 -12  -1    0.80    2.30
   3 -12  -1   74.09   12.30
   3 -12  -1   61.99    4.00
   3 -12  -1   51.19    4.20
  -3  12   1   57.29    4.70
   2 -12  -1    3.00    1.40
   2 -12  -1    8.50    2.90
   2 -12  -1    5.00    1.40
  -2  12   1    0.90    1.10
   1 -12  -1    1.80    0.60
   1 -12  -1    1.40    0.60
   1 -12  -1    0.70    1.20
  -1  12   1    1.40    1.70
   0 -12  -1   90.89    5.60
   0  12   1   94.79    6.50
  -1 -12  -1  216.28    9.50
   1  12   1  208.28   10.20
  -2 -12  -1  297.87   12.00
   2  12   1  297.27   13.10
  -3 -12  -1   53.59    6.10
   3  12   1   42.70    2.50
   3  12   1   51.29    6.60
   3  12   1   43.20    2.40
  -4 -12  -1   11.40    2.40
  -4 -12  -1   13.80    3.60
   4  12   1   19.10    4.30
   5 -13  -1   36.10    6.50
  -5  13   1   47.40    6.50
   4 -13  -1    0.50    1.20
   4 -13  -1    2.50    2.50
  -4  13   1    1.70    2.10
   3 -13  -1   11.10    3.60
   3 -13  -1    5.90    1.80
  -3  13   1    8.50    2.30
   2 -13  -1   15.20    2.00
   2 -13  -1   17.00    2.80
   2 -13  -1   14.70    3.50
   2 -13  -1   20.60    2.50
   1 -13  -1  378.66   13.20
   1 -13  -1  386.76    9.20
  -1  13   1  409.56   15.30
   0 -13  -1  220.08    9.60
   0  13   1  241.08   11.10
  -1 -13  -1  186.38    9.20
   1  13   1  229.28   11.00
  -2 -13  -1   12.80    2.90
  -3 -13  -1  166.18    9.40
   3  13   1  166.58   10.10
  -4 -13  -1   -0.30    2.00
   4  13   1   -2.50    2.00
   4 -14  -1   -0.90    1.20
   4 -14  -1   -0.30    2.50
  -4  14   1   -0.90    1.90
   3 -14  -1  156.38   10.50
   3 -14  -1  164.88    7.50
  -3  14   1  157.08    7.80
   2 -14  -1    1.30    0.90
   2 -14  -1    3.60    1.70
   2 -14  -1    4.40    1.30
   2 -14  -1    1.80    2.20
   1 -14  -1    2.10    1.60
   0 -14  -1   95.69    6.20
   0  14   1   87.29    7.60
  -1 -14  -1   73.59    5.80
   1  14   1   80.89    6.70
  -2 -14  -1   12.40    3.10
   2  14   1    9.00    3.30
  -3 -14  -1    1.40    2.00
   3  14   1   -0.50    2.10
  -4 -14  -1   69.69    7.90
   4  14   1   74.29   10.10
   4 -15  -1    8.80    2.70
   4 -15  -1    7.40    2.20
  -4  15   1   11.50    3.40
   3 -15  -1   -0.10    1.40
   3 -15  -1    0.50    2.50
   3 -15  -1    1.20    1.50
   2 -15  -1    9.20    1.60
   2 -15  -1   10.00    3.60
   2 -15  -1   15.80    3.00
   2 -15  -1   11.70    1.80
   1 -15  -1  127.09    8.20
  -1  15   1  129.59    8.60
   0 -15  -1   -0.70    1.40
   0  15   1    0.50    1.70
  -1 -15  -1   19.60    3.80
   1  15   1   18.30    4.10
  -2 -15  -1   25.70    4.40
   2  15   1   19.30    4.50
  -3 -15  -1   36.40    5.30
   3  15   1   28.70    5.10
   4 -16  -1    4.20    2.10
   4 -16  -1   -0.80    2.80
   3 -16  -1   37.10    6.60
   3 -16  -1   36.40    6.40
   3 -16  -1   31.40    3.60
   2 -16  -1    1.90    2.40
   2 -16  -1    2.20    1.90
   2 -16  -1   -0.50    0.70
   1 -16  -1   72.29    5.80
  -1  16   1   63.29    7.10
   0 -16  -1   92.79    6.70
   0  16   1   90.19    7.50
  -1 -16  -1   33.10    5.00
   1  16   1   21.50    4.60
  -2 -16  -1  136.99    9.00
   2  16   1  133.39    9.70
  -3 -16  -1    7.70    3.20
   3  16   1   13.70    6.20
   3 -17  -1    1.60    3.20
   3 -17  -1   -0.10    1.30
   3 -17  -1    2.60    2.00
   2 -17  -1   13.60    4.20
   2 -17  -1    9.50    2.80
   1 -17  -1   -0.10    2.20
   1 -17  -1    3.00    2.00
  -1  17   1    3.70    2.70
   0 -17  -1    7.30    2.70
   0  17   1    9.30    3.30
  -1 -17  -1   10.70    3.40
   1  17   1   11.10    3.80
  -2 -17  -1    8.00    3.40
   2  17   1    9.60    4.30
   2 -18  -1    7.10    3.90
   2 -18  -1    1.20    2.10
   1 -18  -1    8.50    4.10
   1 -18  -1    7.00    2.90
  -1  18   1    8.70    3.60
   0 -18  -1   -1.60    1.70
   0  18   1    4.30    2.90
  -1 -18  -1    4.70    2.80
   1  18   1    5.80    3.50
   1 -19  -1   23.90    5.90
   0 -19  -1  127.49    9.10
   0  19   1  142.19   10.60
   0  20  -2   22.50    5.10
   0 -20   2   39.50    5.60
  -1  20  -2    9.90    4.00
   1 -20   2   12.30    3.60
   1  19  -2  174.68   11.80
  -1 -19   2  180.48   10.60
   0 -19   2   65.39    7.60
   1 -19   2   20.20    4.00
   2 -19   2    0.90    2.00
   2 -19   2    6.10    3.60
   2  18  -2   64.79    8.10
  -2 -18   2   63.89    7.00
   1  18  -2    2.80    2.70
  -1 -18   2    8.70    3.10
   0  18  -2   49.40    6.70
   0 -18   2   40.60    5.30
  -1  18  -2    2.10    2.50
   1 -18   2    4.30    2.30
   2 -18   2    0.40    2.60
   2 -18   2    1.20    1.30
   2 -18   2    1.90    2.00
   3 -18   2    0.10    1.80
   3 -18   2    0.80    1.40
   3 -18   2    1.20    2.70
   3  17  -2    6.00    3.50
  -3 -17   2    9.50    3.40
   2  17  -2    0.20    2.20
  -2 -17   2   -1.40    1.80
   1  17  -2    6.50    3.20
  -1 -17   2    9.00    3.00
   0  17  -2    0.10    1.90
   0 -17   2   -0.20    1.60
  -1  17  -2    8.40    3.20
   1 -17   2   12.20    3.10
   2 -17   2    0.30    1.00
   2 -17   2    1.30    2.20
   2 -17   2    0.90    1.70
   3 -17   2   32.40    4.30
   3 -17   2   35.00    4.00
   3 -17   2   43.40    7.10
  -3 -16   2  222.48   11.70
   2  16  -2    0.80    2.20
  -2 -16   2   -3.20    1.40
   1  16  -2   79.29    8.50
  -1 -16   2   73.79    7.20
   0  16  -2    7.40    3.20
   0 -16   2    9.20    2.70
  -1  16  -2    1.10    1.90
   1 -16   2    1.90    0.60
   1 -16   2    2.00    1.90
   2 -16   2   15.60    2.30
   2 -16   2   19.60    3.40
   2 -16   2   24.90    4.70
   3 -16   2   -2.80    1.90
   3 -16   2    0.60    1.40
   3 -16   2   -1.50    1.30
   4 -16   2   -1.60    1.40
   4 -16   2   -3.20    2.10
   4 -16   2    1.10    1.90
   4  15  -2   29.80    6.10
  -4 -15   2   30.00    5.30
   3  15  -2    0.00    2.00
  -3 -15   2    0.80    2.00
   2  15  -2   70.89    7.90
  -2 -15   2   75.89    6.20
   1  15  -2    5.90    2.70
  -1 -15   2    8.10    2.50
   0  15  -2  268.47   12.70
  -1  15  -2    4.70    2.60
   1 -15   2    0.90    0.70
   1 -15   2    3.10    1.80
   2 -15   2   74.59    7.80
   2 -15   2   73.39    5.30
   2 -15   2   77.49    5.50
   2 -15   2   71.49    5.20
   3 -15   2   -2.40    1.80
   3 -15   2   -0.30    1.20
   3 -15   2   -0.30    1.20
   4 -15   2    7.40    2.60
   4 -15   2    6.50    2.20
   4 -15   2    7.70    3.50
   4  14  -2    3.90    3.00
  -4 -14   2    0.50    1.50
  -4 -14   2   -2.40    1.80
   3  14  -2    1.20    0.90
   3  14  -2    1.40    2.30
  -3 -14   2    0.30    1.90
  -3 -14   2    0.80    1.00
   2  14  -2   58.89    6.80
  -2 -14   2   65.49    6.40
   1  14  -2   21.20    4.20
  -1 -14   2   14.10    2.90
   0  14  -2    7.10    2.60
   0 -14   2    0.40    1.40
  -1  14  -2   24.90    4.10
   1 -14   2   29.00    3.70
   1 -14   2   26.40    1.90
   1 -14   2   24.00    2.20
   2 -14   2  132.79    6.80
   2 -14   2  129.69    8.50
   2 -14   2  129.69    6.50
   2 -14   2  127.99    8.30
   3 -14   2   13.50    3.80
   3 -14   2   12.00    2.50
   3 -14   2   11.00    2.60
   4 -14   2    0.60    1.60
   4 -14   2    0.90    2.30
   4 -14   2   -0.60    1.20
   4  13  -2   56.09    7.70
  -4 -13   2   56.09    4.40
  -4 -13   2   46.60    5.80
   3  13  -2   43.10    6.20
   3  13  -2   35.10    2.60
  -3 -13   2   38.80    3.00
  -3 -13   2   33.20    4.60
   2  13  -2   54.79    6.50
   2  13  -2   57.39    2.40
  -2 -13   2   69.09    5.30
  -2 -13   2   60.39    2.60
   1  13  -2  119.29    7.80
  -1 -13   2  122.19    6.80
   0  13  -2  479.55   17.10
   0 -13   2  477.75   15.40
  -1  13  -2   29.60    4.30
   1 -13   2   28.30    2.00
   1 -13   2   27.80    3.50
   1 -13   2   24.90    2.00
   2 -13   2   77.39    4.90
   2 -13   2   85.39    6.60
   2 -13   2   79.29    4.60
   3 -13   2   37.50    5.20
   3 -13   2   60.69    4.30
   3 -13   2   63.69    4.70
  -4  13  -2   43.90    5.70
   4 -13   2   52.69    4.00
   4 -13   2   49.60    5.30
   4 -13   2   53.89    7.10
  -5  13  -2    8.60    3.40
   5 -13   2    5.60    2.70
   5 -13   2    3.60    3.10
   4  12  -2   12.40    3.80
  -4 -12   2    9.20    2.40
  -4 -12   2   10.80    3.10
   3  12  -2  435.26   17.60
   3  12  -2  434.16   12.30
  -3 -12   2  440.86   13.00
   2  12  -2   17.80    3.90
   2  12  -2   20.80    1.60
  -2 -12   2   23.00    3.70
  -2 -12   2   23.40    1.90
   1  12  -2  462.95   16.40
  -1 -12   2  444.46   14.70
   0  12  -2  149.19    8.10
   0 -12   2  149.79    4.30
   0 -12   2  151.28    4.20
   0 -12   2  154.68    7.10
  -1  12  -2   33.80    4.60
   1 -12   2   35.20    2.30
   1 -12   2   27.60    2.20
   1 -12   2   33.10    3.60
   2 -12   2  636.14   18.40
   2 -12   2  610.74   20.10
   2 -12   2  623.44   17.70
   2 -12   2  579.24   16.90
  -3  12  -2    3.60    2.00
   3 -12   2    2.50    1.40
   3 -12   2    1.10    1.80
   3 -12   2    1.00    1.30
  -4  12  -2    0.70    2.30
   4 -12   2    2.20    2.30
   4 -12   2    3.80    1.50
  -5  12  -2   81.49    8.70
   5 -12   2   77.59    8.70
   5 -12   2   75.49    4.40
   5  11  -2   21.60    5.20
  -5 -11   2    9.20    2.80
  -5 -11   2   17.80    3.80
   4  11  -2   25.10    5.20
  -4 -11   2   28.50    3.90
  -4 -11   2   26.60    4.20
   3  11  -2   18.00    2.20
   3  11  -2   22.30    4.40
  -3 -11   2   23.90    3.30
  -3 -11   2   25.10    3.80
   2  11  -2   71.49    3.20
   2  11  -2   81.29    6.40
  -2 -11   2   71.29    5.00
  -2 -11   2   75.39    3.50
   1  11  -2  702.83   21.80
   1  11  -2  722.63   16.40
  -1 -11   2  718.43   20.20
  -1 -11   2  686.63   16.40
   0  11  -2    5.60    2.10
   0 -11   2    8.20    2.00
   0 -11   2    9.40    1.00
   0 -11   2    8.70    1.10
  -1  11  -2   49.70    4.30
   1 -11   2   45.90    2.60
   1 -11   2   41.90    2.60
   1 -11   2   45.10    4.60
   1 -11   2   50.49    3.60
   2 -11   2    1.60    1.30
   2 -11   2   -0.40    0.90
   2 -11   2    2.00    1.20
   2 -11   2   -0.30    1.40
   2 -11   2   -0.20    0.90
  -3  11  -2    5.70    2.00
   3 -11   2    6.50    1.90
   3 -11   2    8.20    2.60
   3 -11   2    4.50    1.50
  -4  11  -2    0.90    1.80
   4 -11   2    0.10    1.10
   4 -11   2    0.00    1.30
   4 -11   2   -3.70    1.60
  -5  11  -2   -0.30    2.30
   5 -11   2    0.30    1.20
   5 -11   2   -0.30    2.50
   5  10  -2    5.10    3.20
  -5 -10   2    6.30    2.50
  -5 -10   2    3.90    2.20
   4  10  -2  130.79    9.10
  -4 -10   2  107.39    6.80
  -4 -10   2  109.69    6.40
   3  10  -2  215.48    8.70
   3  10  -2  222.18   11.40
  -3 -10   2  243.48    9.90
  -3 -10   2  231.68   11.20
   2  10  -2   42.20    5.20
   2  10  -2   49.20    2.60
  -2 -10   2   54.99    4.10
  -2 -10   2   47.30    2.80
   1  10  -2  456.25   15.60
   1  10  -2  491.95   11.80
   1  10  -2  513.95   16.60
  -1 -10   2  487.85   11.90
  -1 -10   2  487.65   14.80
   0  10  -2  193.58    8.60
   0  10  -2  187.08    7.40
   0 -10   2  205.28    5.80
   0 -10   2  199.88    7.60
   0 -10   2  198.48    8.80
   0 -10   2  201.78    5.50
  -1  10  -2   26.70    3.40
   1 -10   2   28.20    2.10
   1 -10   2   20.00    2.90
   1 -10   2   24.10    3.30
   1 -10   2   26.60    2.00
   1 -10   2   23.00    2.80
   2 -10   2   32.20    3.30
   2 -10   2   36.10    2.90
   2 -10   2   32.70    3.30
   2 -10   2   24.60    3.10
   2 -10   2   26.30    3.90
   2 -10   2   32.40    4.20
  -3  10  -2   32.90    4.00
   3 -10   2   34.80    3.70
   3 -10   2   28.30    3.00
   3 -10   2   42.40    5.10
  -4  10  -2   57.29    5.90
   4 -10   2   60.89    4.20
   4 -10   2   65.69    3.90
   4 -10   2   72.79    6.30
  -5  10  -2    1.50    2.40
   5 -10   2    2.70    1.50
   5 -10   2    4.10    2.80
   5   9  -2    1.40    2.50
  -5  -9   2    4.50    2.30
  -5  -9   2   12.00    3.20
   4   9  -2    0.10    2.00
  -4  -9   2   -0.40    1.30
  -4  -9   2    0.10    1.20
   3   9  -2  144.59    8.60
  -3  -9   2  133.89    6.80
  -3  -9   2  129.49    6.10
   2   9  -2   58.09    2.90
   2   9  -2   54.09    5.70
  -2  -9   2   52.79    3.90
  -2  -9   2   57.09    3.10
   1   9  -2  111.39    3.70
   1   9  -2  106.99    5.10
   1   9  -2  108.59    6.30
  -1  -9   2  120.09    5.50
  -1  -9   2  115.59    3.80
  -1  -9   2  107.99    6.40
   0   9  -2  246.78    8.40
   0  -9   2  248.08    9.80
   0  -9   2  255.47    6.60
   0  -9   2  248.98    7.00
  -1   9  -2  166.08    8.30
   1  -9   2  167.68    7.60
   1  -9   2  179.18    5.90
   1  -9   2  182.88    7.40
   1  -9   2  174.28    6.60
   1  -9   2  176.68    6.00
  -2   9  -2  134.09    6.10
   2  -9   2  123.79    6.50
   2  -9   2  133.99    6.10
   2  -9   2  129.19    5.40
   2  -9   2  134.09    5.80
   2  -9   2  138.69    7.00
  -3   9  -2  189.88    8.70
   3  -9   2  200.38    7.10
   3  -9   2  179.08    8.90
   3  -9   2  190.48    7.60
  -4   9  -2   19.00    3.70
   4  -9   2   14.00    2.20
   4  -9   2   14.00    3.30
  -5   9  -2   75.39    8.10
   5  -9   2   75.19    8.30
   5  -9   2   76.59    4.10
   5   8  -2    4.60    3.00
  -5  -8   2    3.50    1.90
  -5  -8   2    1.00    1.90
   4   8  -2   32.40    5.00
  -4  -8   2   43.60    4.60
  -4  -8   2   40.10    4.60
   3   8  -2   24.80    3.20
   3   8  -2   30.10    4.70
  -3  -8   2   34.20    3.80
  -3  -8   2   27.70    3.20
   2   8  -2  451.25   12.10
   2   8  -2  462.65   15.60
   2   8  -2  448.16   13.30
  -2  -8   2  467.25   12.50
  -2  -8   2  421.86   15.30
  -2  -8   2  460.25   13.70
   1   8  -2  327.27    8.40
   1   8  -2  321.87   10.00
   1   8  -2  323.67   11.50
  -1  -8   2  321.87   10.10
  -1  -8   2  320.47    8.40
  -1  -8   2  306.67   11.40
   0   8  -2   11.30    2.10
   0   8  -2   15.90    2.00
   0  -8   2   18.80    3.00
   0  -8   2   16.30    1.20
   0  -8   2   18.90    2.30
   0  -8   2   18.90    1.70
  -1   8  -2  258.47    9.20
   1  -8   2  250.97    7.80
   1  -8   2  256.07    8.20
   1  -8   2  248.18    9.20
   1  -8   2  258.77    7.70
   1  -8   2  249.88    8.80
  -2   8  -2  197.38    7.70
   2  -8   2  197.78    8.10
   2  -8   2  214.38    7.00
   2  -8   2  195.18    7.40
   2  -8   2  199.08    8.40
   2  -8   2  201.58    7.50
  -3   8  -2   12.20    2.60
   3  -8   2   10.30    1.90
   3  -8   2   10.80    2.40
   3  -8   2   12.20    2.70
   3  -8   2    8.90    1.60
  -4   8  -2   -0.70    1.40
   4  -8   2    0.00    0.90
   4  -8   2    2.80    2.00
   4  -8   2    1.60    1.00
  -5   8  -2   -1.10    1.80
   5  -8   2    1.70    2.30
   5  -8   2    1.70    1.10
   5  -8   2   -0.70    1.10
  -6   8  -2   12.60    4.40
   6  -8   2    1.90    2.80
   5   7  -2   16.20    4.30
  -5  -7   2   20.90    4.10
  -5  -7   2    9.70    2.60
   4   7  -2    5.50    2.90
  -4  -7   2    3.40    1.80
  -4  -7   2    1.70    1.50
   3   7  -2    2.70    1.80
   3   7  -2    1.80    1.20
   3   7  -2    1.60    1.10
  -3  -7   2    1.50    1.20
  -3  -7   2    2.00    1.30
   2   7  -2   93.89    4.00
   2   7  -2  114.49    6.40
   2   7  -2  103.49    4.80
  -2  -7   2  101.19    4.30
  -2  -7   2  100.79    6.10
  -2  -7   2  101.99    4.90
   1   7  -2  524.15   15.70
   1   7  -2  507.95   12.60
   1   7  -2  518.65   14.10
  -1  -7   2  515.45   14.20
  -1  -7   2  515.55   15.70
  -1  -7   2  524.15   12.70
   0   7  -2  112.69    4.60
   0   7  -2  111.19    3.60
   0   7  -2  109.49    5.30
   0  -7   2  113.79    3.50
   0  -7   2  107.79    5.40
   0  -7   2  108.39    4.60
  -1   7  -2  294.67    9.50
   1  -7   2  279.77    8.40
   1  -7   2  270.57    9.30
   1  -7   2  291.47    9.30
   1  -7   2  280.97    8.50
   1  -7   2  280.17    8.20
  -2   7  -2  397.16   12.30
   2  -7   2  407.56   12.10
   2  -7   2  377.66   11.60
   2  -7   2  393.46   12.30
   2  -7   2  390.06   12.60
   2  -7   2  401.86   11.10
  -3   7  -2   35.70    4.00
  -3   7  -2   38.60    3.10
   3  -7   2   40.80    3.60
   3  -7   2   44.80    4.80
   3  -7   2   45.10    3.10
  -4   7  -2  106.59    5.10
  -4   7  -2  104.39    7.00
   4  -7   2  100.09    4.80
   4  -7   2  111.09    7.10
  -5   7  -2   37.30    5.70
   5  -7   2   29.70    5.00
   5  -7   2   28.70    2.90
   5  -7   2   32.70    2.50
  -6   7  -2   12.40    4.20
   6  -7   2    9.80    3.60
   6   6  -2   -0.50    3.00
  -6  -6   2    4.10    2.30
   5   6  -2    6.00    3.30
  -5  -6   2   13.30    2.70
  -5  -6   2    6.80    2.60
   4   6  -2  134.09    8.60
   4   6  -2  117.79    5.70
  -4  -6   2  137.69    6.40
  -4  -6   2  130.29    7.10
   3   6  -2   44.00    3.20
   3   6  -2   42.10    5.20
   3   6  -2   41.70    4.00
  -3  -6   2   40.10    3.40
   2   6  -2   19.00    2.30
   2   6  -2   18.20    3.10
   2   6  -2   17.70    1.90
  -2  -6   2   19.30    2.10
  -2  -6   2   16.60    2.10
  -2  -6   2   21.60    3.20
   1   6  -2  409.66   10.30
   1   6  -2  422.46   12.90
   1   6  -2  401.96   11.30
  -1  -6   2  428.46   11.50
  -1  -6   2  399.46   12.70
  -1  -6   2  407.86   10.40
   0   6  -2  136.19    5.00
   0   6  -2  146.59    4.30
   0   6  -2  145.39    5.90
   0  -6   2  143.99    4.20
   0  -6   2  141.69    5.90
  -1   6  -2    9.90    1.80
   1  -6   2    6.00    1.20
   1  -6   2    8.10    1.30
   1  -6   2    5.90    1.10
   1  -6   2    8.00    1.60
   1  -6   2    6.60    1.50
  -2   6  -2 2730.33   61.59
  -2   6  -2 2710.83   62.49
   2  -6   2 2690.43   62.19
   2  -6   2 2774.02   62.39
   2  -6   2 2657.73   61.59
   2  -6   2 2698.13   62.69
  -3   6  -2   54.39    3.40
  -3   6  -2   52.89    4.30
   3  -6   2   65.19    3.50
   3  -6   2   54.89    3.90
   3  -6   2   51.79    4.00
   3  -6   2   60.09    4.40
  -4   6  -2  129.19    7.70
  -4   6  -2  126.69    5.60
   4  -6   2  132.69    7.60
   4  -6   2  123.29    5.30
  -5   6  -2    8.70    1.80
  -5   6  -2    6.40    2.60
   5  -6   2    8.00    3.20
   5  -6   2    5.20    1.50
  -6   6  -2   -1.80    2.20
   6  -6   2    2.40    2.80
   6   5  -2   16.10    4.90
  -6  -5   2   18.70    6.50
  -6  -5   2   14.60    2.80
   5   5  -2    2.00    2.40
  -5  -5   2    0.70    2.00
  -5  -5   2    1.70    1.50
   4   5  -2  418.86   12.50
   4   5  -2  433.26   16.30
  -4  -5   2  422.16   13.00
  -4  -5   2  398.86   14.30
   3   5  -2  223.08    7.60
   3   5  -2  241.28   10.20
   3   5  -2  224.08    8.10
  -3  -5   2  211.98    9.70
  -3  -5   2  220.58    7.80
  -3  -5   2  226.18    8.60
   2   5  -2  601.84   15.80
   2   5  -2  607.84   15.90
   2   5  -2  628.14   18.30
  -2  -5   2  639.44   16.30
  -2  -5   2  619.44   18.10
  -2  -5   2  625.04   16.10
   1   5  -2 1437.76   32.10
   1   5  -2 1400.36   32.80
   1   5  -2 1432.86   34.50
  -1  -5   2 1421.16   32.90
  -1  -5   2 1383.96   34.40
  -1  -5   2 1431.56   32.20
   0   5  -2    0.60    0.50
   0   5  -2   -0.50    0.60
   0   5  -2   -0.10    0.80
   0  -5   2   -0.10    0.60
   0  -5   2    1.10    0.90
   0  -5   2    0.50    0.40
   0  -5   2    1.10    0.90
  -1   5  -2    6.30    1.20
  -1   5  -2    6.80    1.30
  -1   5  -2    8.10    1.40
   1  -5   2    7.70    1.40
   1  -5   2    4.60    1.10
   1  -5   2    4.40    1.10
  -2   5  -2   10.40    1.60
  -2   5  -2   14.40    2.20
   2  -5   2   12.40    1.90
   2  -5   2   10.70    1.60
   2  -5   2   11.40    1.80
   2  -5   2   13.30    2.00
  -3   5  -2   10.80    1.70
  -3   5  -2   14.60    2.70
   3  -5   2   13.20    2.50
   3  -5   2   12.00    1.80
   3  -5   2   12.20    2.40
   3  -5   2   11.40    2.10
  -4   5  -2  133.39    7.70
  -4   5  -2  137.39    5.70
  -4   5  -2  126.09    6.70
   4  -5   2  136.09    5.50
   4  -5   2  132.09    7.50
  -5   5  -2   44.70    3.30
  -5   5  -2   49.40    6.10
   5  -5   2   45.90    3.10
   5  -5   2   52.59    6.00
  -6   5  -2    2.30    2.80
   6  -5   2    3.80    2.70
   6   4  -2   -1.20    2.90
  -6  -4   2    1.30    2.90
  -6  -4   2    0.50    1.80
   5   4  -2   44.90    3.40
   5   4  -2   40.00    6.10
  -5  -4   2   46.20    5.80
  -5  -4   2   52.19    3.80
   4   4  -2    3.80    1.20
   4   4  -2    0.60    1.90
  -4  -4   2    1.90    1.50
  -4  -4   2    2.20    1.20
   3   4  -2   83.39    4.50
   3   4  -2   83.79    3.90
   3   4  -2   92.79    6.10
  -3  -4   2   94.69    4.30
  -3  -4   2   76.09    5.40
  -3  -4   2   83.39    4.80
   2   4  -2    5.00    1.00
   2   4  -2    2.00    0.90
   2   4  -2    2.70    1.50
  -2  -4   2    2.40    1.00
  -2  -4   2    0.50    1.10
  -2  -4   2    1.70    0.80
   1   4  -2   94.89    4.60
   1   4  -2   94.19    3.50
   1   4  -2   89.19    3.20
  -1  -4   2   96.99    4.60
  -1  -4   2   90.49    3.30
  -1  -4   2   95.49    3.60
   0   4  -2 1121.29   26.90
   0   4  -2 1145.29   25.70
   0  -4   2 1154.68   26.80
   0  -4   2 1182.08   27.00
   0  -4   2 1105.99   25.60
  -1   4  -2 1279.97   29.40
  -1   4  -2 1283.67   29.70
  -1   4  -2 1252.87   29.50
   1  -4   2 1243.18   29.40
   1  -4   2 1277.67   29.60
  -2   4  -2  285.17    8.40
  -2   4  -2  286.07    9.40
   2  -4   2  297.07    8.80
   2  -4   2  269.47    8.90
   2  -4   2  277.07    8.40
  -3   4  -2  212.28    8.80
  -3   4  -2  218.78    7.30
  -3   4  -2  218.68    8.20
   3  -4   2  210.18    8.40
   3  -4   2  235.08    8.90
   3  -4   2  206.08    7.00
  -4   4  -2    1.20    1.40
  -4   4  -2    0.00    1.30
  -4   4  -2    2.50    1.20
   4  -4   2    1.00    0.90
   4  -4   2    0.40    1.40
  -5   4  -2  146.59    6.00
  -5   4  -2  141.09    8.90
   5  -4   2  122.49    5.40
   5  -4   2  153.08    8.80
  -6   4  -2    9.70    6.20
   6  -4   2    8.50    3.30
   6   3  -2    7.60    3.90
  -6  -3   2    7.70    3.50
   5   3  -2    0.40    1.00
   5   3  -2    0.10    2.30
  -5  -3   2    2.90    2.30
  -5  -3   2    0.00    1.10
   4   3  -2   45.40    2.80
   4   3  -2   51.79    6.00
  -4  -3   2   58.19    4.80
  -4  -3   2   41.50    3.00
   3   3  -2  137.09    4.90
   3   3  -2  144.79    7.50
   3   3  -2  134.39    6.00
  -3  -3   2  118.59    6.80
  -3  -3   2  144.79    6.50
  -3  -3   2  137.09    5.20
   2   3  -2   14.50    1.50
   2   3  -2   12.20    2.40
   2   3  -2   13.10    1.80
  -2  -3   2   15.50    1.60
  -2  -3   2   16.10    2.10
  -2  -3   2   16.10    2.70
   1   3  -2  161.28    4.80
   1   3  -2  155.08    6.00
   1   3  -2  160.58    4.80
  -1  -3   2  170.78    4.90
  -1  -3   2  158.28    5.90
  -1  -3   2  162.38    4.90
   0   3  -2  157.48    4.90
   0   3  -2  156.28    5.00
   0   3  -2  146.29    4.20
   0  -3   2  155.08    4.90
   0  -3   2  147.39    4.80
   0  -3   2  151.68    4.20
  -1   3  -2 1384.56   31.80
   1  -3   2 1330.57   31.20
   1  -3   2 1370.96   31.50
   1  -3   2 1377.56   31.20
   1  -3   2 1391.76   31.70
  -2   3  -2   45.00    2.60
  -2   3  -2   38.40    3.00
  -2   3  -2   44.20    2.70
   2  -3   2   43.80    2.80
   2  -3   2   44.90    2.50
   2  -3   2   44.00    3.00
  -3   3  -2   31.10    2.50
  -3   3  -2   31.00    3.20
  -3   3  -2   33.60    3.70
   3  -3   2   27.90    3.20
   3  -3   2   34.50    3.60
   3  -3   2   28.60    2.20
  -4   3  -2   69.29    5.50
  -4   3  -2   73.49    4.10
  -4   3  -2   64.39    4.70
   4  -3   2   79.09    5.50
   4  -3   2   66.89    3.70
  -5   3  -2   43.90    5.80
  -5   3  -2   43.40    3.40
   5  -3   2   45.30    5.50
   5  -3   2   38.00    3.00
  -6   3  -2    8.30    1.90
   6  -3   2    4.50    2.80
   6   2  -2  130.49   10.20
  -6  -2   2  118.89    9.10
   5   2  -2   59.29    3.20
   5   2  -2   57.89    7.00
  -5  -2   2   70.09    7.10
  -5  -2   2   62.19    3.60
   4   2  -2   42.00    2.50
   4   2  -2   50.79    5.90
  -4  -2   2   46.20    5.10
  -4  -2   2   42.90    2.80
   3   2  -2   10.70    1.30
   3   2  -2   11.70    2.70
   3   2  -2   12.30    2.10
  -3  -2   2    7.20    1.30
  -3  -2   2   13.30    2.40
   2   2  -2   14.00    1.80
   2   2  -2   17.70    2.60
   2   2  -2   16.40    1.20
  -2  -2   2   14.50    2.30
  -2  -2   2   13.00    1.30
  -2  -2   2   10.90    1.70
   1   2  -2  704.23   17.90
   1   2  -2  721.73   16.30
   1   2  -2  715.83   16.70
  -1  -2   2  682.23   17.80
  -1  -2   2  700.43   16.30
  -1  -2   2  706.23   16.80
   0   2  -2 2405.36   56.99
   0   2  -2 2332.37   59.49
   0  -2   2 2341.17   57.59
   0  -2   2 2327.57   56.79
   0  -2   2 2294.67   59.49
  -1   2  -2  636.04   15.20
  -1   2  -2  623.94   15.60
   1  -2   2  625.64   14.60
   1  -2   2  619.44   15.50
   1  -2   2  626.24   15.10
   1  -2   2  622.04   15.20
  -2   2  -2  299.97    9.70
  -2   2  -2  319.97    8.90
  -2   2  -2  315.47    9.60
   2  -2   2  307.27    9.60
   2  -2   2  311.57    9.20
   2  -2   2  298.97    8.70
  -3   2  -2  229.28    7.50
  -3   2  -2  224.18    8.20
  -3   2  -2  226.38    8.90
   3  -2   2  220.68    8.40
   3  -2   2  233.08    8.70
   3  -2   2  215.08    7.20
  -4   2  -2   23.50    2.70
  -4   2  -2   23.00    3.30
  -4   2  -2   21.50    3.50
   4  -2   2   25.00    2.60
   4  -2   2   27.00    3.90
  -5   2  -2    1.00    1.90
  -5   2  -2    0.10    1.20
   5  -2   2    0.70    1.80
   5  -2   2   -0.10    1.10
  -6   2  -2    1.90    1.70
  -6   2  -2   -0.60    2.50
   6  -2   2    3.20    2.90
   6   1  -2    1.20    3.20
  -6  -1   2    3.10    2.60
   5   1  -2   33.80    5.30
   5   1  -2   40.70    2.30
  -5  -1   2   38.70    2.50
  -5  -1   2   35.50    5.20
   4   1  -2   25.10    4.10
   4   1  -2   22.70    1.70
  -4  -1   2   26.70    3.70
  -4  -1   2   26.70    2.00
   3   1  -2   12.50    2.20
   3   1  -2   12.20    1.30
  -3  -1   2   11.30    1.30
  -3  -1   2    5.70    1.90
  -3  -1   2    9.70    2.20
   2   1  -2   81.19    4.50
   2   1  -2   74.39    3.60
   2   1  -2   74.29    2.50
  -2  -1   2   74.49    2.60
  -2  -1   2   69.99    3.70
  -2  -1   2   66.89    4.10
   1   1  -2 1184.18   28.00
  -1  -1   2 1173.28   27.90
   0   1  -2    1.40    0.40
   0   1  -2    0.80    0.50
   0   1  -2    1.60    0.50
   0  -1   2    1.30    0.40
   0  -1   2    1.10    0.40
  -1   1  -2  287.97    7.80
  -1   1  -2  294.97    7.20
  -1   1  -2  292.27    8.20
   1  -1   2  280.17    8.00
   1  -1   2  295.07    7.80
   1  -1   2  292.57    7.20
  -2   1  -2 1036.20   24.60
  -2   1  -2 1023.80   25.50
  -2   1  -2 1017.70   24.40
   2  -1   2  998.50   25.20
   2  -1   2 1034.50   24.70
   2  -1   2 1026.80   24.30
  -3   1  -2  258.67    9.80
  -3   1  -2  264.27    8.50
  -3   1  -2  261.27    9.00
   3  -1   2  258.27    8.20
   3  -1   2  256.47    9.30
   3  -1   2  269.77    9.50
  -4   1  -2   -1.40    1.00
  -4   1  -2    2.20    1.60
  -4   1  -2   -0.30    0.80
   4  -1   2    0.00    0.80
   4  -1   2    1.00    1.40
  -5   1  -2   28.00    4.70
  -5   1  -2   32.20    3.50
   5  -1   2   32.30    3.20
   5  -1   2   40.60    5.40
  -6   1  -2    0.80    1.50
  -6   1  -2   -0.90    2.00
   6  -1   2    1.50    2.70
   6   0  -2   34.20    6.30
  -6   0   2   25.90    5.20
   5   0  -2    2.00    0.70
   5   0  -2    0.40    2.00
  -5   0   2    1.90    0.70
  -5   0   2    3.90    2.10
   4   0  -2   28.90    4.40
   4   0  -2   33.10    1.80
  -4   0   2   31.20    4.10
  -4   0   2   36.20    2.00
   3   0  -2   58.49    6.50
   3   0  -2   82.69    2.70
   3   0  -2   78.89    4.50
  -3   0   2   83.39    2.90
  -3   0   2   74.69    4.90
  -3   0   2   72.19    4.60
   2   0  -2    2.60    1.40
   2   0  -2    3.80    0.50
   2   0  -2    3.80    1.20
  -2   0   2    2.80    0.50
  -2   0   2    1.50    0.90
  -2   0   2    2.90    1.30
   1   0  -2  662.73   16.50
   1   0  -2  651.63   15.70
  -1   0   2  657.13   15.70
  -1   0   2  656.23   14.40
  -1   0   2  660.03   16.50
  -1   0   2  641.44   14.40
   0   0  -2    0.30    0.30
   0   0  -2   -0.10    0.40
   0   0  -2    0.00    0.30
   0   0   2    0.00    0.30
   0   0   2    0.30    0.30
   0   0   2    0.70    0.40
  -1   0  -2  555.84   13.60
  -1   0  -2  540.45   12.80
  -1   0  -2  523.05   13.40
   1   0   2  559.94   13.40
   1   0   2  546.05   12.80
   1   0   2  547.45   13.50
  -2   0  -2   39.10    2.40
  -2   0  -2   39.00    2.90
  -2   0  -2   34.70    2.40
   2   0   2   38.60    2.70
   2   0   2   35.90    2.50
   2   0   2   32.90    2.20
  -3   0  -2    4.40    1.30
  -3   0  -2    1.70    1.20
  -3   0  -2    2.40    1.10
   3   0   2    1.50    1.10
   3   0   2    2.40    1.00
   3   0   2    2.90    1.40
  -4   0  -2  257.07   10.40
  -4   0  -2  276.97    9.60
  -4   0  -2  296.87   11.60
   4   0   2  273.67    9.10
   4   0   2  277.47   10.90
  -5   0  -2   36.00    5.30
  -5   0  -2   41.50    4.00
   5   0   2   40.10    3.30
   5   0   2   34.60    4.80
  -6   0  -2    9.00    2.30
  -6   0  -2    3.10    2.90
   6   0   2    4.60    3.10
   6  -1  -2   19.20    4.90
  -6   1   2   39.70    6.60
   5  -1  -2   17.50    4.30
  -5   1   2   15.50    3.70
   4  -1  -2  156.18    8.80
   4  -1  -2  153.08    4.20
  -4   1   2  152.98    8.00
   3  -1  -2    3.60    1.30
   3  -1  -2    6.40    0.60
  -3   1   2    4.70    1.70
  -3   1   2    8.90    2.00
  -3   1   2    6.70    0.70
   2  -1  -2  564.24   15.90
   2  -1  -2  570.54   14.80
  -2   1   2  546.55   15.70
  -2   1   2  543.75   14.90
   1  -1  -2  559.44   13.70
   1  -1  -2  571.14   14.60
   1  -1  -2  554.04   12.30
  -1   1   2  558.54   14.50
  -1   1   2  560.54   13.70
   0  -1  -2    6.80    0.90
   0  -1  -2    4.80    0.70
   0  -1  -2    6.80    0.80
   0  -1  -2    7.80    0.70
   0   1   2    7.80    0.70
   0   1   2    6.20    0.80
  -1  -1  -2  106.39    3.60
  -1  -1  -2  107.19    3.80
  -1  -1  -2  110.59    3.90
   1   1   2   99.99    3.70
   1   1   2  107.49    3.80
   1   1   2  103.79    3.50
  -2  -1  -2  495.15   13.00
  -2  -1  -2  471.95   13.30
   2   1   2  470.15   12.60
   2   1   2  484.05   13.10
   2   1   2  470.35   13.10
  -3  -1  -2   91.59    5.00
  -3  -1  -2   91.79    5.30
  -3  -1  -2  100.89    4.70
   3   1   2  103.19    4.50
   3   1   2   93.49    5.00
   3   1   2   94.89    5.20
  -4  -1  -2    4.60    2.00
  -4  -1  -2   13.20    2.70
   4   1   2    9.70    2.50
  -5  -1  -2   27.20    3.50
  -5  -1  -2   20.10    4.20
   5   1   2   19.00    3.90
  -6  -1  -2    4.20    2.10
  -6  -1  -2    1.60    2.70
   6   1   2    1.40    2.50
   6  -2  -2    3.90    3.10
  -6   2   2    5.00    4.00
   5  -2  -2    2.20    2.40
  -5   2   2   -0.40    1.80
   4  -2  -2   53.29    6.20
  -4   2   2   43.80    5.00
   3  -2  -2   96.29    5.10
   3  -2  -2  101.09    6.20
  -3   2   2  101.79    5.50
   2  -2  -2 1063.39   27.20
   2  -2  -2 1047.80   25.70
  -2   2   2 1061.69   26.00
  -2   2   2 1048.10   26.70
   0  -2  -2 1543.45   42.40
   0   2   2 1574.74   42.30
   0   2   2 1535.85   35.50
   0   2   2 1538.05   35.20
  -1  -2  -2  469.45   11.90
  -1  -2  -2  454.35   11.70
  -1  -2  -2  461.05   11.40
   1   2   2  460.35   11.30
   1   2   2  440.06   11.70
   1   2   2  435.66   11.60
  -2  -2  -2  696.83   18.30
  -2  -2  -2  735.13   18.20
  -2  -2  -2  674.93   18.20
   2   2   2  718.63   18.10
   2   2   2  707.63   18.40
   2   2   2  706.03   17.90
  -3  -2  -2  118.09    5.50
  -3  -2  -2  129.49    6.10
  -3  -2  -2  123.29    6.10
   3   2   2  133.49    5.50
   3   2   2  124.99    6.40
   3   2   2  123.09    6.10
  -4  -2  -2  295.07   10.30
  -4  -2  -2  283.27   11.40
  -4  -2  -2  283.67   11.20
   4   2   2  298.27   11.50
   4   2   2  267.77    9.50
  -5  -2  -2    0.70    1.40
  -5  -2  -2    0.10    1.70
   5   2   2    0.00    1.80
  -6  -2  -2    0.70    1.80
  -6  -2  -2    5.70    3.20
   6   2   2   -2.60    2.10
   6  -3  -2    4.70    3.20
   5  -3  -2    0.50    2.10
  -5   3   2    0.20    1.80
   4  -3  -2   32.60    4.80
  -4   3   2   23.50    3.80
   3  -3  -2    5.20    1.70
   3  -3  -2    4.20    1.90
  -3   3   2    4.00    1.50
  -3   3   2    4.00    1.60
   2  -3  -2   28.00    1.20
   2  -3  -2   22.60    2.30
   2  -3  -2   31.20    3.40
   2  -3  -2   28.20    1.10
  -2   3   2   33.40    2.60
  -2   3   2   32.70    3.50
   1  -3  -2  148.59    4.80
   1  -3  -2  156.08    4.30
   1  -3  -2  147.89    5.80
  -1   3   2  156.48    4.90
  -1   3   2  155.58    5.70
  -1   3   2  155.48    4.30
   0  -3  -2  776.22   18.90
   0  -3  -2  778.92   17.30
   0  -3  -2  776.42   18.40
   0   3   2  786.92   17.30
   0   3   2  750.92   18.30
   0   3   2  787.32   18.80
  -1  -3  -2  192.28    5.50
  -1  -3  -2  185.18    6.10
   1   3   2  181.28    5.30
   1   3   2  186.78    6.10
   1   3   2  183.28    6.00
  -2  -3  -2  265.67    8.30
  -2  -3  -2  239.78    8.30
  -2  -3  -2  239.48    7.90
   2   3   2  248.38    8.40
   2   3   2  241.98    7.90
   2   3   2  253.17    7.80
  -3  -3  -2   22.20    3.00
  -3  -3  -2   22.80    2.90
  -3  -3  -2   15.10    2.50
   3   3   2   20.00    2.50
   3   3   2   27.30    3.50
  -4  -3  -2   64.19    4.50
  -4  -3  -2   55.09    4.70
  -4  -3  -2   61.59    5.00
   4   3   2   58.19    4.00
   4   3   2   67.09    5.30
  -5  -3  -2   59.49    4.80
  -5  -3  -2   53.29    6.30
   5   3   2   59.69    6.60
  -6  -3  -2   -1.40    2.20
  -6  -3  -2    1.80    1.90
   6   3   2   -0.60    2.30
   6  -4  -2    8.80    4.10
  -6   4   2   12.10    4.10
  -5   4   2    7.30    2.80
   4  -4  -2  121.19    7.80
  -4   4   2  112.49    6.90
   3  -4  -2  351.26   11.70
   3  -4  -2  363.96   13.50
  -3   4   2  359.06   12.80
  -3   4   2  387.96   12.50
   2  -4  -2  385.86    9.20
   2  -4  -2  373.96   12.40
   2  -4  -2  370.96   11.00
   2  -4  -2  377.06    9.40
  -2   4   2  372.36   12.10
  -2   4   2  395.46   11.40
   1  -4  -2  666.63   15.90
   1  -4  -2  669.13   17.40
   1  -4  -2  655.83   15.70
   1  -4  -2  677.73   17.70
  -1   4   2  659.03   16.10
  -1   4   2  644.94   15.60
   0  -4  -2   12.80    0.70
   0  -4  -2   16.20    1.80
   0  -4  -2   17.50    2.10
   0   4   2   13.20    1.80
   0   4   2   12.30    0.70
   0   4   2    9.80    1.30
  -1  -4  -2  470.65   11.60
  -1  -4  -2  464.65   12.80
  -1  -4  -2  463.05   13.10
   1   4   2  472.55   13.00
   1   4   2  488.05   12.80
   1   4   2  485.05   11.50
  -2  -4  -2   64.39    3.40
  -2  -4  -2   63.49    4.00
  -2  -4  -2   57.79    3.60
   2   4   2   67.29    3.30
   2   4   2   60.99    3.50
   2   4   2   59.29    3.80
  -3  -4  -2  142.09    6.90
  -3  -4  -2  146.89    6.60
   3   4   2  144.09    7.00
   3   4   2  140.99    6.70
   3   4   2  141.49    6.10
  -4  -4  -2   39.10    4.40
  -4  -4  -2   33.70    4.30
   4   4   2   31.80    4.50
  -5  -4  -2   -2.00    1.40
  -5  -4  -2   -0.30    1.30
   5   4   2    0.20    1.90
  -6  -4  -2    4.70    2.80
  -6  -4  -2    1.40    2.80
   6   4   2    2.90    2.80
   6  -5  -2   16.40    4.60
  -6   5   2   19.80    4.60
   5  -5  -2    9.10    3.40
  -5   5   2    5.60    2.50
   4  -5  -2    8.30    3.10
  -4   5   2    8.20    2.40
   3  -5  -2    0.10    0.40
   3  -5  -2   -0.10    0.30
   3  -5  -2    0.50    1.40
   3  -5  -2    1.60    1.10
  -3   5   2    2.30    1.40
  -3   5   2   -1.00    1.00
   2  -5  -2  892.71   22.50
   2  -5  -2  897.51   20.90
   2  -5  -2  924.41   23.90
   2  -5  -2  917.51   24.60
   2  -5  -2  904.61   21.30
  -2   5   2  904.31   22.90
  -2   5   2  876.11   23.90
   1  -5  -2   10.50    2.00
   1  -5  -2   10.20    1.30
   1  -5  -2   13.30    1.40
   1  -5  -2   13.10    2.00
  -1   5   2    9.30    1.20
  -1   5   2   13.70    1.50
   0  -5  -2  498.35   13.50
   0  -5  -2  497.55   14.20
   0  -5  -2  536.55   11.60
   0   5   2  515.75   13.40
   0   5   2  536.55   14.30
   0   5   2  526.35   11.60
  -1  -5  -2 1143.19   29.10
  -1  -5  -2 1190.88   28.80
   1   5   2 1189.38   29.20
   1   5   2 1198.18   28.50
   1   5   2 1196.68   26.70
   1   5   2 1202.48   26.70
  -2  -5  -2  227.08    8.20
  -2  -5  -2  225.38    8.70
  -2  -5  -2  223.48    7.40
   2   5   2  235.18    8.70
   2   5   2  238.78    8.10
   2   5   2  222.28    7.10
  -3  -5  -2  209.58    9.10
  -3  -5  -2  203.38    8.20
   3   5   2  201.48    7.50
   3   5   2  196.68    7.80
   3   5   2  204.38    8.90
  -4  -5  -2  260.87   10.50
  -4  -5  -2  273.57   10.90
   4   5   2  269.37   11.50
  -5  -5  -2    1.00    1.70
  -5  -5  -2   -0.50    1.60
   5   5   2    1.10    2.10
  -6  -5  -2   24.40    5.30
  -6  -5  -2   14.40    3.40
   6   5   2   19.20    4.60
   6  -6  -2   -0.50    2.50
  -6   6   2   -1.50    2.30
   5  -6  -2   36.10    6.00
  -5   6   2   42.00    5.90
   4  -6  -2    0.50    1.90
  -4   6   2   -0.10    1.60
   3  -6  -2  100.99    6.60
   3  -6  -2  112.29    5.70
   3  -6  -2  105.19    3.50
   3  -6  -2  110.29    3.80
  -3   6   2  104.99    5.80
   2  -6  -2  231.58    8.00
   2  -6  -2  243.48    7.10
   2  -6  -2  260.87    8.00
   2  -6  -2  252.37   10.40
  -2   6   2  262.47    8.60
   1  -6  -2    6.90    1.30
   1  -6  -2    6.80    1.60
   1  -6  -2    7.90    1.10
   1  -6  -2    2.90    1.30
  -1   6   2    7.50    1.30
  -1   6   2    5.20    1.10
   0  -6  -2  234.18    8.50
   0  -6  -2  259.77    7.90
   0   6   2  242.68    8.50
   0   6   2  244.98    7.70
  -1  -6  -2   17.80    2.40
  -1  -6  -2   12.00    2.20
   1   6   2    9.00    1.80
   1   6   2   12.80    1.90
   1   6   2   11.80    0.90
   1   6   2   11.80    0.80
  -2  -6  -2    0.80    1.00
  -2  -6  -2    0.10    1.20
  -2  -6  -2    1.70    0.90
   2   6   2    1.40    1.00
   2   6   2    3.90    1.50
   2   6   2    1.50    0.80
  -3  -6  -2   53.39    3.90
  -3  -6  -2   51.39    4.60
  -3  -6  -2   60.79    4.40
   3   6   2   58.89    4.80
   3   6   2   51.59    3.50
  -4  -6  -2    1.50    1.50
  -4  -6  -2    2.80    1.90
   4   6   2    1.80    2.00
  -5  -6  -2    1.90    2.00
  -5  -6  -2    5.50    2.40
   5   6   2    2.30    2.20
   6  -7  -2    0.60    2.90
  -6   7   2   -1.20    2.30
   5  -7  -2    3.90    3.00
  -5   7   2    2.70    2.40
   4  -7  -2  195.88   10.80
  -4   7   2  198.78    9.60
   3  -7  -2    5.40    1.00
   3  -7  -2    3.60    1.50
   3  -7  -2    6.30    2.50
  -3   7   2    6.70    2.00
   2  -7  -2   14.80    2.00
   2  -7  -2   19.80    2.20
   2  -7  -2   21.50    3.10
   2  -7  -2   17.60    3.10
   2  -7  -2   16.00    1.80
  -2   7   2   18.00    2.30
   1  -7  -2    7.50    1.40
   1  -7  -2    5.50    1.00
   1  -7  -2    6.10    1.80
   1  -7  -2    5.50    1.70
  -1   7   2    5.60    1.00
  -1   7   2    3.70    1.40
  -1   7   2    8.10    1.40
   0  -7  -2  894.91   22.60
   0  -7  -2  895.51   23.80
   0   7   2  922.91   23.70
   0   7   2  872.71   22.30
  -1  -7  -2   37.30    3.80
  -1  -7  -2   47.10    3.70
   1   7   2   51.79    3.30
   1   7   2   52.29    3.80
  -2  -7  -2   60.99    4.20
  -2  -7  -2   62.49    3.20
   2   7   2   64.49    4.00
   2   7   2   55.19    4.40
   2   7   2   68.29    3.00
  -3  -7  -2  179.08    8.30
  -3  -7  -2  193.68    7.50
   3   7   2  174.08    6.80
   3   7   2  198.38    9.10
  -4  -7  -2   33.00    4.50
  -4  -7  -2   25.10    3.80
   4   7   2   41.80    5.60
  -5  -7  -2   12.50    3.30
  -5  -7  -2   17.00    3.60
   5   7   2   12.60    3.50
   5  -8  -2   -1.50    2.10
  -5   8   2    2.20    2.40
   4  -8  -2   10.80    1.10
   4  -8  -2    8.50    3.10
   4  -8  -2   13.20    1.30
  -4   8   2   10.90    2.90
   3  -8  -2  134.49    7.90
   3  -8  -2  100.89    4.50
   3  -8  -2  113.99    4.30
  -3   8   2  119.89    6.40
   2  -8  -2   20.10    2.10
   2  -8  -2   24.20    2.60
   2  -8  -2   18.30    3.10
   2  -8  -2   23.70    3.80
   2  -8  -2   22.80    2.60
  -2   8   2   27.30    3.00
   1  -8  -2 1393.66   31.50
   1  -8  -2 1397.76   33.10
   1  -8  -2 1363.86   35.10
   1  -8  -2 1385.96   35.40
  -1   8   2 1390.16   31.90
  -1   8   2 1388.96   32.80
  -1   8   2 1352.86   34.90
   0  -8  -2    0.20    1.00
   0  -8  -2    0.00    0.80
   0   8   2    0.70    1.10
   0   8   2    1.40    0.90
  -1  -8  -2  333.47   11.10
   1   8   2  328.97   10.70
   1   8   2  338.17   11.80
  -2  -8  -2  200.48    6.40
  -2  -8  -2  213.38    8.60
  -2  -8  -2  195.88    9.00
   2   8   2  193.58    6.00
   2   8   2  201.38    9.00
  -3  -8  -2    1.50    1.60
  -3  -8  -2    1.50    1.30
   3   8   2    2.40    1.70
   3   8   2    2.60    1.10
  -4  -8  -2    1.80    1.60
  -4  -8  -2    0.60    1.50
   4   8   2    5.00    2.40
  -5  -8  -2  135.79    8.40
  -5  -8  -2  118.79    7.80
   5   8   2  133.89    9.10
   5  -9  -2   32.80    5.90
  -5   9   2   29.20    5.10
   4  -9  -2    0.60    0.70
  -4   9   2    1.10    1.70
   3  -9  -2   72.99    6.10
   3  -9  -2   67.99    3.90
   3  -9  -2   75.59    3.60
  -3   9   2   72.69    5.10
   2  -9  -2  207.48    7.30
   2  -9  -2  219.18   10.10
   2  -9  -2  210.48    7.90
   2  -9  -2  221.18    7.50
  -2   9   2  232.38    8.10
   1  -9  -2   17.40    2.40
   1  -9  -2   16.40    3.00
   1  -9  -2   16.10    1.50
  -1   9   2   21.50    3.40
  -1   9   2   17.50    2.20
  -1   9   2   20.10    1.90
   0  -9  -2  151.08    7.50
   0  -9  -2  154.68    6.50
   0   9   2  144.09    7.20
   0   9   2  154.58    6.30
  -1  -9  -2   89.99    5.10
  -1  -9  -2   91.59    5.80
   1   9   2   90.29    5.60
  -2  -9  -2   20.10    3.00
   2   9   2   18.20    1.50
   2   9   2   18.50    3.20
   2   9   2   17.90    1.40
  -3  -9  -2   -0.20    0.90
  -3  -9  -2   -0.30    1.30
   3   9   2    0.30    0.80
   3   9   2    0.00    1.50
  -4  -9  -2   60.49    4.70
  -4  -9  -2   61.69    6.00
   4   9   2   59.79    6.50
  -5  -9  -2    0.40    1.80
  -5  -9  -2    2.20    2.30
   5   9   2    1.80    2.40
   5 -10  -2    1.70    3.10
  -5  10   2    4.40    2.90
   4 -10  -2   20.40    2.00
   4 -10  -2   19.10    4.30
   4 -10  -2   15.70    2.00
  -4  10   2   13.00    3.20
   3 -10  -2   34.00    2.70
   3 -10  -2   30.10    3.20
   3 -10  -2   38.00    5.40
  -3  10   2   27.50    3.60
   2 -10  -2   15.40    2.10
   2 -10  -2   12.20    3.00
   2 -10  -2   16.70    2.60
  -2  10   2   17.50    2.50
   1 -10  -2   62.19    3.90
   1 -10  -2   53.49    2.30
  -1  10   2   57.99    4.70
  -1  10   2   48.50    3.40
  -1  10   2   54.39    2.60
   0 -10  -2  325.87   11.00
   0  10   2  329.07   12.20
   0  10   2  309.27   11.50
  -1 -10  -2   69.89    4.80
   1  10   2   73.49    5.40
  -2 -10  -2  189.58    8.80
   2  10   2  205.68    5.40
   2  10   2  196.18    5.20
   2  10   2  214.78    9.80
  -3 -10  -2    3.40    1.40
  -3 -10  -2    5.50    2.10
   3  10   2    4.20    2.20
   3  10   2    4.00    1.30
   3  10   2    5.10    1.30
  -4 -10  -2    0.70    1.30
  -4 -10  -2    3.50    2.10
   4  10   2    1.90    2.00
  -5 -10  -2    0.70    2.00
  -5 -10  -2    3.70    2.70
   5  10   2    1.50    2.40
   5 -11  -2    6.00    3.60
  -5  11   2    9.40    3.30
   4 -11  -2   29.40    2.90
   4 -11  -2   30.40    5.50
   4 -11  -2   37.50    2.70
  -4  11   2   28.50    4.30
   3 -11  -2   50.29    4.20
   3 -11  -2   53.89    6.40
   3 -11  -2   58.59    4.10
  -3  11   2   60.49    4.70
   2 -11  -2   72.39    3.80
   2 -11  -2   71.09    6.10
   2 -11  -2   78.49    4.50
   2 -11  -2   73.59    4.80
  -2  11   2   79.79    4.40
   1 -11  -2    9.20    2.00
   1 -11  -2    5.60    0.90
   1 -11  -2    7.50    1.00
  -1  11   2    7.20    2.50
   0 -11  -2  112.99    6.00
   0  11   2  102.49    6.60
  -1 -11  -2   54.19    4.50
   1  11   2   52.39    5.80
  -2 -11  -2    6.30    2.10
   2  11   2    5.90    2.40
  -3 -11  -2    0.80    1.50
   3  11   2   -0.10    1.60
   3  11   2    0.50    0.70
   3  11   2    0.80    0.80
  -4 -11  -2   -0.70    1.70
   4  11   2    2.90    2.40
   4  11   2   -1.60    1.00
  -5  12   2    1.40    2.50
   4 -12  -2   14.20    4.10
   4 -12  -2   10.50    1.90
   3 -12  -2    9.60    2.00
   3 -12  -2    8.40    2.20
   3 -12  -2    8.90    3.20
  -3  12   2    1.80    1.50
   2 -12  -2    8.80    2.00
   2 -12  -2    7.20    1.50
   2 -12  -2    9.50    3.00
  -2  12   2   11.10    2.10
   1 -12  -2   76.49    2.50
   1 -12  -2   81.49    5.00
   1 -12  -2   74.19    2.60
  -1  12   2   68.19    5.70
   0 -12  -2  205.18    8.90
   0  12   2  207.08   10.00
  -1 -12  -2   25.40    3.80
   1  12   2   31.80    4.80
   2  12   2   14.30    3.30
  -3 -12  -2   26.40    4.50
   3  12   2    9.30    3.20
   3  12   2   18.60    1.70
  -4 -12  -2    1.00    2.20
   4  12   2   -0.60    1.90
   4  12   2    0.60    1.10
   4 -13  -2   36.20    6.30
   4 -13  -2   41.10    3.30
  -4  13   2   36.80    5.00
   3 -13  -2   36.50    3.80
   3 -13  -2   45.70    6.50
  -3  13   2   38.10    4.40
   2 -13  -2    2.20    1.00
   2 -13  -2    2.20    1.60
   2 -13  -2    2.00    2.10
   1 -13  -2   32.00    4.10
  -1  13   2   28.90    4.60
   0 -13  -2   94.59    6.10
   0  13   2  105.99    7.10
  -1 -13  -2    2.20    1.70
   1  13   2    1.50    2.00
  -2 -13  -2   -0.90    1.40
   2  13   2    1.10    2.00
  -3 -13  -2    6.50    2.80
   3  13   2    5.60    2.90
  -4 -13  -2    2.80    2.60
   4  13   2    0.50    2.20
   4 -14  -2   31.10    6.10
   4 -14  -2   47.10    3.80
  -4  14   2   39.50    5.20
   3 -14  -2   26.20    3.40
   3 -14  -2   15.80    4.30
  -3  14   2   23.40    3.50
   2 -14  -2    1.50    2.10
   2 -14  -2    1.00    1.50
   2 -14  -2    1.20    0.90
   2 -14  -2    2.80    1.30
   1 -14  -2   66.39    7.60
   1 -14  -2   50.69    5.20
  -1  14   2   44.10    5.90
   0 -14  -2   -0.20    1.40
   0  14   2   -0.10    1.60
  -1 -14  -2   34.40    4.90
   1  14   2   26.80    4.70
  -2 -14  -2    1.90    1.90
   2  14   2    1.10    1.90
  -3 -14  -2   45.30    5.90
   3  14   2   44.50    6.20
   4 -15  -2   15.50    5.20
   4 -15  -2    8.30    2.20
  -4  15   2    4.50    2.60
   3 -15  -2    0.50    1.50
   3 -15  -2    1.60    2.80
   3 -15  -2    0.80    1.40
   2 -15  -2    7.40    2.30
   2 -15  -2    7.10    1.40
   2 -15  -2   12.40    3.80
   2 -15  -2    7.70    1.30
   1 -15  -2    9.30    3.30
   1 -15  -2    4.10    2.40
  -1  15   2    2.90    2.10
   0 -15  -2    1.70    1.70
   0  15   2    1.40    2.20
  -1 -15  -2    0.90    1.90
   1  15   2    1.90    2.10
  -2 -15  -2   10.80    3.20
   2  15   2   11.20    3.50
   3  15   2   41.30    6.30
   3 -16  -2   16.60    2.70
   3 -16  -2   14.30    4.70
   3 -16  -2   14.40    3.40
   2 -16  -2   -1.50    1.40
   2 -16  -2   -0.80    0.60
   2 -16  -2    0.80    2.40
   1 -16  -2    4.40    2.20
   1 -16  -2    7.00    3.50
  -1  16   2    3.30    2.40
   0 -16  -2   29.70    4.70
   0  16   2   29.60    5.00
  -1 -16  -2   29.90    5.10
   1  16   2   14.10    3.90
  -2 -16  -2    2.00    2.30
   2  16   2    2.60    2.70
  -3 -16  -2    2.70    2.60
   3  16   2    1.60    2.80
   3 -17  -2    0.90    1.80
   3 -17  -2    0.20    3.00
   2 -17  -2    1.00    1.80
   2 -17  -2    0.10    2.90
   1 -17  -2   30.30    4.70
   1 -17  -2   31.50    6.30
   0 -17  -2    7.80    2.80
   0  17   2    8.40    3.20
  -1 -17  -2    1.50    2.30
   1  17   2    2.30    2.60
  -2 -17  -2  134.09    9.20
   2  17   2  110.39   13.10
   2 -18  -2   -1.90    2.20
   2 -18  -2   -1.40    1.70
   1 -18  -2    1.00    2.10
   1 -18  -2   -2.30    2.50
   0 -18  -2   36.50    5.20
   0  18   2   25.70    6.60
  -1 -18  -2    9.30    3.40
   1  18   2    2.30    2.80
   1 -19  -2    2.10    2.40
   1 -19  -2   -2.50    2.50
   0 -19  -2   54.89    6.70
   0  19   2   77.29    8.90
   0  20  -3    1.80    2.50
   0 -20   3   -0.20    2.20
  -1  20  -3    3.50    3.10
   1 -20   3    0.70    2.30
   1  19  -3   13.60    4.40
  -1 -19   3   18.80    4.10
   0  19  -3    8.60    4.00
   0 -19   3    2.10    2.40
  -1  19  -3    4.20    2.90
   1 -19   3    7.50    2.80
   2 -19   3   13.70    4.70
   2 -19   3   13.50    3.60
   2  18  -3  107.79    9.30
  -2 -18   3  101.19    8.00
   1  18  -3   12.30    4.10
  -1 -18   3   10.40    3.00
   0  18  -3    1.00    2.30
   0 -18   3   -0.50    1.70
  -1  18  -3   10.70    3.60
   1 -18   3   11.60    3.20
   2 -18   3   -1.00    2.40
   2 -18   3    0.10    1.90
   3 -18   3    5.90    2.70
   3 -18   3    5.40    2.00
   3  17  -3   57.39    7.90
  -3 -17   3   59.59    6.80
   2  17  -3   25.50    5.20
  -2 -17   3   22.70    4.50
   1  17  -3   25.30    5.20
  -1 -17   3   23.70    4.20
   0  17  -3   30.10    5.00
   0 -17   3   33.40    4.60
  -1  17  -3   24.50    4.80
   1 -17   3   22.50    1.60
   1 -17   3   26.10    4.20
   1 -17   3   23.50    1.50
   2 -17   3    0.80    1.10
   2 -17   3    0.80    1.70
   2 -17   3   -0.10    2.30
   3 -17   3   51.69    4.40
   3 -17   3   63.09    8.30
   3 -17   3   66.79    5.50
   3  16  -3   16.00    4.50
  -3 -16   3   15.10    3.80
   2  16  -3   10.70    3.80
  -2 -16   3    9.40    3.00
   1  16  -3   57.39    6.80
  -1 -16   3   40.90    5.00
   0  16  -3   15.30    3.80
   0 -16   3   16.20    3.30
  -1  16  -3   63.49    6.90
   1 -16   3   69.09    3.20
   1 -16   3   74.09    5.50
   1 -16   3   73.09    3.10
   2 -16   3  165.88    8.30
   2 -16   3  148.39    6.30
   2 -16   3  161.98   10.10
   2 -16   3  139.79    6.40
   3 -16   3    8.30    2.40
   3 -16   3   14.70    4.20
   3 -16   3    6.00    2.00
   4 -16   3    8.40    3.70
   4 -16   3   14.10    3.00
   4 -16   3    9.70    2.90
   4  15  -3   87.99   10.10
  -4 -15   3   98.79   13.80
   3  15  -3    6.80    3.20
  -3 -15   3    8.40    1.50
  -3 -15   3   18.80    3.90
   2  15  -3   35.30    5.60
  -2 -15   3   30.30    4.50
   1  15  -3   68.09    7.30
  -1 -15   3   70.19    5.50
  -1  15  -3    9.40    3.40
   1 -15   3   18.50    1.90
   1 -15   3   19.10    3.20
   1 -15   3   19.00    2.10
   2 -15   3    6.70    1.80
   2 -15   3    4.70    2.00
   2 -15   3    4.50    2.60
   2 -15   3    4.20    1.60
   3 -15   3    4.80    2.70
   3 -15   3    2.90    1.80
   3 -15   3    6.50    2.20
   4 -15   3    0.50    1.80
   4 -15   3   -1.20    1.30
   4 -15   3    0.30    2.40
   4  14  -3   -1.30    2.60
  -4 -14   3   -1.20    1.30
  -4 -14   3   -0.10    2.00
   3  14  -3   22.10    4.80
   3  14  -3    7.40    1.50
  -3 -14   3   13.80    2.10
  -3 -14   3   12.70    3.30
   2  14  -3  101.69    7.90
   2  14  -3   98.79    4.20
  -2 -14   3   96.19    3.70
  -2 -14   3   98.49    6.60
   1  14  -3    8.30    3.00
  -1 -14   3   11.30    2.70
   0  14  -3   32.80    4.70
   0 -14   3   24.90    3.60
   0 -14   3   21.30    1.50
   0 -14   3   21.10    1.30
  -1  14  -3  215.48   10.60
   1 -14   3  237.78    9.60
   1 -14   3  221.38    7.40
   1 -14   3  226.48    7.10
  -2  14  -3  508.45   18.00
   2 -14   3  498.25   14.90
   2 -14   3  520.95   18.70
   2 -14   3  518.25   16.10
   2 -14   3  490.85   14.70
   3 -14   3   83.89    5.50
   3 -14   3   75.69    6.80
   3 -14   3   67.29    4.90
   4 -14   3    1.50    2.40
   4 -14   3    1.70    1.90
   4 -14   3    0.60    1.30
   4  13  -3    9.50    3.80
  -4 -13   3   18.10    3.10
  -4 -13   3   10.00    3.00
   3  13  -3    5.80    2.90
   3  13  -3    5.70    1.50
  -3 -13   3    9.20    2.60
  -3 -13   3    5.30    2.20
   2  13  -3   19.20    1.90
   2  13  -3   20.50    4.40
  -2 -13   3   19.30    2.10
  -2 -13   3   17.70    3.30
   1  13  -3    2.20    1.80
  -1 -13   3    9.00    1.10
  -1 -13   3    4.90    2.00
  -1 -13   3    7.60    1.10
   0  13  -3   78.09    6.00
   0 -13   3   78.69    3.20
   0 -13   3   78.39    5.20
   0 -13   3   84.79    3.00
  -1  13  -3  169.98    8.80
   1 -13   3  156.28    6.00
   1 -13   3  168.78    7.60
   1 -13   3  160.38    5.70
  -2  13  -3   41.00    5.10
   2 -13   3   41.80    3.50
   2 -13   3   36.70    4.90
   2 -13   3   48.90    3.90
   2 -13   3   35.50    3.50
   3 -13   3   12.60    3.20
   3 -13   3   14.60    2.60
   3 -13   3   13.40    2.70
   4 -13   3   55.59    6.10
   4 -13   3   52.79    4.10
   4 -13   3   53.49    6.60
   5 -13   3    1.50    1.60
   5 -13   3    2.00    2.40
   5 -13   3    1.30    2.70
   4  12  -3    1.80    2.50
  -4 -12   3    0.50    1.70
  -4 -12   3   -0.20    1.30
   3  12  -3   14.20    3.70
  -3 -12   3   22.20    2.90
  -3 -12   3   18.80    3.40
   2  12  -3   -1.00    1.50
   2  12  -3    0.60    0.70
  -2 -12   3   -1.00    1.10
  -2 -12   3    0.80    0.80
   1  12  -3   91.69    6.50
   1  12  -3   83.09    3.20
  -1 -12   3   92.59    5.50
  -1 -12   3   85.69    3.20
   0  12  -3    9.50    2.70
   0 -12   3   12.70    1.30
   0 -12   3   14.60    1.70
   0 -12   3   15.20    2.50
  -1  12  -3    2.30    1.70
   1 -12   3    6.70    1.30
   1 -12   3    9.00    1.60
   1 -12   3    5.60    1.90
   2 -12   3  261.17   11.30
   2 -12   3  246.98    9.20
   2 -12   3  260.37    9.20
   2 -12   3  259.57    9.50
   3 -12   3   15.10    2.50
   3 -12   3   19.20    3.80
   3 -12   3   24.30    3.50
  -4  12  -3    3.90    2.30
   4 -12   3    4.00    1.60
   4 -12   3    4.50    2.90
   4 -12   3    0.30    1.70
  -5  12  -3    9.40    3.80
   5 -12   3   10.80    2.30
   5 -12   3    9.40    3.70
   5 -12   3   12.80    3.50
   5  11  -3    7.30    4.50
  -5 -11   3    7.00    2.70
  -5 -11   3    8.20    2.90
   4  11  -3   15.80    4.40
  -4 -11   3   14.30    2.90
  -4 -11   3   18.30    3.60
   3  11  -3    5.00    2.80
   3  11  -3    5.50    1.60
  -3 -11   3    7.60    1.80
  -3 -11   3    7.60    2.40
   2  11  -3  338.17    9.60
   2  11  -3  343.27   14.00
  -2 -11   3  352.56   10.10
  -2 -11   3  328.47   12.00
   1  11  -3   50.69    5.50
  -1 -11   3   45.50    4.30
  -1 -11   3   42.10    2.20
   0  11  -3   97.29    6.10
   0 -11   3  103.19    5.30
   0 -11   3  101.89    3.60
  -1  11  -3  165.78    7.90
   1 -11   3  151.18    7.50
   1 -11   3  172.28    7.10
   1 -11   3  155.78    6.00
   1 -11   3  175.78    6.00
   2 -11   3   24.40    3.70
   2 -11   3   21.80    2.80
   2 -11   3   28.00    3.70
   2 -11   3   26.80    3.40
  -3  11  -3   28.30    4.00
   3 -11   3   27.80    3.30
   3 -11   3   25.10    4.20
   3 -11   3   31.90    4.10
   4 -11   3   -0.40    1.00
   4 -11   3    0.00    1.70
  -5  11  -3    2.10    2.50
   5 -11   3    0.50    2.50
   5 -11   3    4.40    1.70
   5  10  -3    1.60    2.90
  -5 -10   3    0.80    2.00
  -5 -10   3    1.60    2.00
   4  10  -3    2.60    2.40
  -4 -10   3   -0.60    1.30
  -4 -10   3    0.30    1.40
   3  10  -3   15.00    3.60
   3  10  -3   16.90    2.30
  -3 -10   3   12.20    2.30
  -3 -10   3   15.50    2.70
   2  10  -3   11.20    3.10
   2  10  -3   12.00    1.70
  -2 -10   3   15.20    2.00
  -2 -10   3   12.80    2.40
   1  10  -3   97.09    3.90
   1  10  -3   94.49    6.10
   1  10  -3   89.69    4.90
  -1 -10   3   94.09    3.60
  -1 -10   3   94.19    5.10
  -1 -10   3  124.19   12.80
   0  10  -3   49.60    4.20
   0 -10   3   56.49    4.50
   0 -10   3   56.09    3.70
   0 -10   3   50.49    2.40
   0 -10   3   49.80    4.00
  -1  10  -3    6.30    2.00
   1 -10   3    6.10    1.90
   1 -10   3    4.80    1.30
   1 -10   3    8.80    1.50
   1 -10   3    6.70    1.90
   1 -10   3    4.70    1.40
   2 -10   3    3.00    1.20
   2 -10   3    1.40    1.10
   2 -10   3    2.50    1.50
   2 -10   3    4.60    1.60
   2 -10   3    2.50    1.40
   2 -10   3    0.10    1.20
  -3  10  -3    7.10    2.20
   3 -10   3   11.10    2.30
   3 -10   3   12.00    2.90
   3 -10   3   11.40    2.10
  -4  10  -3   78.39    6.40
   4 -10   3   79.19    6.30
   4 -10   3   61.59    4.50
   4 -10   3   69.69    4.20
  -5  10  -3   20.50    4.70
   5 -10   3   23.00    4.70
   5 -10   3   17.50    2.50
   5   9  -3   -1.20    2.20
  -5  -9   3    1.70    2.10
  -5  -9   3    0.20    1.70
   4   9  -3   -2.90    1.60
  -4  -9   3   -0.90    1.20
  -4  -9   3   -1.80    1.00
   3   9  -3   56.79    3.60
   3   9  -3   68.89    7.20
  -3  -9   3   52.69    3.90
  -3  -9   3   62.79    4.50
   2   9  -3    9.90    1.50
   2   9  -3    9.10    2.60
   2   9  -3    9.30    1.90
  -2  -9   3    7.00    1.80
  -2  -9   3    9.50    1.60
   1   9  -3   31.70    3.90
   1   9  -3   39.20    3.60
   1   9  -3   29.90    1.90
  -1  -9   3   30.90    1.90
  -1  -9   3   32.60    3.30
  -1  -9   3   30.10    3.80
   0   9  -3   37.60    4.00
   0   9  -3   31.70    2.20
   0  -9   3   35.60    1.90
   0  -9   3   44.20    4.60
   0  -9   3   39.80    4.10
  -1   9  -3  474.65   14.70
   1  -9   3  487.75   13.30
   1  -9   3  473.45   14.50
   1  -9   3  484.35   13.70
   1  -9   3  478.45   12.80
   1  -9   3  460.55   14.70
   2  -9   3  242.88    9.50
   2  -9   3  248.88    9.00
   2  -9   3  243.98    8.60
   2  -9   3  233.68   10.30
   2  -9   3  225.78    8.50
   2  -9   3  229.98    8.10
  -3   9  -3    5.90    2.10
   3  -9   3    5.40    1.90
   3  -9   3    3.00    1.70
   3  -9   3    3.90    1.20
  -4   9  -3   31.40    4.80
   4  -9   3   29.20    3.40
   4  -9   3   37.30    4.90
   4  -9   3   31.70    3.10
  -5   9  -3    6.60    2.90
   5  -9   3    7.10    3.10
   5  -9   3    9.20    1.90
   5   8  -3    0.80    2.70
  -5  -8   3    2.40    1.80
  -5  -8   3    1.50    2.20
   4   8  -3  206.48   11.50
  -4  -8   3  233.88    9.30
  -4  -8   3  220.78    9.60
   3   8  -3    0.80    0.90
   3   8  -3    2.40    2.30
  -3  -8   3    0.90    1.10
  -3  -8   3   -1.30    0.90
   2   8  -3  596.94   16.40
   2   8  -3  594.44   18.90
   2   8  -3  597.14   15.40
  -2  -8   3  584.64   15.60
  -2  -8   3  574.44   18.70
  -2  -8   3  597.74   16.70
   1   8  -3    0.20    0.50
   1   8  -3    0.50    0.70
   1   8  -3   -0.50    1.10
  -1  -8   3    0.00    1.10
  -1  -8   3    1.10    0.90
  -1  -8   3    0.20    0.50
   0   8  -3  139.09    4.60
   0   8  -3  137.39    6.30
   0  -8   3  131.69    5.40
   0  -8   3  128.19    6.20
   0  -8   3  139.69    4.40
   0  -8   3  140.39    6.20
  -1   8  -3   67.39    4.10
   1  -8   3   60.79    4.00
   1  -8   3   67.89    3.50
   1  -8   3   62.79    3.50
   1  -8   3   63.99    3.20
   1  -8   3   58.09    3.90
  -2   8  -3  148.89    6.50
   2  -8   3  142.99    6.00
   2  -8   3  133.69    6.00
   2  -8   3  129.89    6.40
   2  -8   3  140.29    5.60
   2  -8   3  130.69    5.90
   2  -8   3  140.69    6.40
  -3   8  -3   80.99    4.70
  -3   8  -3   82.99    5.50
   3  -8   3   79.49    5.00
   3  -8   3   75.49    4.40
   3  -8   3   89.69    5.60
  -4   8  -3   -0.90    1.50
   4  -8   3    2.20    1.90
  -5   8  -3    0.30    2.00
   5  -8   3    0.30    1.00
   5  -8   3   -0.40    1.90
   5  -8   3    0.10    1.50
  -6   8  -3   -1.30    2.20
   6  -8   3    0.20    2.40
   5   7  -3    4.30    3.20
  -5  -7   3    0.40    1.70
  -5  -7   3    0.70    1.50
   4   7  -3   23.40    4.30
  -4  -7   3   18.00    3.20
  -4  -7   3   19.70    2.90
   3   7  -3   18.80    3.90
   3   7  -3   20.50    2.50
   3   7  -3   23.70    2.90
  -3  -7   3   22.00    3.00
  -3  -7   3   27.40    3.20
   2   7  -3  455.75   15.20
   2   7  -3  445.06   12.10
   2   7  -3  419.46   12.60
  -2  -7   3  455.75   15.20
  -2  -7   3  440.96   12.90
  -2  -7   3  455.45   12.50
   1   7  -3  971.50   24.10
   1   7  -3  967.50   23.00
   1   7  -3 1012.10   26.20
  -1  -7   3 1003.70   23.10
  -1  -7   3  957.80   26.00
  -1  -7   3  989.20   24.30
   0   7  -3 1721.33   40.20
   0   7  -3 1652.63   37.60
   0  -7   3 1619.14   38.70
   0  -7   3 1674.03   37.50
   0  -7   3 1701.83   39.70
   0  -7   3 1606.44   39.90
  -1   7  -3   15.80    2.20
   1  -7   3    9.40    1.70
   1  -7   3   16.20    1.90
   1  -7   3   14.50    2.20
   1  -7   3   14.50    1.90
   1  -7   3   12.10    1.60
  -2   7  -3  207.58    7.50
  -2   7  -3  203.98    7.90
   2  -7   3  192.18    7.50
   2  -7   3  201.48    7.40
   2  -7   3  195.18    7.80
   2  -7   3  199.48    7.60
  -3   7  -3  114.69    5.50
  -3   7  -3  114.49    6.50
   3  -7   3  121.09    7.20
   3  -7   3  111.69    5.70
   3  -7   3  111.29    5.30
  -4   7  -3    2.00    1.40
  -4   7  -3    2.30    2.00
   4  -7   3    1.40    1.20
   4  -7   3    2.10    1.70
  -5   7  -3  186.88   10.60
  -5   7  -3  155.48   10.10
   5  -7   3  181.98    9.90
   5  -7   3  163.88    6.90
  -6   7  -3    2.70    3.10
   6  -7   3    0.90    2.50
  -6  -6   3    3.20    3.20
   5   6  -3   11.40    4.00
  -5  -6   3    5.20    1.90
  -5  -6   3    6.90    2.60
   4   6  -3   66.69    4.00
   4   6  -3   62.99    6.80
  -4  -6   3   70.89    5.30
  -4  -6   3   68.89    4.40
   3   6  -3   69.49    4.10
   3   6  -3   69.49    5.80
   3   6  -3   62.99    3.70
  -3  -6   3   67.89    4.30
  -3  -6   3   68.89    4.00
   2   6  -3   89.79    4.10
   2   6  -3   90.49    4.00
  -2  -6   3   86.29    4.20
  -2  -6   3   88.49    5.50
  -2  -6   3   91.89    4.20
   1   6  -3 1494.75   35.00
   1   6  -3 1517.65   34.30
   1   6  -3 1507.85   37.00
  -1  -6   3 1485.55   37.00
  -1  -6   3 1510.35   35.20
  -1  -6   3 1510.85   34.30
   0   6  -3  332.47    8.90
   0   6  -3  342.67   10.50
   0  -6   3  329.77   10.40
   0  -6   3  344.27    9.60
   0  -6   3  344.37    8.90
   0  -6   3  343.87   10.30
  -1   6  -3  334.07   10.20
  -1   6  -3  342.37   10.00
   1  -6   3  335.87    9.80
   1  -6   3  328.67    9.50
   1  -6   3  331.27   10.10
   1  -6   3  333.17   10.10
  -2   6  -3  117.69    5.60
  -2   6  -3  115.49    5.20
   2  -6   3  110.99    5.10
   2  -6   3  131.09    5.70
   2  -6   3  119.19    5.40
   2  -6   3  119.29    5.20
  -3   6  -3    7.70    2.20
  -3   6  -3    7.30    1.70
   3  -6   3    4.00    1.30
   3  -6   3    6.80    1.90
   3  -6   3   10.80    2.10
  -4   6  -3    0.50    1.10
  -4   6  -3    0.60    1.60
   4  -6   3    1.40    1.40
   4  -6   3    0.50    1.00
   4  -6   3   -0.60    1.20
  -5   6  -3   46.50    6.30
   5  -6   3   34.20    4.90
   5  -6   3   25.30    3.30
  -6   6  -3   -1.40    2.50
   6  -6   3    4.60    2.80
   6   5  -3    5.00    3.60
   5   5  -3   54.29    3.70
   5   5  -3   56.49    7.10
  -5  -5   3   65.99    6.70
  -5  -5   3   63.19    4.20
   4   5  -3   67.89    3.80
   4   5  -3   72.99    7.50
  -4  -5   3   63.69    5.00
  -4  -5   3   65.49    4.00
   3   5  -3  142.69    7.90
   3   5  -3  126.09    5.80
   3   5  -3  139.19    5.30
  -3  -5   3  131.79    5.40
  -3  -5   3  123.29    8.10
  -3  -5   3  127.99    6.10
   2   5  -3  576.14   17.40
   2   5  -3  595.24   15.00
   2   5  -3  572.14   15.00
  -2  -5   3  569.44   15.00
  -2  -5   3  574.34   15.30
  -2  -5   3  561.64   17.30
   1   5  -3   29.40    2.00
   1   5  -3   30.50    3.30
   1   5  -3   29.40    2.00
  -1  -5   3   31.60    2.10
  -1  -5   3   31.50    1.90
  -1  -5   3   37.00    3.60
   0   5  -3    0.40    0.80
   0   5  -3    0.80    0.50
   0  -5   3    0.80    0.90
   0  -5   3    0.00    0.60
   0  -5   3    2.60    0.70
   0  -5   3   -0.20    0.70
  -1   5  -3  219.28    6.90
  -1   5  -3  205.08    7.10
   1  -5   3  213.08    7.50
   1  -5   3  226.18    6.90
   1  -5   3  217.18    7.00
   1  -5   3  221.38    7.20
  -2   5  -3 1242.18   29.70
  -2   5  -3 1245.28   30.70
   2  -5   3 1222.48   29.90
   2  -5   3 1217.78   29.50
   2  -5   3 1201.78   29.60
   2  -5   3 1258.47   30.50
  -3   5  -3   30.80    3.10
  -3   5  -3   25.60    3.50
   3  -5   3   23.00    3.10
   3  -5   3   25.30    3.20
   3  -5   3   18.90    2.60
   3  -5   3   28.70    2.90
  -4   5  -3   32.60    4.70
  -4   5  -3   34.90    3.40
   4  -5   3   33.40    3.20
   4  -5   3   38.50    4.40
   4  -5   3   35.90    4.00
  -5   5  -3    0.00    1.50
  -5   5  -3   -0.50    1.90
   5  -5   3   -1.80    1.40
   5  -5   3    0.60    1.20
  -6   5  -3    0.40    2.50
   6  -5   3    2.80    2.60
   6   4  -3   17.70    5.10
   5   4  -3   13.90    2.10
   5   4  -3   26.50    5.10
  -5  -4   3   12.80    2.20
  -5  -4   3   17.40    3.60
   4   4  -3    5.80    2.80
   4   4  -3    8.90    1.60
  -4  -4   3    6.70    1.60
  -4  -4   3   11.40    2.70
   3   4  -3  154.28    8.20
   3   4  -3  155.38    6.60
   3   4  -3  161.78    5.60
  -3  -4   3  158.68    8.10
  -3  -4   3  153.38    6.90
  -3  -4   3  159.28    5.80
   2   4  -3   28.00    1.90
   2   4  -3   30.60    2.30
   2   4  -3   32.40    3.70
  -2  -4   3   29.70    2.40
  -2  -4   3   32.00    3.70
  -2  -4   3   32.30    2.10
   1   4  -3  592.84   16.20
   1   4  -3  593.64   14.70
  -1  -4   3  582.84   16.20
  -1  -4   3  605.54   14.70
  -1  -4   3  599.24   14.70
   0   4  -3  124.69    4.70
   0   4  -3  125.99    4.70
   0   4  -3  127.49    4.00
   0  -4   3  124.29    4.00
   0  -4   3  118.29    4.70
  -1   4  -3  123.09    4.30
  -1   4  -3  122.89    4.80
   1  -4   3  135.29    4.90
   1  -4   3  129.69    4.40
   1  -4   3  120.69    4.60
   1  -4   3  128.99    4.80
  -2   4  -3    7.80    1.70
  -2   4  -3   11.10    1.80
   2  -4   3    9.70    1.50
   2  -4   3   11.40    1.60
   2  -4   3   11.80    1.90
   2  -4   3    8.80    1.50
  -3   4  -3   95.69    4.70
  -3   4  -3   96.19    4.70
  -3   4  -3   97.79    5.70
   3  -4   3  108.09    5.70
   3  -4   3   95.99    4.50
   3  -4   3  101.49    5.20
  -4   4  -3   10.70    2.10
  -4   4  -3    5.70    2.50
  -4   4  -3    3.50    1.60
   4  -4   3   10.40    2.50
   4  -4   3    8.90    1.80
  -5   4  -3   40.40    5.50
  -5   4  -3   43.00    3.60
   5  -4   3   48.80    5.70
   5  -4   3   41.70    3.30
  -6   4  -3   17.90    2.80
  -6   4  -3   22.90    5.30
   6  -4   3   14.00    4.10
   6   3  -3   11.70    4.30
  -6  -3   3   11.80    5.40
   5   3  -3    9.00    1.60
   5   3  -3    6.10    3.10
  -5  -3   3    8.40    2.90
  -5  -3   3    9.20    1.70
   4   3  -3   22.60    4.40
   4   3  -3   21.90    2.10
  -4  -3   3   23.40    2.40
  -4  -3   3   22.90    3.60
   3   3  -3  208.18    6.30
   3   3  -3  212.98    9.60
   3   3  -3  194.08    7.60
  -3  -3   3  208.48    6.60
  -3  -3   3  198.58    9.00
  -3  -3   3  202.68    8.10
   2   3  -3  141.79    6.70
   2   3  -3  144.09    5.40
  -2  -3   3  145.59    6.60
  -2  -3   3  148.29    5.70
  -2  -3   3  144.39    4.70
   1   3  -3  338.57   10.20
  -1  -3   3  329.07   10.10
  -1  -3   3  335.07    9.00
  -1  -3   3  335.97    8.90
  -1  -3   3  323.47    8.60
   0   3  -3 2785.32   74.09
   0   3  -3 2801.62   70.19
   0  -3   3 2853.61   74.39
   0  -3   3 2826.12   70.29
   0  -3   3 2817.12   71.39
  -1   3  -3    3.60    1.00
  -1   3  -3    5.50    0.80
   1  -3   3    6.50    1.40
   1  -3   3    4.40    0.80
   1  -3   3    5.50    1.10
  -2   3  -3  369.86    9.90
  -2   3  -3  358.16   11.20
  -2   3  -3  366.46   10.50
   2  -3   3  355.06   10.20
   2  -3   3  360.06   10.30
   2  -3   3  354.56   11.00
  -3   3  -3  114.99    5.20
  -3   3  -3  123.79    5.30
  -3   3  -3  127.89    6.50
   3  -3   3  125.69    5.70
   3  -3   3  118.99    5.10
   3  -3   3  115.19    6.00
  -4   3  -3  324.87   11.40
  -4   3  -3  332.67   12.90
  -4   3  -3  323.47   10.70
   4  -3   3  314.17   10.20
  -5   3  -3   27.20    3.30
  -5   3  -3   25.30    4.60
   5  -3   3   21.80    3.90
   5  -3   3   20.00    2.70
  -6   3  -3    9.50    2.20
  -6   3  -3   10.10    6.50
   6   2  -3    2.40    3.40
  -6  -2   3    1.40    4.10
   5   2  -3   28.10    2.00
   5   2  -3   31.80    6.20
  -5  -2   3   30.50    2.20
  -5  -2   3   37.30    5.30
   4   2  -3    1.20    1.90
   4   2  -3    2.40    0.90
  -4  -2   3    1.70    0.80
  -4  -2   3    4.50    1.90
   3   2  -3  312.17   10.50
   3   2  -3  320.57    8.70
   3   2  -3  336.87   12.40
  -3  -2   3  299.37   11.80
  -3  -2   3  323.47    8.70
  -3  -2   3  328.37   11.10
   2   2  -3    7.00    1.90
   2   2  -3    6.20    1.30
   2   2  -3    6.10    0.90
  -2  -2   3    6.40    0.90
  -2  -2   3    6.30    1.90
  -2  -2   3    5.90    1.40
   1   2  -3  763.72   19.20
  -1  -2   3  744.93   19.10
  -1  -2   3  747.33   17.70
  -1  -2   3  753.92   18.00
  -1  -2   3  751.12   17.30
   0   2  -3 2547.15   66.99
   0  -2   3 2638.44   64.29
  -1   2  -3 3383.76   87.99
  -1   2  -3 3403.26   88.09
   1  -2   3 3322.27   87.79
   1  -2   3 3467.45   86.19
  -2   2  -3  552.94   14.40
  -2   2  -3  540.15   13.70
  -2   2  -3  519.75   15.10
   2  -2   3  534.15   14.20
   2  -2   3  563.74   14.00
   2  -2   3  530.45   14.90
  -3   2  -3  300.17   11.00
  -3   2  -3  308.17    9.70
  -3   2  -3  301.17    9.70
   3  -2   3  299.47    9.40
   3  -2   3  313.07   10.10
   3  -2   3  309.67   10.80
  -4   2  -3   12.80    3.00
  -4   2  -3   15.10    2.50
  -4   2  -3   11.00    2.30
   4  -2   3    9.90    1.90
   4  -2   3   12.10    2.60
  -5   2  -3  117.89    6.10
  -5   2  -3  116.49    8.00
   5  -2   3  107.79    5.50
   5  -2   3  117.39    7.40
  -6   2  -3    0.60    1.60
   6  -2   3   -1.00    2.20
   6   1  -3   27.70    5.80
  -6  -1   3   49.99   10.00
  -5  -1   3    1.00    1.80
   4   1  -3   27.20    1.60
   4   1  -3   26.30    4.30
  -4  -1   3   28.20    1.80
  -4  -1   3   26.70    3.90
   3   1  -3  123.09    3.70
   3   1  -3  117.89    6.90
   3   1  -3  115.39    5.60
  -3  -1   3  124.49    3.90
  -3  -1   3  126.39    6.10
  -3  -1   3  108.49    6.30
   2   1  -3    0.20    0.80
   2   1  -3   -0.20    1.00
  -2  -1   3    0.00    0.40
  -2  -1   3   -0.60    0.70
  -2  -1   3    0.00    0.90
  -2  -1   3    0.00    0.40
   1   1  -3  352.76   10.20
   1   1  -3  347.47    9.60
   1   1  -3  338.37    8.80
  -1  -1   3  365.46   10.90
  -1  -1   3  333.27    9.10
  -1  -1   3  334.77    8.40
  -1  -1   3  339.87    8.30
   0   1  -3  233.28    6.30
   0   1  -3  238.18    6.30
   0  -1   3  248.48    6.40
   0  -1   3  242.18    6.30
   0  -1   3  241.68    6.50
  -1   1  -3    5.30    1.10
  -1   1  -3    3.20    0.40
   1  -1   3    2.40    0.80
   1  -1   3    3.60    1.00
   1  -1   3    2.60    1.00
   1  -1   3    2.60    0.40
  -2   1  -3    0.00    0.70
  -2   1  -3    0.50    0.90
  -2   1  -3    1.60    0.80
   2  -1   3    1.80    0.80
   2  -1   3    0.70    0.90
   2  -1   3    1.00    0.70
  -3   1  -3   76.99    4.10
  -3   1  -3   61.09    3.70
  -3   1  -3   67.09    4.60
   3  -1   3   69.59    3.80
   3  -1   3   79.49    4.30
   3  -1   3   71.19    4.50
  -4   1  -3    3.50    1.60
  -4   1  -3    8.00    2.40
   4  -1   3    4.80    1.60
   4  -1   3    5.30    2.00
  -5   1  -3  132.49    8.60
  -5   1  -3  125.59    6.50
   5  -1   3  132.29    7.90
  -6   1  -3   -0.20    3.60
  -6   1  -3    0.50    1.70
   6  -1   3   -0.70    2.30
   6   0  -3   14.20    4.40
  -5   0   3   17.10    3.90
   4   0  -3   96.59    7.10
  -4   0   3   92.39    6.10
   3   0  -3   51.89    3.70
   3   0  -3   55.99    4.70
  -3   0   3   58.29    1.80
  -3   0   3   51.59    4.20
  -3   0   3   62.39    4.20
   2   0  -3  171.78    6.10
   2   0  -3  169.28    7.20
  -2   0   3  164.58    6.90
  -2   0   3  173.78    6.30
   0   0  -3 1814.32   47.40
   0   0  -3 2048.10   51.59
   0   0   3 1921.11   51.09
   0   0   3 1970.30   47.70
  -1   0  -3 1079.49   24.10
  -1   0  -3 1047.70   25.40
   1   0   3 1119.79   25.50
   1   0   3 1151.68   26.20
   1   0   3 1067.69   25.20
   1   0   3 1033.30   24.00
  -2   0  -3  637.34   16.80
  -2   0  -3  608.64   16.20
  -2   0  -3  624.74   15.60
   2   0   3  622.74   15.60
   2   0   3  586.74   15.80
   2   0   3  622.04   16.40
  -3   0  -3  132.19    5.70
  -3   0  -3  135.49    6.60
  -3   0  -3  135.59    5.80
   3   0   3  137.99    6.00
   3   0   3  136.59    5.60
   3   0   3  130.09    6.20
  -4   0  -3  110.29    5.70
  -4   0  -3  122.79    7.10
  -4   0  -3  105.69    5.90
   4   0   3  103.39    5.20
   4   0   3  105.69    7.20
  -5   0  -3    8.20    2.80
  -5   0  -3   11.70    2.50
   5   0   3   12.70    3.20
  -6   0  -3   -2.50    2.00
  -6   0  -3    0.90    1.70
   6   0   3   -1.40    2.50
   6  -1  -3    3.00    3.00
  -5   1   3   11.30    3.20
   4  -1  -3    5.00    2.40
  -4   1   3    6.20    2.00
   3  -1  -3   33.50    4.40
   3  -1  -3   24.30    2.90
  -3   1   3   26.90    3.20
  -3   1   3   34.70    4.20
   2  -1  -3  209.28    7.20
   2  -1  -3  217.28    8.50
  -2   1   3  230.88    7.60
  -2   1   3  222.68    8.30
   1  -1  -3  215.08    5.40
   1  -1  -3  228.78    6.90
   1  -1  -3  210.88    7.20
  -1   1   3  217.38    6.50
  -1   1   3  223.28    5.30
  -1   1   3  224.88    7.30
   0  -1  -3 2439.86   62.49
   0  -1  -3 2449.55   56.99
   0   1   3 2342.37   62.19
   0   1   3 2394.86   56.59
  -1  -1  -3   56.29    2.30
  -1  -1  -3   56.69    2.90
   1   1   3   51.19    2.60
   1   1   3   49.99    2.70
   1   1   3   54.69    2.40
   1   1   3   51.59    2.50
  -2  -1  -3  657.43   17.10
  -2  -1  -3  626.94   17.20
  -2  -1  -3  651.43   16.40
   2   1   3  652.63   16.90
   2   1   3  643.24   17.00
   2   1   3  654.53   16.50
  -3  -1  -3   23.50    3.20
  -3  -1  -3   26.40    3.00
  -3  -1  -3   20.90    2.70
   3   1   3   22.50    2.80
   3   1   3   26.10    3.10
   3   1   3   23.50    2.60
  -4  -1  -3  341.87   13.90
  -4  -1  -3  405.26   13.00
  -4  -1  -3  412.66   14.50
   4   1   3  439.86   15.00
   4   1   3  379.16   12.30
  -5  -1  -3   13.30    3.40
  -5  -1  -3   16.70    2.90
   5   1   3    6.90    2.70
  -6  -1  -3   21.70    3.50
  -6  -1  -3   18.70    4.90
   6  -2  -3   39.00    6.50
   5  -2  -3    0.50    2.60
  -5   2   3   -0.10    2.00
   4  -2  -3   21.80    4.10
  -4   2   3   17.90    3.30
   3  -2  -3    5.60    1.60
   3  -2  -3    8.80    2.50
  -3   2   3    9.00    2.10
  -3   2   3    5.40    1.90
   2  -2  -3  393.76   12.50
   2  -2  -3  369.96   10.80
  -2   2   3  356.76   11.00
  -2   2   3  376.06   12.00
   1  -2  -3    1.50    0.90
   1  -2  -3    2.60    1.20
  -1   2   3    2.30    0.50
  -1   2   3    2.70    1.10
  -1   2   3    2.20    0.90
   0  -2  -3  148.79    4.80
   0  -2  -3  144.19    4.10
   0  -2  -3  138.29    4.70
   0  -2  -3  143.09    4.60
   0   2   3  139.09    4.00
   0   2   3  143.89    4.50
  -1  -2  -3 1510.55   34.80
  -1  -2  -3 1511.45   35.50
   1   2   3 1531.35   35.30
   1   2   3 1532.15   34.80
   1   2   3 1525.95   34.80
   1   2   3 1562.64   34.70
  -2  -2  -3  500.75   13.70
  -2  -2  -3  498.65   14.10
  -2  -2  -3  519.95   14.20
   2   2   3  493.65   13.80
   2   2   3  502.25   13.70
   2   2   3  525.75   14.00
  -3  -2  -3    3.90    1.40
  -3  -2  -3    8.30    1.80
  -3  -2  -3    9.10    2.00
   3   2   3    8.50    1.90
   3   2   3    3.70    1.30
   3   2   3    5.40    1.60
  -4  -2  -3   75.19    5.10
  -4  -2  -3   74.69    5.50
  -4  -2  -3   73.69    4.90
   4   2   3   79.29    5.40
   4   2   3   62.39    4.70
  -5  -2  -3    1.90    1.80
  -5  -2  -3   -1.00    1.60
   5   2   3    2.70    2.10
  -6  -2  -3    2.00    1.90
  -6  -2  -3   -1.60    2.20
   6   2   3    1.70    2.30
   6  -3  -3    3.60    3.20
  -6   3   3    2.80    2.90
   5  -3  -3   45.80    6.50
  -5   3   3   57.19    6.60
   4  -3  -3  124.19    8.10
  -4   3   3  113.29    6.90
   3  -3  -3   65.49    4.20
   3  -3  -3   68.49    5.40
  -3   3   3   73.49    4.70
  -3   3   3   65.09    4.80
   2  -3  -3  130.19    3.20
   2  -3  -3  121.69    6.20
   2  -3  -3  125.19    5.10
  -2   3   3  124.29    5.30
  -2   3   3  123.59    6.00
   1  -3  -3 1060.29   26.70
   1  -3  -3 1093.89   24.60
  -1   3   3 1056.79   24.40
  -1   3   3 1092.09   26.50
  -1   3   3 1097.69   25.20
   0  -3  -3  391.76   10.60
   0  -3  -3  387.56    9.20
   0  -3  -3  370.36   10.20
   0   3   3  380.66   10.40
   0   3   3  393.06   10.70
   0   3   3  381.46    9.20
  -1  -3  -3  213.08    7.00
  -1  -3  -3  207.88    6.70
   1   3   3  204.98    6.60
   1   3   3  214.28    6.90
   1   3   3  214.08    6.10
   1   3   3  211.88    6.00
  -2  -3  -3  191.78    7.10
  -2  -3  -3  188.18    6.90
  -2  -3  -3  199.18    6.90
   2   3   3  185.58    6.90
   2   3   3  193.08    6.90
   2   3   3  189.38    6.60
  -3  -3  -3  206.68    8.20
  -3  -3  -3  212.98    8.40
  -3  -3  -3  203.48    8.20
   3   3   3  211.08    8.50
   3   3   3  204.48    7.80
   3   3   3  205.78    8.20
  -4  -3  -3   30.10    3.80
  -4  -3  -3   22.00    3.40
  -4  -3  -3   21.20    3.50
   4   3   3   23.50    3.60
  -5  -3  -3   13.70    2.90
  -5  -3  -3   18.20    3.80
   5   3   3   17.60    3.80
  -6  -3  -3   13.60    4.10
  -6  -3  -3   10.00    3.00
   6   3   3   13.80    3.90
   6  -4  -3   -1.20    2.60
  -6   4   3    4.50    2.90
   5  -4  -3    6.00    3.20
  -5   4   3    4.10    2.30
   4  -4  -3   24.60    4.30
  -4   4   3   23.10    3.70
   3  -4  -3    0.60    1.10
   3  -4  -3    3.10    1.70
  -3   4   3    0.10    1.10
  -3   4   3    0.60    1.10
   2  -4  -3  281.77   10.50
   2  -4  -3  270.37    8.80
   2  -4  -3  291.17    7.30
   2  -4  -3  288.27    7.10
  -2   4   3  277.57   10.10
  -2   4   3  287.07    9.20
   1  -4  -3  116.19    5.00
   1  -4  -3  115.69    5.30
   1  -4  -3  112.19    3.90
  -1   4   3  113.49    4.10
  -1   4   3  113.39    3.80
   0  -4  -3   26.00    2.00
   0  -4  -3   23.70    1.20
   0  -4  -3   30.60    2.40
   0   4   3   21.90    1.80
   0   4   3   25.60    2.20
   0   4   3   22.90    1.50
  -1  -4  -3   74.19    3.80
  -1  -4  -3   68.09    3.70
   1   4   3   72.39    2.70
   1   4   3   73.79    3.70
   1   4   3   73.99    3.70
   1   4   3   74.89    2.90
  -2  -4  -3  154.18    6.40
  -2  -4  -3  151.98    5.90
  -2  -4  -3  160.88    6.50
   2   4   3  156.38    6.20
   2   4   3  147.09    6.20
   2   4   3  155.68    5.60
  -3  -4  -3  196.98    8.10
  -3  -4  -3  215.08    8.30
  -3  -4  -3  194.38    8.30
   3   4   3  201.88    8.30
   3   4   3  192.98    7.70
  -4  -4  -3  609.34   19.30
  -4  -4  -3  623.94   19.00
  -4  -4  -3  628.74   19.50
   4   4   3  629.84   19.50
  -5  -4  -3   -0.60    1.60
  -5  -4  -3    1.10    1.70
   5   4   3    1.60    1.90
  -6  -4  -3    1.00    1.90
  -6  -4  -3    0.30    4.10
   6   4   3    1.10    2.40
   6  -5  -3   14.80    4.60
  -6   5   3    8.60    3.50
   5  -5  -3    4.70    2.80
  -5   5   3    1.00    1.90
   4  -5  -3   28.30    4.70
  -4   5   3   24.00    4.00
   3  -5  -3    0.20    1.00
   3  -5  -3    0.50    1.50
  -3   5   3   -0.90    0.90
   2  -5  -3   20.40    2.80
   2  -5  -3   25.40    2.60
   2  -5  -3   17.10    1.30
   2  -5  -3   18.70    1.50
   2  -5  -3   23.10    3.60
  -2   5   3   22.90    3.10
  -2   5   3   18.30    2.30
   1  -5  -3    6.20    1.70
   1  -5  -3    4.90    1.40
   1  -5  -3    4.40    1.10
  -1   5   3    4.40    0.90
  -1   5   3    3.80    0.90
   0  -5  -3  380.66    8.80
   0  -5  -3  374.16   10.60
   0  -5  -3  355.56   11.10
   0   5   3  378.76   10.40
   0   5   3  363.26    8.80
   0   5   3  372.76   11.10
  -1  -5  -3   48.60    3.30
  -1  -5  -3   50.59    3.20
   1   5   3   47.40    2.00
   1   5   3   39.30    3.00
   1   5   3   45.90    2.00
   1   5   3   46.70    3.00
  -2  -5  -3  149.09    6.60
  -2  -5  -3  151.78    5.70
  -2  -5  -3  143.89    6.40
   2   5   3  149.79    5.40
   2   5   3  141.09    6.40
   2   5   3  144.29    6.80
  -3  -5  -3   11.40    2.40
  -3  -5  -3   10.20    2.40
   3   5   3    9.40    1.90
  -4  -5  -3    4.60    2.10
  -4  -5  -3    5.40    1.90
   4   5   3    2.60    1.90
  -5  -5  -3    1.70    1.90
  -5  -5  -3    4.30    2.40
   5   5   3    4.90    2.40
   6  -6  -3    7.10    3.80
  -6   6   3    4.60    3.10
   5  -6  -3    4.00    3.20
  -5   6   3    3.60    2.60
   4  -6  -3   75.49    7.90
  -4   6   3   56.59    5.80
   3  -6  -3   33.50    1.70
   3  -6  -3   31.60    4.40
   3  -6  -3   35.40    1.60
   3  -6  -3   29.30    3.50
  -3   6   3   34.30    3.80
   2  -6  -3  111.99    6.40
   2  -6  -3  115.59    4.90
   2  -6  -3  113.39    4.00
   2  -6  -3  110.39    5.90
   2  -6  -3  103.99    4.20
  -2   6   3  112.19    5.10
   1  -6  -3  125.29    5.90
   1  -6  -3  131.79    4.90
   1  -6  -3  123.99    6.20
  -1   6   3  135.09    4.60
  -1   6   3  126.09    4.70
   0  -6  -3   21.40    2.80
   0  -6  -3   23.20    1.00
   0  -6  -3   28.80    2.80
   0   6   3   26.00    2.90
   0   6   3   25.10    1.10
   0   6   3   20.40    2.10
  -1  -6  -3   97.19    4.80
  -1  -6  -3   86.69    4.90
   1   6   3   97.19    3.00
   1   6   3  101.59    3.00
   1   6   3  100.09    4.70
   1   6   3   97.19    4.90
  -2  -6  -3    9.10    1.60
  -2  -6  -3    5.70    1.60
  -2  -6  -3    8.70    2.20
   2   6   3    5.60    1.60
   2   6   3    5.70    1.20
   2   6   3    6.00    1.70
  -3  -6  -3  363.46   12.10
  -3  -6  -3  382.66   13.00
  -3  -6  -3  353.66   13.00
   3   6   3  365.16   11.40
   3   6   3  386.46   13.30
  -4  -6  -3   10.20    2.50
  -4  -6  -3   18.60    3.30
   4   6   3   13.90    3.30
  -5  -6  -3    1.40    2.10
  -5  -6  -3   -0.70    1.70
   5   6   3    0.00    1.80
   6  -7  -3    1.30    3.60
  -6   7   3    1.10    2.70
   5  -7  -3    2.00    2.60
  -5   7   3    1.90    2.10
   4  -7  -3   51.79    6.70
  -4   7   3   60.29    6.20
   3  -7  -3    1.10    0.70
   3  -7  -3   -0.60    0.50
   3  -7  -3    0.80    1.60
  -3   7   3    0.20    1.10
   2  -7  -3    6.00    1.90
   2  -7  -3   12.00    2.70
   2  -7  -3    8.50    1.60
   2  -7  -3   13.20    1.80
   2  -7  -3   12.70    1.60
  -2   7   3   12.20    2.10
   1  -7  -3  544.35   15.00
   1  -7  -3  584.84   17.00
  -1   7   3  563.44   14.30
  -1   7   3  572.94   14.80
   0  -7  -3  306.47   10.60
   0  -7  -3  309.87    9.80
   0   7   3  304.47   10.50
   0   7   3  301.17    9.50
  -1  -7  -3  736.63   21.30
  -1  -7  -3  797.22   20.90
   1   7   3  757.52   21.10
   1   7   3  793.62   17.20
   1   7   3  754.42   20.40
   1   7   3  778.12   17.20
  -2  -7  -3 1397.46   35.00
   2   7   3 1356.66   35.30
   2   7   3 1355.76   31.90
   2   7   3 1407.36   32.10
  -3  -7  -3   50.99    3.80
  -3  -7  -3   53.39    6.10
  -3  -7  -3   65.69    4.90
   3   7   3   55.69    3.50
   3   7   3   54.59    4.80
  -4  -7  -3   75.29    5.40
  -4  -7  -3   88.09    6.20
   4   7   3   93.19    6.60
  -5  -7  -3   57.99    6.30
  -5  -7  -3   62.89    6.60
   5   7   3   50.19    6.30
   5  -8  -3    9.70    3.90
  -5   8   3   18.60    4.20
   4  -8  -3   99.59   13.60
  -4   8   3  103.09    6.90
   3  -8  -3    6.50    1.30
   3  -8  -3    8.40    2.80
   3  -8  -3    6.20    1.20
  -3   8   3    8.30    2.20
   2  -8  -3    0.50    0.80
   2  -8  -3    0.70    0.90
   2  -8  -3    1.50    0.90
   2  -8  -3    2.00    1.60
  -2   8   3    1.10    1.00
   1  -8  -3  102.69    4.70
   1  -8  -3   95.79    5.70
   1  -8  -3   96.19    5.80
   1  -8  -3   93.29    4.60
  -1   8   3   92.09    4.30
  -1   8   3   91.69    3.70
   0  -8  -3   -0.40    1.00
   0  -8  -3    0.00    0.90
   0   8   3    2.00    1.20
  -1  -8  -3   19.60    2.80
  -1  -8  -3   30.80    4.00
   1   8   3   22.50    2.70
   1   8   3   27.70    3.70
  -2  -8  -3  144.19    7.70
  -2  -8  -3  150.98    7.40
   2   8   3  158.68    5.20
   2   8   3  154.98    5.10
   2   8   3  159.58    7.70
  -3  -8  -3  106.49    6.40
  -3  -8  -3  106.59    5.30
   3   8   3   99.59    4.70
   3   8   3  103.19    6.60
  -4  -8  -3   53.59    5.70
  -4  -8  -3   65.49    5.00
   4   8   3   66.49    6.90
  -5  -8  -3   14.90    3.60
  -5  -8  -3   13.00    3.30
   5   8   3   13.80    3.70
   5  -9  -3    1.80    2.90
  -5   9   3    2.40    2.30
   4  -9  -3    6.10    2.80
   4  -9  -3    7.60    1.00
   4  -9  -3    8.40    0.90
  -4   9   3    6.20    2.50
   3  -9  -3   36.60    2.50
   3  -9  -3   43.30    5.70
   3  -9  -3   32.00    2.60
  -3   9   3   34.90    4.00
   2  -9  -3   18.40    2.50
   2  -9  -3   11.90    2.80
   2  -9  -3   24.20    2.60
   2  -9  -3   19.90    2.30
  -2   9   3   20.10    2.60
   1  -9  -3  177.98    5.30
   1  -9  -3  171.58    8.50
  -1   9   3  181.18    5.70
  -1   9   3  183.08    6.80
   0  -9  -3  223.08    9.50
   0  -9  -3  235.08    8.70
   0   9   3  212.18    8.10
   0   9   3  225.58    9.30
  -1  -9  -3    1.60    1.30
  -1  -9  -3    0.70    1.30
   1   9   3   -0.30    1.10
  -2  -9  -3   16.80    3.00
   2   9   3   23.50    1.50
   2   9   3   32.30    4.50
   2   9   3   21.10    1.50
  -3  -9  -3   27.30    4.10
   3   9   3   43.20    5.50
   3   9   3   33.00    3.10
   3   9   3   31.20    2.50
  -4  -9  -3   64.09    6.50
  -4  -9  -3   68.49    5.00
   4   9   3   73.29    4.80
   4   9   3   76.99    6.40
  -5  -9  -3   31.50    4.50
  -5  -9  -3   33.70    5.30
   5   9   3   29.10    5.00
   5   9   3   23.50    3.80
   5 -10  -3   -1.50    2.60
  -5  10   3    0.80    2.30
   4 -10  -3   11.00    3.70
   4 -10  -3   20.00    1.60
  -4  10   3   18.00    3.60
   3 -10  -3   20.30    4.10
   3 -10  -3   17.50    2.40
   3 -10  -3   19.20    2.30
  -3  10   3   27.00    3.60
   2 -10  -3    6.20    1.80
   2 -10  -3    4.80    1.30
   2 -10  -3    8.50    2.80
  -2  10   3    8.80    1.80
   1 -10  -3  173.28    5.20
   1 -10  -3  181.48    7.30
   1 -10  -3  177.28    8.90
  -1  10   3  180.18    7.10
  -1  10   3  175.28    5.50
   0 -10  -3   67.79    4.50
   0  10   3   58.19    4.70
  -1 -10  -3    2.20    1.40
   1  10   3    0.30    1.30
  -2 -10  -3  189.08    8.80
   2  10   3  173.98    8.90
  -3 -10  -3   32.10    4.50
   3  10   3   27.30    2.20
   3  10   3   30.30    2.50
   3  10   3   30.10    4.60
  -4 -10  -3    1.40    1.80
   4  10   3    2.20    2.20
   4  10   3    0.40    1.30
  -5 -10  -3   10.20    3.50
   5  10   3   12.90    3.90
   5  10   3    9.40    3.10
   5 -11  -3    3.30    3.40
  -5  11   3    6.40    3.10
   4 -11  -3    4.70    1.40
   4 -11  -3    9.30    1.50
   4 -11  -3    3.70    2.80
  -4  11   3    9.30    3.30
   3 -11  -3    3.60    2.40
   3 -11  -3    7.00    1.90
  -3  11   3    7.20    2.10
   2 -11  -3   76.39    4.50
   2 -11  -3   83.29    6.70
   2 -11  -3   70.19    3.70
   2 -11  -3   73.09    4.80
  -2  11   3   78.79    4.30
   1 -11  -3   69.39    4.60
   1 -11  -3   66.99    2.50
   1 -11  -3   67.59    5.70
   0 -11  -3   -1.70    1.00
   0  11   3   -0.10    1.40
  -1 -11  -3  172.08    8.20
   1  11   3  163.18    8.60
  -2 -11  -3   54.99    5.60
   2  11   3   59.69    5.30
  -3 -11  -3   57.89    6.10
   3  11   3   59.59    2.90
   3  11   3   60.99    6.60
   3  11   3   56.19    2.80
  -4 -11  -3   12.20    3.40
   4  11   3    8.60    3.20
   4  11   3    7.20    1.90
   5 -12  -3    0.90    3.20
  -5  12   3    3.00    2.60
   4 -12  -3   12.70    2.00
   4 -12  -3   10.10    3.80
  -4  12   3   13.10    4.00
   3 -12  -3   14.60    2.60
   3 -12  -3   18.00    4.30
   3 -12  -3   17.60    2.50
  -3  12   3   13.80    2.80
   2 -12  -3   56.89    3.30
   2 -12  -3   61.49    6.70
   2 -12  -3   66.99    4.50
  -2  12   3   57.79    3.70
   1 -12  -3   56.29    6.30
   1 -12  -3   58.19    4.40
   1 -12  -3   54.69    1.90
   0 -12  -3   79.49    5.40
   0  12   3   70.69    5.70
  -1 -12  -3   94.89    6.20
   1  12   3   90.39    6.50
  -2 -12  -3   96.39    6.60
   2  12   3   93.89    7.00
  -3 -12  -3   10.70    3.30
   3  12   3    9.10    3.10
  -4 -12  -3   57.19    6.80
   4  12   3   66.19    7.80
   4 -13  -3    4.00    1.60
   4 -13  -3   -0.60    2.60
  -4  13   3    4.30    2.40
   3 -13  -3   21.70    3.10
   3 -13  -3   23.00    4.80
  -3  13   3   24.10    3.50
   2 -13  -3   12.10    1.80
   2 -13  -3   15.40    2.70
   2 -13  -3   18.10    4.30
  -2  13   3   14.80    2.20
   1 -13  -3  132.49    8.90
   1 -13  -3  155.68    7.60
   0 -13  -3    1.60    1.60
   0  13   3    3.10    2.00
  -1 -13  -3  103.29    6.90
   1  13   3  106.09    7.50
  -2 -13  -3  112.79    7.50
   2  13   3  115.69    8.10
  -3 -13  -3   11.90    3.50
   3  13   3    4.60    2.60
  -4 -13  -3    8.20    3.30
   4  13   3    6.90    3.40
   4 -14  -3  136.19    6.20
  -4  14   3  140.29    8.50
   3 -14  -3    0.50    2.50
   3 -14  -3    3.30    1.70
  -3  14   3    2.80    1.80
   2 -14  -3   53.89    3.00
   2 -14  -3   68.09    5.10
   2 -14  -3   57.59    7.00
   2 -14  -3   61.29    3.40
   1 -14  -3  127.29    7.20
   1 -14  -3  139.39    9.30
   0 -14  -3    1.20    1.80
   0  14   3    2.00    2.00
  -1 -14  -3  163.88    9.00
   1  14   3  172.58    9.90
  -2 -14  -3    3.90    2.30
   2  14   3    5.80    2.70
  -3 -14  -3   45.50    6.30
   3  14   3   25.80    5.00
   4 -15  -3   -1.10    2.90
  -4  15   3    0.40    2.20
   3 -15  -3    7.00    2.40
   3 -15  -3   10.60    4.10
  -3  15   3    6.00    2.20
   2 -15  -3   86.39    9.10
   2 -15  -3   74.19    3.50
   2 -15  -3   83.99    5.80
   1 -15  -3   28.50    4.10
   1 -15  -3   26.80    5.20
   0 -15  -3   22.80    3.90
   0  15   3   22.50    4.50
  -1 -15  -3   17.20    3.90
   1  15   3   12.40    3.40
  -2 -15  -3    3.00    2.40
   2  15   3    3.70    2.80
  -3 -15  -3   25.80    4.80
   3  15   3   29.40    5.50
   3 -16  -3   15.40    3.30
   3 -16  -3   17.00    2.80
   3 -16  -3   19.10    5.30
   2 -16  -3   -0.90    1.60
   2 -16  -3   -3.50    1.90
   1 -16  -3   10.00    3.70
   1 -16  -3    8.40    2.70
   0 -16  -3   19.80    3.80
   0  16   3   26.40    4.90
  -1 -16  -3   26.70    4.70
   1  16   3   34.90    5.70
   2  16   3    2.10    2.50
   3 -17  -3    6.60    2.70
   3 -17  -3    4.20    3.70
   2 -17  -3   39.00    4.90
   2 -17  -3   58.79    9.00
   1 -17  -3    0.00    1.80
   1 -17  -3    1.50    2.70
   0 -17  -3   11.20    3.50
   0  17   3   14.60    3.90
   1  17   3   15.50    4.10
  -2 -17  -3   23.70    4.90
   2  17   3   20.10    4.80
   2 -18  -3    4.80    3.60
   2 -18  -3    0.70    2.00
   1 -18  -3   14.10    3.60
   1 -18  -3   11.50    4.20
   0 -18  -3    1.50    3.90
   0  18   3    1.10    2.50
  -1 -18  -3  120.49    8.90
   1  18   3  115.59    9.60
   0  20  -4   -2.00    2.10
   0 -20   4    3.30    2.40
  -1  20  -4    1.20    2.60
   1 -20   4   -0.20    2.20
   1  19  -4   30.20    5.70
  -1 -19   4   24.90    4.60
   0  19  -4    2.80    2.80
   0 -19   4    0.10    2.10
  -1  19  -4   77.29    8.40
   1 -19   4   82.49    6.80
   2 -19   4    2.80    2.30
   2  18  -4   66.49    8.60
  -2 -18   4   63.49    7.00
   1  18  -4  103.69    8.80
  -1 -18   4  110.49    7.80
   0  18  -4    6.00    2.90
   0 -18   4    2.30    2.00
  -1  18  -4    5.40    2.80
   1 -18   4    5.70    2.30
   1 -18   4    7.70    1.10
   2 -18   4    1.60    1.30
   2 -18   4   -0.70    1.60
   2 -18   4    0.00    2.30
   3 -18   4    2.70    1.70
   3 -18   4    0.10    2.70
   3 -18   4    2.20    2.10
   3  17  -4   20.30    5.00
  -3 -17   4   19.40    4.20
   2  17  -4  162.68   11.00
  -2 -17   4  156.38    9.30
   1  17  -4    1.60    2.50
  -1 -17   4    2.70    2.20
   0  17  -4    4.00    2.50
   0 -17   4    3.90    2.20
  -1  17  -4   29.50    5.10
   1 -17   4   24.90    2.40
   1 -17   4   26.10    2.00
   1 -17   4   22.60    4.00
   2 -17   4   11.90    2.20
   2 -17   4    8.70    3.60
   2 -17   4    9.50    2.80
   3 -17   4    7.70    2.50
   3 -17   4    9.40    2.50
   3 -17   4   15.30    4.50
   3  16  -4    5.40    3.40
  -3 -16   4    7.10    2.80
   2  16  -4   42.80    6.20
  -2 -16   4   48.10    5.60
   1  16  -4    5.40    3.00
  -1 -16   4    3.10    2.10
   0  16  -4   32.50    5.00
   0 -16   4   34.80    1.70
   0 -16   4   32.60    1.70
   0 -16   4   38.40    4.90
  -1  16  -4    1.00    1.90
   1 -16   4    0.30    0.80
   1 -16   4    1.30    1.00
   1 -16   4    0.50    1.50
  -2  16  -4   -0.60    1.60
   2 -16   4    1.10    1.40
   2 -16   4   -1.10    1.20
   2 -16   4    0.80    1.20
   2 -16   4   -0.60    1.90
   3 -16   4    2.00    2.60
   3 -16   4    1.10    1.60
   3 -16   4    0.10    1.40
   4 -16   4    3.10    2.70
   4 -16   4    0.60    1.60
   4 -16   4   -0.60    1.80
   4  15  -4   33.40    6.50
  -4 -15   4   23.10    5.30
   3  15  -4    2.50    2.90
  -3 -15   4    6.40    1.70
  -3 -15   4    7.50    2.80
   2  15  -4   14.20    3.90
   2  15  -4   18.00    1.80
  -2 -15   4   21.50    1.80
  -2 -15   4   22.40    3.70
   1  15  -4    3.70    2.40
  -1 -15   4    7.10    2.50
  -1 -15   4    2.60    0.70
  -1 -15   4    3.00    0.80
   0  15  -4    1.20    1.90
   0 -15   4    0.20    0.60
  -1  15  -4    8.00    2.70
   1 -15   4    8.10    1.50
   1 -15   4    8.60    2.40
   1 -15   4    8.40    1.70
   2 -15   4   11.30    5.20
   2 -15   4   15.50    3.00
   2 -15   4   17.70    2.80
   2 -15   4   11.20    2.20
   3 -15   4    4.80    2.10
   3 -15   4    5.90    2.90
   3 -15   4    3.70    1.80
   4 -15   4   15.00    4.10
   4 -15   4   14.50    3.30
   4 -15   4    9.20    2.60
   4  14  -4   30.20    9.70
  -4 -14   4   25.00    4.50
  -4 -14   4   25.60    3.60
   3  14  -4   28.00    5.30
  -3 -14   4   38.30    5.10
  -3 -14   4   26.10    3.00
   2  14  -4   39.00    2.40
   2  14  -4   28.40    4.90
  -2 -14   4   37.60    2.50
  -2 -14   4   35.80    4.50
   1  14  -4   92.19    7.10
  -1 -14   4   87.89    3.40
  -1 -14   4  105.09    6.40
   0  14  -4   27.90    4.70
   0 -14   4   24.60    2.30
   0 -14   4   21.40    1.70
   0 -14   4   33.20    4.20
  -1  14  -4  185.58    9.60
   1 -14   4  184.48    6.90
   1 -14   4  183.28    8.30
   1 -14   4  177.88    6.40
  -2  14  -4   35.30    4.80
   2 -14   4   27.20    3.50
   2 -14   4   32.10    4.70
   2 -14   4   31.20    3.80
   2 -14   4   32.70    3.50
   3 -14   4   39.20    6.90
   3 -14   4   63.59    4.70
   3 -14   4   69.79    5.00
   4 -14   4   15.20    3.30
   4 -14   4    8.30    3.20
   4 -14   4    7.10    2.10
   4  13  -4    2.40    2.80
  -4 -13   4   -0.10    1.50
  -4 -13   4    1.70    2.00
   3  13  -4    0.30    1.10
   3  13  -4   -2.60    1.50
  -3 -13   4   -0.20    1.00
  -3 -13   4    0.60    1.60
   2  13  -4    5.90    2.90
   2  13  -4    3.80    1.10
  -2 -13   4    4.60    2.00
  -2 -13   4    4.90    1.30
   1  13  -4  188.18    6.00
   1  13  -4  178.88    9.70
  -1 -13   4  183.28    5.80
  -1 -13   4  200.08    8.70
   0  13  -4   77.59    6.00
   0 -13   4   79.99    3.80
   0 -13   4   79.29    3.40
   0 -13   4   80.59    5.10
  -1  13  -4    2.60    1.80
   1 -13   4    1.10    0.90
   1 -13   4   -0.20    1.20
   1 -13   4   -0.50    0.90
  -2  13  -4  125.89    7.40
   2 -13   4  123.59    6.30
   2 -13   4  116.19    6.00
   2 -13   4  114.69    5.70
   3 -13   4    0.40    1.30
   3 -13   4   -0.50    1.40
   3 -13   4    0.70    1.20
   4 -13   4   78.69    6.30
   4 -13   4   88.79    7.30
   4 -13   4   87.39    5.40
   5 -13   4   27.00    5.20
   5 -13   4   13.90    3.70
   5 -13   4   20.50    3.20
   4  12  -4   11.40    3.90
  -4 -12   4   13.60    3.20
  -4 -12   4   10.80    2.50
   3  12  -4    3.10    1.40
   3  12  -4    5.30    2.70
  -3 -12   4    4.10    1.50
  -3 -12   4    1.90    1.80
   2  12  -4  151.98    5.70
   2  12  -4  163.48    9.40
  -2 -12   4  162.58    6.00
  -2 -12   4  156.68    7.70
   1  12  -4  101.39    4.00
   1  12  -4   92.19    6.70
  -1 -12   4  101.39    4.00
  -1 -12   4   98.59    5.70
   0  12  -4   40.00    4.90
   0 -12   4   44.10    4.30
   0 -12   4   35.20    2.50
   0 -12   4   40.60    2.40
  -1  12  -4  632.84   19.60
   1 -12   4  621.84   16.90
   1 -12   4  608.04   18.00
   1 -12   4  629.94   16.40
  -2  12  -4   54.49    4.70
   2 -12   4   59.29    4.20
   2 -12   4   52.09    4.00
   2 -12   4   58.09    3.90
   3 -12   4    5.50    1.70
   3 -12   4    3.00    2.00
   3 -12   4    7.60    2.20
   4 -12   4   22.30    4.40
   4 -12   4   18.50    3.50
   4 -12   4   20.70    3.10
   5 -12   4    0.80    2.30
   5 -12   4    0.30    1.90
   5 -12   4   -0.70    1.30
  -5 -11   4   35.30    4.90
  -5 -11   4   40.20    5.30
   4  11  -4    9.60    3.60
  -4 -11   4   13.20    2.80
   3  11  -4   58.69    3.80
   3  11  -4   85.69    9.60
  -3 -11   4   64.59    4.30
  -3 -11   4   70.89    5.10
   2  11  -4  296.77   12.90
   2  11  -4  295.37    8.90
  -2 -11   4  287.97   10.80
  -2 -11   4  294.17    9.20
   1  11  -4  390.36   14.40
   1  11  -4  372.86   10.30
  -1 -11   4  373.06   12.40
  -1 -11   4  373.66   10.20
   0  11  -4  192.18    8.80
   0 -11   4  176.78    6.30
   0 -11   4  182.58    7.50
   0 -11   4  183.48    5.90
  -1  11  -4   41.60    4.50
   1 -11   4   40.80    3.00
   1 -11   4   37.40    4.30
   1 -11   4   42.60    3.40
   1 -11   4   42.40    2.80
  -2  11  -4   50.59    4.30
   2 -11   4   52.99    3.80
   2 -11   4   58.29    4.00
   2 -11   4   59.39    4.80
   2 -11   4   57.49    4.00
   3 -11   4  270.27   11.70
   3 -11   4  301.27   11.20
   3 -11   4  278.17   10.00
  -4  11  -4  143.09    8.80
   4 -11   4  145.19    6.70
   4 -11   4  147.29    8.80
   4 -11   4  140.99    8.20
  -5  11  -4    4.40    3.00
   5 -11   4    6.90    2.90
   5 -11   4    2.90    2.60
   5 -11   4    2.90    1.50
   5  10  -4   19.80    5.10
  -5 -10   4   10.80    3.20
  -5 -10   4   15.50    3.30
   4  10  -4   58.69    7.10
  -4 -10   4   55.79    4.70
  -4 -10   4   58.69    4.80
   3  10  -4  228.18   11.60
   3  10  -4  217.78    8.10
  -3 -10   4  227.98    8.70
  -3 -10   4  233.28    9.40
   2  10  -4   45.20    5.60
   2  10  -4   46.90    2.90
  -2 -10   4   45.90    3.70
  -2 -10   4   46.60    3.00
   1  10  -4   18.70    1.90
   1  10  -4   19.90    2.60
   1  10  -4   24.70    3.80
  -1 -10   4   15.90    2.90
  -1 -10   4   23.90    2.20
  -1 -10   4   18.10    2.50
   0  10  -4  175.88    7.90
   0  10  -4  153.88    5.50
   0 -10   4  163.68    7.60
   0 -10   4  164.88    7.90
   0 -10   4  162.48    6.80
   0 -10   4  170.78    5.50
  -1  10  -4   12.00    2.50
   1 -10   4   13.00    2.00
   1 -10   4   13.60    1.90
   1 -10   4   10.20    2.40
   1 -10   4   13.30    2.50
   1 -10   4   10.10    1.90
  -2  10  -4   32.70    3.80
   2 -10   4   32.70    3.50
   2 -10   4   44.90    4.70
   2 -10   4   38.70    4.00
   2 -10   4   40.20    4.40
   2 -10   4   39.70    3.20
   2 -10   4   35.80    3.00
   3 -10   4   37.50    4.50
   3 -10   4   29.70    3.60
   3 -10   4   37.90    4.40
   3 -10   4   39.70    3.20
  -4  10  -4  201.18   12.90
   4 -10   4  239.68    8.80
   4 -10   4  251.07   11.20
  -5  10  -4    2.00    2.50
   5 -10   4   -0.20    2.10
   5 -10   4    1.80    1.40
   5   9  -4   -1.10    2.70
  -5  -9   4    2.10    2.00
  -5  -9   4   -0.60    1.50
   4   9  -4   17.60    4.10
  -4  -9   4   18.60    3.10
  -4  -9   4   24.30    3.70
   3   9  -4  303.97   10.30
   3   9  -4  322.17   13.80
  -3  -9   4  325.37   11.20
  -3  -9   4  305.97   10.70
   2   9  -4  189.08    7.30
   2   9  -4  167.88    6.20
   2   9  -4  172.98    8.90
  -2  -9   4  185.28    7.40
  -2  -9   4  174.48    6.50
   1   9  -4  313.17   11.80
   1   9  -4  295.87   10.00
   1   9  -4  309.17    8.70
  -1  -9   4  317.37    8.80
  -1  -9   4  303.67   10.10
  -1  -9   4  314.17   11.00
  -1  -9   4  303.67   11.70
   0   9  -4   35.50    2.30
   0   9  -4   40.80    4.30
   0  -9   4   38.90    2.20
   0  -9   4   31.10    3.70
   0  -9   4   37.40    4.20
  -1   9  -4   40.40    3.40
   1  -9   4   43.00    3.50
   1  -9   4   44.90    3.60
   1  -9   4   40.10    2.70
   1  -9   4   42.00    3.00
   2  -9   4   64.29    5.60
   2  -9   4   81.89    4.90
   2  -9   4   84.09    5.50
   2  -9   4   87.99    5.10
   2  -9   4   81.39    4.30
   2  -9   4   85.59    5.30
  -3   9  -4  211.28    9.50
  -3   9  -4  222.28    8.80
   3  -9   4  209.48    9.00
   3  -9   4  205.98    9.20
   3  -9   4  228.48    8.80
   3  -9   4  214.68    9.00
  -4   9  -4    9.50    2.30
  -4   9  -4    7.20    2.70
   4  -9   4    7.40    2.00
   4  -9   4    1.90    1.70
  -5   9  -4   14.10    3.70
   5  -9   4   21.00    4.10
   5  -9   4   19.00    2.70
   5   8  -4   15.00    4.50
  -5  -8   4   10.80    2.60
  -5  -8   4   17.10    3.70
  -4  -8   4  505.95   15.70
  -4  -8   4  517.55   16.80
   3   8  -4    3.50    2.30
   3   8  -4    2.50    1.30
   3   8  -4    2.90    1.30
  -3  -8   4    4.90    1.60
  -3  -8   4    3.10    1.50
   2   8  -4  583.24   18.30
   2   8  -4  538.25   14.60
   2   8  -4  539.55   15.30
  -2  -8   4  551.24   15.60
  -2  -8   4  549.05   14.90
  -2  -8   4  523.95   17.80
   1   8  -4  210.78    7.50
   1   8  -4  213.98    6.60
  -1  -8   4  220.78    6.70
  -1  -8   4  218.38    9.10
  -1  -8   4  200.38    7.40
  -1  -8   4  212.78    8.30
   0   8  -4  169.58    5.50
   0   8  -4  166.68    7.20
   0  -8   4  157.68    6.20
   0  -8   4  154.08    7.00
   0  -8   4  169.78    7.00
   0  -8   4  166.68    5.40
  -1   8  -4  440.06   13.20
   1  -8   4  446.36   12.60
   1  -8   4  434.26   12.60
   1  -8   4  439.76   13.40
   1  -8   4  437.16   12.10
   1  -8   4  428.26   13.20
  -2   8  -4    1.30    1.10
   2  -8   4    0.50    0.90
   2  -8   4    1.50    1.10
   2  -8   4   -0.10    0.80
   2  -8   4    1.20    1.00
   2  -8   4    0.70    1.10
  -3   8  -4   48.30    5.20
  -3   8  -4   44.90    5.20
   3  -8   4   44.00    5.20
  -4   8  -4   34.90    3.90
  -4   8  -4   41.10    5.20
   4  -8   4   35.60    4.60
   4  -8   4   37.80    3.90
  -5   8  -4   11.10    2.60
  -5   8  -4    8.50    3.30
   5  -8   4    7.30    2.80
  -6   8  -4   -0.80    2.40
   6  -8   4    2.20    2.60
   5   7  -4    6.80    3.60
  -5  -7   4    4.90    2.50
  -5  -7   4    8.40    2.20
   4   7  -4    9.40    2.30
   4   7  -4    9.80    3.40
  -4  -7   4   16.30    2.60
  -4  -7   4   10.30    2.50
   3   7  -4   75.69    4.30
   3   7  -4   84.89    6.60
   3   7  -4   70.19    4.00
  -3  -7   4   72.39    4.30
  -3  -7   4   77.99    4.70
   2   7  -4  128.79    5.40
   2   7  -4  131.19    5.20
   2   7  -4  138.69    7.50
  -2  -7   4  133.39    7.20
  -2  -7   4  134.89    5.60
  -2  -7   4  138.09    5.50
   1   7  -4   34.30    2.10
   1   7  -4   33.90    3.80
  -1  -7   4   33.40    3.70
  -1  -7   4   37.80    2.30
  -1  -7   4   41.10    3.10
  -1  -7   4   35.10    2.60
   0   7  -4  212.98    6.40
   0   7  -4  198.68    7.80
   0  -7   4  204.48    7.00
   0  -7   4  209.48    7.90
   0  -7   4  211.08    6.40
   0  -7   4  216.38    7.80
  -1   7  -4  273.47    9.20
  -1   7  -4  270.97    8.80
   1  -7   4  261.87    8.20
   1  -7   4  271.87    9.10
   1  -7   4  264.47    8.90
   1  -7   4  257.27    8.60
  -2   7  -4   42.00    3.90
   2  -7   4   38.10    3.10
   2  -7   4   37.90    2.90
   2  -7   4   40.00    3.10
   2  -7   4   40.60    3.20
   2  -7   4   40.30    3.20
  -3   7  -4  222.28    9.80
  -3   7  -4  240.38    8.90
   3  -7   4  231.28    8.60
   3  -7   4  251.67    9.40
   3  -7   4  240.08    8.80
  -4   7  -4   51.19    5.90
  -4   7  -4   53.89    4.10
   4  -7   4   54.89    4.80
   4  -7   4   52.19    3.90
   4  -7   4   56.59    4.40
  -5   7  -4  117.49    6.30
  -5   7  -4  120.99    8.70
   5  -7   4  141.99    8.30
  -6   7  -4   -1.20    2.20
   6  -7   4   -0.30    2.30
   6   6  -4    1.30    3.20
  -6  -6   4    0.90    2.60
   5   6  -4   37.20    4.90
   5   6  -4   34.10    5.80
  -5  -6   4   48.50    6.00
  -5  -6   4   40.40    4.00
  -5  -6   4   38.50    4.10
   4   6  -4   61.59    3.80
   4   6  -4   67.09    7.00
  -4  -6   4   76.59    5.40
  -4  -6   4   59.09    4.00
   3   6  -4  379.46   14.40
   3   6  -4  357.86   10.90
   3   6  -4  347.27   11.50
  -3  -6   4  371.56   11.30
  -3  -6   4  395.36   12.40
   2   6  -4    1.70    0.90
   2   6  -4    0.00    1.30
   2   6  -4   -0.20    0.60
  -2  -6   4   -0.50    1.00
  -2  -6   4    0.60    0.80
  -2  -6   4   -0.20    0.70
   1   6  -4   71.89    3.20
   1   6  -4   73.09    4.60
  -1  -6   4   69.59    3.90
  -1  -6   4   71.99    3.50
  -1  -6   4   73.19    3.20
  -1  -6   4   65.09    4.40
   0   6  -4  427.36   11.40
   0   6  -4  451.75   12.80
   0  -6   4  437.16   12.60
   0  -6   4  442.86   11.90
   0  -6   4  430.86   11.30
   0  -6   4  442.56   12.90
  -1   6  -4   14.40    1.80
  -1   6  -4   12.30    2.10
   1  -6   4   16.80    2.00
   1  -6   4   14.20    2.00
   1  -6   4   15.70    2.20
   1  -6   4   11.30    1.70
  -2   6  -4    8.90    1.80
  -2   6  -4    4.60    1.40
   2  -6   4    6.20    1.40
   2  -6   4    9.10    1.70
   2  -6   4    5.20    1.50
   2  -6   4    7.80    1.80
   2  -6   4    6.40    1.50
  -3   6  -4  296.67   11.30
  -3   6  -4  283.47    9.80
   3  -6   4  289.97    9.70
   3  -6   4  277.57    9.60
   3  -6   4  304.67   10.30
  -4   6  -4   13.30    2.40
  -4   6  -4   17.00    3.70
   4  -6   4   18.60    3.30
   4  -6   4   18.20    2.70
   4  -6   4   18.80    2.90
  -5   6  -4   42.10    5.90
  -5   6  -4   31.40    3.70
   5  -6   4   35.60    4.20
   5  -6   4   46.70    5.60
  -6   6  -4    4.00    3.30
  -6   6  -4    8.20    2.40
   6   5  -4    2.60    5.00
  -6  -5   4    2.60    2.70
   5   5  -4   94.29    8.30
  -5  -5   4   91.99    7.00
   4   5  -4    1.10    0.90
   4   5  -4    1.90    2.20
  -4  -5   4    0.40    1.40
  -4  -5   4   -1.00    0.80
   3   5  -4   71.59    4.30
   3   5  -4   88.89    6.40
   3   5  -4   81.09    3.80
  -3  -5   4   79.29    4.00
  -3  -5   4   87.19    5.00
   2   5  -4  278.57    8.60
   2   5  -4  282.37    8.30
   2   5  -4  283.37   10.80
  -2  -5   4  276.87    8.90
  -2  -5   4  274.17   10.60
  -2  -5   4  268.57    8.30
   1   5  -4  271.77    9.70
   1   5  -4  272.27    8.00
  -1  -5   4  284.87    8.10
  -1  -5   4  275.47    9.60
  -1  -5   4  303.37    8.30
  -1  -5   4  287.27    8.80
   0   5  -4  213.28    6.50
   0   5  -4  224.98    7.50
   0   5  -4  228.08    7.50
   0  -5   4  232.38    6.60
   0  -5   4  217.88    7.30
   0  -5   4  223.08    7.50
  -1   5  -4  112.89    4.30
  -1   5  -4  111.29    4.80
   1  -5   4  111.49    4.50
   1  -5   4  114.99    4.40
   1  -5   4  112.49    4.80
   1  -5   4  119.19    4.90
  -2   5  -4  412.16   12.30
  -2   5  -4  419.86   13.00
   2  -5   4  417.46   11.80
   2  -5   4  419.86   11.50
   2  -5   4  425.86   12.80
   2  -5   4  407.36   12.20
  -3   5  -4    5.10    1.60
  -3   5  -4    1.70    1.40
   3  -5   4    6.90    1.50
   3  -5   4    5.10    1.60
   3  -5   4    5.90    1.50
  -4   5  -4  118.39    7.40
  -4   5  -4  110.19    5.80
   4  -5   4  108.99    5.50
   4  -5   4  104.59    6.20
  -5   5  -4   60.89    6.90
  -5   5  -4   81.39    5.10
   5  -5   4   73.69    5.40
   5  -5   4   79.29    6.10
  -6   5  -4   -1.60    1.90
  -6   5  -4   -0.80    1.50
   6  -5   4   -1.30    1.90
   6   4  -4   -2.20    2.70
  -6  -4   4    5.00    3.30
   5   4  -4   97.19    8.50
  -5  -4   4   90.09    4.60
  -5  -4   4  104.99    4.70
  -5  -4   4  116.89    7.80
   4   4  -4  137.79    5.20
   4   4  -4  135.59    8.90
  -4  -4   4  148.59    5.70
  -4  -4   4  153.38    7.90
   3   4  -4    5.50    1.40
   3   4  -4    3.40    2.10
   3   4  -4    5.50    1.10
  -3  -4   4    9.20    1.50
  -3  -4   4    5.10    1.50
  -3  -4   4    3.60    1.80
   2   4  -4    6.70    1.20
   2   4  -4    6.20    1.30
   2   4  -4   10.70    2.60
  -2  -4   4    9.60    1.60
  -2  -4   4   10.20    1.40
  -2  -4   4    8.50    2.20
  -2  -4   4    8.20    1.60
   1   4  -4   37.90    3.20
   1   4  -4   35.90    2.20
  -1  -4   4   35.80    2.90
  -1  -4   4   40.40    2.50
  -1  -4   4   37.30    2.20
  -1  -4   4   38.20    2.20
   0   4  -4  130.89    4.90
   0   4  -4  128.89    4.80
   0  -4   4  129.49    4.90
   0  -4   4  127.09    4.80
   0  -4   4  125.89    4.30
  -1   4  -4 1397.76   32.50
  -1   4  -4 1347.77   31.10
   1  -4   4 1361.96   32.00
   1  -4   4 1366.06   31.30
   1  -4   4 1378.96   32.50
   1  -4   4 1348.07   32.30
  -2   4  -4  616.44   16.80
  -2   4  -4  630.24   17.60
   2  -4   4  615.44   16.60
   2  -4   4  644.74   16.00
   2  -4   4  636.44   17.40
   2  -4   4  616.34   15.60
  -3   4  -4  286.47    9.70
  -3   4  -4  293.67   11.00
   3  -4   4  288.87    9.50
   3  -4   4  284.47    9.50
   3  -4   4  289.67   10.70
   3  -4   4  287.27    9.10
  -4   4  -4  293.17   10.40
  -4   4  -4  282.47   10.00
  -4   4  -4  287.87   12.10
   4  -4   4  289.77   10.80
   4  -4   4  273.27    9.70
  -5   4  -4   -0.50    1.80
  -5   4  -4    1.80    1.50
   5  -4   4    1.00    1.60
  -6   4  -4   29.70    5.60
  -6   4  -4   20.60    3.20
   6  -4   4   17.90    3.90
   6   3  -4    2.30    3.50
  -6  -3   4    2.30    3.80
   5   3  -4   24.90    5.20
  -5  -3   4   36.10    2.50
  -5  -3   4   33.60    2.30
  -5  -3   4   36.50    5.20
   4   3  -4    3.60    1.00
   4   3  -4    4.50    2.60
  -4  -3   4    2.40    1.00
  -4  -3   4    2.50    1.10
  -4  -3   4    4.50    2.00
   3   3  -4  183.18    9.00
   3   3  -4  184.48    7.30
   3   3  -4  181.08    5.70
  -3  -3   4  187.78    5.80
  -3  -3   4  175.48    7.60
  -3  -3   4  175.48    8.50
   2   3  -4  132.29    6.50
   2   3  -4  127.99    5.10
  -2  -3   4  122.59    6.20
  -2  -3   4  129.69    4.30
  -2  -3   4  128.79    5.40
  -2  -3   4  123.19    5.10
   1   3  -4  269.07    7.80
   1   3  -4  289.77    9.20
  -1  -3   4  275.37    7.40
  -1  -3   4  283.27    7.90
  -1  -3   4  268.07    8.90
  -1  -3   4  270.07    7.90
   0   3  -4  105.19    4.10
   0   3  -4   97.99    3.90
   0   3  -4  107.49    3.80
   0  -3   4   97.49    3.70
   0  -3   4  100.49    3.90
   0  -3   4  110.49    4.60
  -1   3  -4  366.76   10.40
   1  -3   4  365.56    9.10
   1  -3   4  360.56   10.30
   1  -3   4  368.76   10.60
   1  -3   4  372.56   10.20
  -2   3  -4   13.00    2.20
  -2   3  -4   16.90    2.30
   2  -3   4   13.60    1.90
   2  -3   4   15.60    1.70
   2  -3   4   17.00    2.40
   2  -3   4   16.80    1.60
  -3   3  -4  415.26   11.90
  -3   3  -4  417.06   12.70
  -3   3  -4  405.76   13.80
   3  -3   4  433.26   12.40
   3  -3   4  397.96   13.40
   3  -3   4  417.06   12.40
  -4   3  -4   46.60    5.50
  -4   3  -4   42.20    3.50
  -4   3  -4   49.60    3.80
   4  -3   4   41.00    3.30
   4  -3   4   39.60    4.10
  -5   3  -4    6.70    2.10
  -5   3  -4    3.30    2.40
   5  -3   4    5.60    2.10
  -6   3  -4   -1.20    2.40
  -6   3  -4   -0.10    1.60
   6  -3   4   -2.00    1.90
   6   2  -4    0.30    3.00
  -6  -2   4    1.60    3.80
   5   2  -4    0.50    2.30
  -5  -2   4   -1.80    1.60
   4   2  -4  236.88   11.70
  -4  -2   4  268.87   10.90
  -4  -2   4  252.57    7.10
  -4  -2   4  252.07    7.20
   3   2  -4   43.50    5.00
   3   2  -4   37.30    3.20
  -3  -2   4   46.00    2.20
  -3  -2   4   49.70    2.40
  -3  -2   4   47.80    5.00
  -3  -2   4   48.40    3.70
   2   2  -4  447.06   12.60
   2   2  -4  455.55   14.40
  -2  -2   4  454.85   12.90
  -2  -2   4  458.05   11.40
  -2  -2   4  438.96   13.90
  -2  -2   4  453.95   11.00
   1   2  -4   40.20    3.00
   1   2  -4   42.70    2.40
   1   2  -4   47.50    2.30
  -1  -2   4   49.20    3.10
  -1  -2   4   44.00    2.50
  -1  -2   4   43.60    2.20
   0   2  -4  152.48    5.00
   0   2  -4  149.69    4.70
   0   2  -4  143.19    4.70
   0  -2   4  145.39    4.70
   0  -2   4  142.09    4.80
   0  -2   4  151.68    4.70
  -1   2  -4    2.60    1.00
   1  -2   4    3.10    0.40
   1  -2   4    2.00    0.90
   1  -2   4    2.40    0.40
   1  -2   4    0.00    0.70
   1  -2   4    2.60    1.00
  -2   2  -4   85.79    3.20
  -2   2  -4   89.99    4.70
  -2   2  -4   81.99    4.20
   2  -2   4   84.59    3.30
   2  -2   4   86.29    4.10
   2  -2   4   86.59    4.50
  -3   2  -4  141.69    7.00
  -3   2  -4  140.49    6.10
  -3   2  -4  132.69    5.40
   3  -2   4  140.89    5.80
   3  -2   4  132.29    6.50
   3  -2   4  134.49    5.70
  -4   2  -4    1.70    1.30
  -4   2  -4    1.00    1.70
  -4   2  -4    0.40    1.20
   4  -2   4    1.40    1.40
   4  -2   4    1.40    1.10
  -5   2  -4  173.78   10.00
  -5   2  -4  153.98    7.50
   5  -2   4  157.78    8.30
  -6   2  -4    8.50    4.40
  -6   2  -4   11.40    2.80
   6  -2   4    7.00    3.10
   6   1  -4   -1.60    2.60
  -6  -1   4    3.70    4.20
   5   1  -4    1.70    2.40
  -5  -1   4    2.30    2.10
   4   1  -4  109.89    7.70
  -4  -1   4  103.79    6.50
   3   1  -4   26.50    4.20
   3   1  -4   32.40    3.50
  -3  -1   4   31.30    3.50
  -3  -1   4   30.00    4.00
  -3  -1   4   27.10    1.40
   2   1  -4    2.50    1.00
   2   1  -4    2.70    1.60
  -2  -1   4    4.20    1.30
  -2  -1   4    6.80    1.80
  -2  -1   4    4.50    0.70
   1   1  -4   84.09    3.40
   1   1  -4   79.39    4.10
   1   1  -4   82.39    2.90
  -1  -1   4   77.39    4.00
  -1  -1   4   75.69    2.80
   0   1  -4  498.25   12.10
   0   1  -4  489.45   12.30
   0   1  -4  488.35   12.00
   0  -1   4  491.15   12.00
   0  -1   4  489.65   12.10
   0  -1   4  476.35   12.20
  -1   1  -4  278.87    8.10
   1  -1   4  251.47    7.80
   1  -1   4  267.37    7.80
   1  -1   4  267.97    8.10
  -2   1  -4 1029.60   26.30
  -2   1  -4 1060.99   25.80
  -2   1  -4 1059.39   24.10
   2  -1   4 1030.80   26.00
   2  -1   4 1014.60   25.50
   2  -1   4 1058.19   24.30
  -3   1  -4    8.20    1.70
  -3   1  -4   10.80    1.80
  -3   1  -4    7.60    2.10
   3  -1   4    8.20    2.00
   3  -1   4    8.40    1.70
   3  -1   4    7.70    1.60
  -4   1  -4   30.10    4.30
  -4   1  -4   27.30    3.20
  -4   1  -4   40.10    4.20
   4  -1   4   35.80    3.60
   4  -1   4   30.60    3.60
  -5   1  -4   81.29    6.80
  -5   1  -4   75.39    5.30
   5  -1   4   75.69    5.80
  -6   1  -4    2.10    1.90
   6  -1   4   -1.30    2.10
   6   0  -4    2.20    3.10
  -6   0   4    1.70    2.70
   5   0  -4    0.60    2.50
  -5   0   4    2.40    1.90
   4   0  -4    3.40    2.20
  -4   0   4    4.10    2.10
   3   0  -4   95.59    6.20
   3   0  -4   77.29    4.50
  -3   0   4   76.89    4.80
  -3   0   4   91.49    5.80
   2   0  -4  475.05   14.90
   2   0  -4  476.65   13.20
  -2   0   4  484.55   14.60
  -2   0   4  490.25   13.60
  -1   0   4 2451.85   56.19
  -1   0   4 2481.95   54.19
   0   0  -4  743.73   17.30
   0   0  -4  722.93   17.20
   0   0  -4  741.63   17.50
   0   0   4  719.83   17.20
   0   0   4  712.63   17.20
   0   0   4  735.03   17.50
  -1   0  -4 1067.59   23.90
  -1   0  -4 1102.49   26.00
   1   0   4 1076.89   23.80
   1   0   4 1093.39   25.50
   1   0   4 1081.49   25.80
   1   0   4 1061.19   25.70
  -2   0  -4  484.35   13.70
  -2   0  -4  491.25   12.30
  -2   0  -4  468.95   13.90
   2   0   4  471.15   13.30
   2   0   4  487.95   12.20
  -3   0  -4   21.80    3.20
  -3   0  -4   26.20    2.70
  -3   0  -4   24.20    2.90
   3   0   4   25.90    3.40
   3   0   4   24.60    2.80
   3   0   4   27.20    2.80
  -4   0  -4  141.19    6.70
  -4   0  -4  162.18    8.40
  -4   0  -4  161.58    7.40
   4   0   4  161.68    7.30
   4   0   4  150.88    6.80
  -5   0  -4   11.80    3.50
  -5   0  -4   15.20    3.00
   5   0   4   17.80    3.30
  -6   0  -4    4.70    2.20
   6   0   4    3.70    2.70
   6  -1  -4   -0.40    2.60
  -6   1   4    1.00    2.20
   5  -1  -4   53.09    7.00
  -5   1   4   47.60    5.90
   4  -1  -4    3.60    2.20
  -4   1   4    0.20    1.40
   3  -1  -4   10.20    2.60
   3  -1  -4    6.80    1.60
  -3   1   4   10.00    2.50
  -3   1   4   13.00    2.50
   2  -1  -4   28.70    3.50
   2  -1  -4   30.70    2.80
  -2   1   4   25.40    2.70
  -2   1   4   18.70    2.80
   1  -1  -4   12.70    2.00
   1  -1  -4   11.40    1.40
   1  -1  -4   12.40    1.10
  -1   1   4   10.20    1.40
  -1   1   4   15.20    2.10
  -1   1   4   13.40    1.00
   0  -1  -4   95.39    3.30
   0  -1  -4   90.79    3.60
   0  -1  -4   94.89    3.60
   0   1   4   92.59    3.30
   0   1   4   87.29    3.50
   0   1   4   96.29    3.50
  -1  -1  -4  120.59    4.80
  -1  -1  -4  117.19    3.70
   1   1   4  119.09    4.60
   1   1   4  119.09    3.90
   1   1   4  123.59    5.00
   1   1   4  118.39    4.30
  -2  -1  -4  187.38    6.10
  -2  -1  -4  198.58    7.20
  -2  -1  -4  204.58    7.30
   2   1   4  181.58    6.80
   2   1   4  182.68    6.80
   2   1   4  188.98    6.00
  -3  -1  -4   34.30    4.00
  -3  -1  -4   30.20    2.60
   3   1   4   32.20    2.80
   3   1   4   29.40    3.50
   3   1   4   21.90    2.90
  -4  -1  -4    0.50    1.50
  -4  -1  -4   -1.00    1.00
  -4  -1  -4    0.30    1.30
   4   1   4   -1.20    1.10
  -5  -1  -4   11.50    2.70
  -5  -1  -4    8.10    3.10
   5   1   4    9.30    2.70
  -6  -1  -4   17.40    3.50
   6   1   4   19.40    3.90
   6  -2  -4   -1.30    2.50
  -6   2   4    1.60    2.80
   5  -2  -4    1.80    2.70
  -5   2   4   -1.00    1.30
   4  -2  -4   21.90    4.10
  -4   2   4   21.50    3.80
   3  -2  -4   -0.90    1.10
   3  -2  -4    0.40    1.10
  -3   2   4    0.30    1.30
  -3   2   4    0.20    1.00
   2  -2  -4  811.12   22.30
   2  -2  -4  799.52   20.30
  -2   2   4  776.52   21.60
  -2   2   4  796.12   20.50
   1  -2  -4  678.93   15.90
   1  -2  -4  688.13   18.00
   1  -2  -4  643.44   16.40
  -1   2   4  700.13   16.70
  -1   2   4  658.53   17.70
  -1   2   4  671.73   15.70
   0  -2  -4  767.22   18.20
   0  -2  -4  770.32   18.80
   0  -2  -4  794.82   19.00
   0  -2  -4  781.02   19.00
   0   2   4  781.02   19.30
   0   2   4  780.32   18.20
  -1  -2  -4    9.40    1.30
  -1  -2  -4    9.00    1.60
   1   2   4   11.80    1.80
   1   2   4    8.50    1.20
   1   2   4   11.30    1.70
   1   2   4    8.80    1.20
  -2  -2  -4   30.70    3.10
  -2  -2  -4   41.00    3.00
   2   2   4   37.10    2.80
   2   2   4   36.10    2.50
   2   2   4   33.10    2.60
  -3  -2  -4    0.50    1.10
  -3  -2  -4    0.10    1.20
  -3  -2  -4   -0.10    0.80
   3   2   4    0.80    1.10
   3   2   4   -0.30    0.90
   3   2   4   -0.30    0.80
  -4  -2  -4  128.89    7.40
  -4  -2  -4  138.99    7.10
  -4  -2  -4  128.29    6.60
  -5  -2  -4    8.40    2.90
  -5  -2  -4    9.20    2.50
   5   2   4    9.30    2.60
  -6  -2  -4    1.70    2.10
   6   2   4    2.30    2.40
   6  -3  -4    0.60    3.00
  -6   3   4    2.80    2.70
   5  -3  -4   43.80    6.60
  -5   3   4   30.40    4.70
   4  -3  -4   13.20    3.60
  -4   3   4   14.40    3.30
   3  -3  -4    1.90    1.70
   3  -3  -4    2.10    1.20
  -3   3   4    0.50    1.30
  -3   3   4    2.30    1.30
   2  -3  -4   75.69    3.90
   2  -3  -4   70.39    2.10
   2  -3  -4   76.49    2.20
   2  -3  -4   74.99    4.90
  -2   3   4   67.89    3.90
  -2   3   4   67.99    4.50
   1  -3  -4  119.59    5.40
   1  -3  -4  113.89    3.80
   1  -3  -4  105.39    4.00
  -1   3   4  111.89    4.20
  -1   3   4  110.69    3.70
  -1   3   4  114.99    5.10
   0  -3  -4  551.64   14.40
   0  -3  -4  545.55   13.20
   0  -3  -4  569.14   14.60
   0  -3  -4  543.15   14.20
   0   3   4  550.64   14.20
   0   3   4  562.94   13.30
  -1  -3  -4 1579.54   38.50
  -1  -3  -4 1688.33   38.40
   1   3   4 1638.54   36.80
   1   3   4 1601.44   37.40
   1   3   4 1632.24   38.10
   1   3   4 1611.24   37.10
  -2  -3  -4  322.27   10.30
  -2  -3  -4  308.57    9.80
  -2  -3  -4  303.67    9.60
   2   3   4  306.87    9.40
   2   3   4  304.77    9.30
   2   3   4  305.87    9.90
   2   3   4  306.17    9.40
  -3  -3  -4   69.69    4.60
  -3  -3  -4   67.39    4.50
  -3  -3  -4   57.79    4.00
   3   3   4   63.09    4.20
   3   3   4   69.79    4.30
   3   3   4   67.49    4.20
  -4  -3  -4   44.60    4.70
  -4  -3  -4   48.10    4.90
  -4  -3  -4   43.20    5.10
   4   3   4   50.09    4.30
  -5  -3  -4    0.40    1.50
  -5  -3  -4   -2.00    1.40
   5   3   4    0.40    1.70
  -6  -3  -4    1.00    2.20
   6   3   4    0.30    2.30
   6  -4  -4   -1.70    2.60
  -6   4   4   -0.10    2.20
   5  -4  -4   -0.10    2.20
  -5   4   4   -0.40    1.90
   4  -4  -4    9.70    3.10
  -4   4   4   12.00    3.20
   3  -4  -4   85.89    5.30
   3  -4  -4   81.39    6.10
  -3   4   4   82.39    5.10
   2  -4  -4  436.76   14.70
   2  -4  -4  397.26   10.00
   2  -4  -4  396.96   11.70
  -2   4   4  409.66    9.80
  -2   4   4  428.86   12.30
  -2   4   4  407.76   13.40
   1  -4  -4  253.27    8.70
   1  -4  -4  257.27    9.10
   1  -4  -4  253.97    7.40
   1  -4  -4  252.17    7.30
  -1   4   4  261.97    7.60
   0  -4  -4  347.77   10.00
   0  -4  -4  349.87    8.70
   0  -4  -4  347.97   10.40
   0   4   4  349.37   10.30
   0   4   4  349.57    9.80
   0   4   4  338.27    8.60
  -1  -4  -4  905.81   22.80
  -1  -4  -4  891.51   22.50
   1   4   4  868.01   20.80
   1   4   4  892.91   21.10
   1   4   4  902.31   22.20
   1   4   4  902.71   22.60
  -2  -4  -4  112.29    5.80
  -2  -4  -4  106.09    5.10
   2   4   4  110.39    5.10
   2   4   4  113.29    4.70
   2   4   4  105.89    4.50
  -3  -4  -4  145.99    7.00
  -3  -4  -4  166.68    7.60
  -3  -4  -4  161.98    7.30
   3   4   4  165.18    6.90
   3   4   4  171.58    7.30
  -4  -4  -4   17.50    3.10
  -4  -4  -4   21.90    3.50
  -4  -4  -4   21.90    3.60
   4   4   4   20.50    3.40
  -5  -4  -4   -0.60    1.90
  -5  -4  -4   -1.20    1.60
   5   4   4    0.30    1.60
   6  -5  -4    2.50    5.80
  -6   5   4    4.70    3.00
   5  -5  -4    5.00    3.10
  -5   5   4    7.70    3.00
   4  -5  -4    0.30    2.10
  -4   5   4   -0.70    1.50
   3  -5  -4   27.60    4.20
  -3   5   4   40.40    4.10
   2  -5  -4   95.99    5.50
   2  -5  -4   97.99    4.50
   2  -5  -4  101.49    3.60
   2  -5  -4  102.69    6.10
  -2   5   4  101.89    3.40
  -2   5   4   95.89    5.60
  -2   5   4  106.99    4.90
   1  -5  -4  407.16   10.90
   1  -5  -4  409.96   12.50
   1  -5  -4  404.36   12.90
   1  -5  -4  395.06   10.50
  -1   5   4  397.06   10.70
  -1   5   4  398.36   10.60
   0  -5  -4  554.74   13.10
   0  -5  -4  544.65   14.80
   0  -5  -4  551.24   15.40
   0   5   4  545.35   13.00
   0   5   4  568.74   14.70
   0   5   4  545.55   15.20
  -1  -5  -4    0.30    0.80
  -1  -5  -4    0.90    1.00
   1   5   4    0.50    0.80
   1   5   4    0.00    0.70
   1   5   4    0.40    0.50
   1   5   4    0.80    0.50
  -2  -5  -4  456.25   13.90
  -2  -5  -4  419.66   13.30
   2   5   4  423.76   13.20
   2   5   4  436.96   12.10
   2   5   4  459.85   13.50
   2   5   4  439.76   12.10
  -3  -5  -4    7.30    2.10
  -3  -5  -4    5.30    1.90
  -3  -5  -4    9.50    2.20
   3   5   4    7.30    2.00
  -4  -5  -4    2.30    1.80
  -4  -5  -4    2.60    1.90
   4   5   4    2.30    1.70
  -5  -5  -4    3.90    2.30
  -5  -5  -4    2.60    2.40
   5   5   4    7.30    2.70
   6  -6  -4    1.50    3.30
  -6   6   4    3.40    3.00
   5  -6  -4   14.00    4.40
  -5   6   4   32.20    5.40
   4  -6  -4    2.10    2.30
  -4   6   4    2.70    1.80
   3  -6  -4    0.60    1.60
   3  -6  -4    1.00    0.50
  -3   6   4    2.80    1.50
   2  -6  -4   15.10    3.00
   2  -6  -4   15.50    2.10
   2  -6  -4    8.10    2.00
   2  -6  -4   10.40    1.40
  -2   6   4    7.90    1.70
  -2   6   4    8.60    1.20
   1  -6  -4   53.29    3.00
   1  -6  -4   48.80    3.70
   1  -6  -4   49.10    2.40
   1  -6  -4   45.80    3.80
  -1   6   4   45.70    2.50
  -1   6   4   48.60    2.70
   0  -6  -4   12.10    2.10
   0  -6  -4   15.00    1.10
   0  -6  -4   17.90    2.30
   0   6   4   16.40    2.10
   0   6   4   15.40    2.30
   0   6   4   18.40    1.10
  -1  -6  -4  726.93   21.60
  -1  -6  -4  773.22   20.90
   1   6   4  766.52   17.80
   1   6   4  778.32   20.60
   1   6   4  758.12   17.60
  -2  -6  -4   79.49    4.90
  -2  -6  -4   69.79    4.60
   2   6   4   72.19    3.40
   2   6   4   69.99    4.50
   2   6   4   78.69    3.60
   2   6   4   72.69    5.00
  -3  -6  -4   33.60    4.20
  -3  -6  -4   45.70    5.00
   3   6   4   43.20    4.70
   3   6   4   36.30    3.50
  -4  -6  -4    5.50    2.30
  -4  -6  -4    6.00    2.20
   4   6   4    6.10    2.20
  -5  -6  -4    2.20    2.00
  -5  -6  -4    1.30    1.90
   5   6   4    2.60    2.20
   5  -7  -4    7.80    3.60
  -5   7   4   10.60    3.40
   4  -7  -4    4.30    2.80
  -4   7   4    1.60    1.70
   3  -7  -4    0.40    0.50
   3  -7  -4    0.70    0.70
   3  -7  -4    0.10    1.70
  -3   7   4    2.00    1.50
   2  -7  -4    5.10    1.20
   2  -7  -4    4.70    1.30
   2  -7  -4    3.20    1.80
  -2   7   4    6.80    1.20
  -2   7   4    5.70    1.50
   1  -7  -4  280.47   10.60
   1  -7  -4  301.97    9.20
   1  -7  -4  309.37   11.30
   1  -7  -4  287.07    8.00
  -1   7   4  284.47    8.80
  -1   7   4  288.37    8.30
   0  -7  -4  162.38    6.70
   0  -7  -4  177.38    7.50
   0  -7  -4  174.08    4.60
   0   7   4  169.88    7.30
   0   7   4  179.08    4.60
   0   7   4  170.58    6.50
  -1  -7  -4   12.40    2.30
  -1  -7  -4   13.00    2.30
   1   7   4   12.80    1.30
   1   7   4   13.30    2.30
   1   7   4   11.40    2.00
   1   7   4   11.40    0.90
  -2  -7  -4  621.34   18.70
  -2  -7  -4  685.13   23.60
   2   7   4  612.54   18.40
   2   7   4  626.84   15.80
   2   7   4  618.34   15.80
  -3  -7  -4   20.60    3.40
  -3  -7  -4   22.50    3.80
   3   7   4   28.00    3.10
   3   7   4   25.10    2.90
   3   7   4   19.60    3.20
  -4  -7  -4    5.90    2.10
   4   7   4    7.40    2.50
  -5  -7  -4   -1.50    1.70
  -5  -7  -4    0.10    1.90
   5   7   4    0.90    1.70
   5  -8  -4    0.20    2.70
  -5   8   4    2.60    2.50
   4  -8  -4   25.80    5.00
  -4   8   4   23.30    3.90
   3  -8  -4   41.40    2.40
   3  -8  -4   44.90    5.80
   3  -8  -4   45.50    2.70
  -3   8   4   37.90    4.20
   2  -8  -4   12.10    1.90
   2  -8  -4   15.30    3.10
   2  -8  -4   15.80    2.00
  -2   8   4   12.30    1.70
  -2   8   4   12.20    2.10
   1  -8  -4   23.00    3.50
   1  -8  -4   31.10    3.10
   1  -8  -4   24.10    3.50
   1  -8  -4   26.50    1.80
  -1   8   4   33.20    2.60
  -1   8   4   27.00    2.00
   0  -8  -4  161.28    7.60
   0  -8  -4  154.88    6.80
   0   8   4  172.98    7.60
   0   8   4  164.38    6.60
  -1  -8  -4   -1.20    1.00
  -1  -8  -4    0.10    1.00
   1   8   4    0.30    1.10
  -2  -8  -4  127.49    6.90
  -2  -8  -4  113.49    6.80
   2   8   4  119.19    6.60
   2   8   4  124.79    4.40
   2   8   4  128.29    4.40
  -3  -8  -4   33.30    4.60
   3   8   4   32.40    2.80
   3   8   4   32.50    4.40
   3   8   4   33.10    2.70
  -4  -8  -4   29.00    4.50
   4   8   4   23.70    3.30
   4   8   4   23.90    4.00
  -5  -8  -4    3.80    2.70
   5   8   4    4.40    2.60
   5   8   4    2.10    2.00
   5  -9  -4   16.00    4.70
  -5   9   4   20.70    4.70
   4  -9  -4    7.70    3.40
  -4   9   4   16.20    3.50
   3  -9  -4    0.20    1.90
   3  -9  -4    1.40    1.00
   3  -9  -4    0.30    0.70
  -3   9   4   -1.20    1.00
   2  -9  -4    2.20    1.10
   2  -9  -4    1.00    0.90
   2  -9  -4    3.50    2.20
  -2   9   4    1.60    1.10
  -2   9   4    3.60    1.20
   1  -9  -4   86.89    6.00
   1  -9  -4   87.39    4.60
   1  -9  -4   88.69    4.80
  -1   9   4   95.09    4.70
  -1   9   4   95.89    3.70
   0  -9  -4   59.99    6.40
   0  -9  -4   63.49    4.30
   0   9   4   62.19    4.70
   0   9   4   61.39    3.90
  -1  -9  -4   76.19    5.00
  -1  -9  -4   80.19    6.50
   1   9   4   75.49    5.20
  -2  -9  -4   82.29    5.70
   2   9   4   88.99    5.80
   2   9   4   82.79    3.00
   2   9   4   80.59    3.00
  -3  -9  -4   33.10    4.90
   3   9   4   38.20    4.70
   3   9   4   33.40    2.70
   3   9   4   36.50    2.70
  -4  -9  -4    1.60    2.00
   4   9   4    1.40    1.40
   4   9   4    2.20    1.90
  -5  -9  -4  170.98   10.30
   5   9   4  174.98   10.40
   5   9   4  180.98    9.00
   5 -10  -4    0.60    3.00
  -5  10   4   -0.80    2.20
   4 -10  -4   23.20    5.00
  -4  10   4   14.60    3.40
   3 -10  -4    2.90    1.10
   3 -10  -4    0.80    1.10
   3 -10  -4    3.10    2.70
  -3  10   4    2.70    1.70
   2 -10  -4   69.39    7.20
   2 -10  -4   73.09    4.30
   2 -10  -4   63.59    3.60
  -2  10   4   75.99    5.20
  -2  10   4   67.49    4.00
   1 -10  -4  142.29    8.20
   1 -10  -4  148.19    4.60
   1 -10  -4  151.38    6.80
  -1  10   4  142.29    6.30
  -1  10   4  147.29    4.90
   0 -10  -4    7.60    2.00
   0  10   4    9.30    2.60
  -1 -10  -4  669.93   20.40
   1  10   4  716.33   21.30
  -2 -10  -4    8.20    2.50
   2  10   4   10.90    2.80
  -3 -10  -4   68.79    5.80
   3  10   4   67.09    5.80
   3  10   4   64.59    3.30
   3  10   4   61.99    3.30
  -4 -10  -4   95.09    7.40
   4  10   4  106.39    5.60
   4  10   4  107.89    7.70
   5 -11  -4    4.00    3.80
  -5  11   4    9.20    3.40
   4 -11  -4    8.20    3.50
   4 -11  -4   10.70    1.40
   3 -11  -4   19.80    2.70
   3 -11  -4   17.30    4.20
  -3  11   4   39.50    4.50
   2 -11  -4    1.70    2.00
   2 -11  -4    1.00    0.90
   2 -11  -4    0.80    1.20
  -2  11   4    1.40    1.10
  -2  11   4    0.00    1.00
   1 -11  -4   27.80    4.40
   1 -11  -4   31.20    3.60
   1 -11  -4   30.50    1.60
  -1  11   4   29.50    1.80
   0 -11  -4  179.68    8.20
   0  11   4  183.08    9.20
  -1 -11  -4    5.00    2.20
   1  11   4    4.20    2.00
   2  11   4   22.30    4.00
  -3 -11  -4   24.00    4.20
   3  11   4   27.40    1.90
   3  11   4   27.20    4.40
   3  11   4   30.90    2.00
  -4 -11  -4   77.39    7.80
   4  11   4   92.49    4.80
   4  11   4   73.89    7.70
   4 -12  -4   -1.10    2.30
   4 -12  -4    0.40    0.90
  -4  12   4    2.70    2.30
   3 -12  -4    3.90    1.60
   3 -12  -4    3.10    2.50
   3 -12  -4    3.30    1.80
  -3  12   4    2.90    1.70
   2 -12  -4    8.80    2.20
   2 -12  -4   10.90    1.70
   2 -12  -4    7.00    3.30
  -2  12   4   10.40    2.00
   1 -12  -4    0.40    1.20
   1 -12  -4    0.50    1.70
   0 -12  -4  123.19    6.90
   0  12   4  128.39    7.80
  -1 -12  -4   39.30    4.80
   1  12   4   40.20    5.10
  -2 -12  -4   78.69    6.20
   2  12   4   70.49    7.30
  -3 -12  -4    1.40    1.80
   3  12   4    4.60    2.50
   4  12   4  101.29    8.10
   4 -13  -4    5.60    3.70
   4 -13  -4    5.90    1.70
  -4  13   4    6.30    2.60
   3 -13  -4   15.10    4.60
   3 -13  -4   17.40    2.80
  -3  13   4   14.40    2.90
   2 -13  -4   59.49    3.30
   2 -13  -4   74.59    8.20
   2 -13  -4   64.39    4.80
  -2  13   4   64.59    3.80
   1 -13  -4  126.89    7.00
   1 -13  -4  138.39    9.10
   0 -13  -4   19.70    3.40
   0  13   4   27.40    4.80
  -1 -13  -4   66.29    5.60
  -2 -13  -4   83.59    6.70
   2  13   4   92.49    7.20
  -3 -13  -4   18.30    4.00
   3  13   4   19.90    4.20
   4 -14  -4   65.69    9.20
  -4  14   4   38.80    5.20
   3 -14  -4   -1.20    1.20
   3 -14  -4   -0.10    2.60
  -3  14   4    3.90    1.90
   2 -14  -4   14.60    2.90
   2 -14  -4   15.90    1.80
   2 -14  -4   10.60    3.70
   2 -14  -4   18.30    2.10
   1 -14  -4  143.89    7.80
   1 -14  -4  143.19    9.60
   0 -14  -4    9.60    2.70
   0  14   4   11.80    3.30
  -1 -14  -4   61.19    6.50
   1  14   4   57.59    6.50
  -2 -14  -4   25.50    4.60
   2  14   4   23.50    4.60
   3  14   4   52.69    6.70
   3 -15  -4   11.20    2.70
   3 -15  -4   11.60    4.40
  -3  15   4   10.70    2.50
   2 -15  -4   31.10    2.10
   2 -15  -4   38.70    6.40
   1 -15  -4   23.60    5.10
   1 -15  -4   17.50    3.50
   0 -15  -4    8.70    2.80
   0  15   4    5.80    2.80
  -1 -15  -4   39.90    5.60
   1  15   4   41.30    5.90
  -2 -15  -4   12.40    3.50
   2  15   4   11.90    3.60
  -3 -15  -4   -0.30    2.20
   3  15   4   -0.20    2.10
   3 -16  -4    3.30    2.20
   3 -16  -4   -0.20    2.70
   2 -16  -4   55.39    6.00
   2 -16  -4   46.10    7.50
   1 -16  -4   15.40    4.30
   1 -16  -4   16.00    3.60
   0 -16  -4    0.70    1.90
   0  16   4    0.90    2.20
  -1 -16  -4   27.30    4.60
   1  16   4   29.00    5.40
  -2 -16  -4    1.40    2.20
   2  16   4    0.60    2.30
   2 -17  -4   -0.40    2.00
   2 -17  -4   -1.60    2.50
   1 -17  -4    1.20    2.00
   1 -17  -4    4.20    5.60
   0 -17  -4   15.20    3.60
   0 -17  -4   20.50    5.20
   0  17   4    7.60    3.20
  -1 -17  -4    2.10    2.60
   1 -18  -4    2.10    2.50
   1 -18  -4    3.90    3.50
   0 -18  -4   -0.80    2.00
   0 -18  -4    1.40    3.10
   0  18   4    0.00    2.20
   1  20  -5    9.80    4.20
  -1 -20   5    9.00    3.20
   0  20  -5   18.00    4.70
   0 -20   5   21.50    4.50
  -1  20  -5    6.70    3.50
   1 -20   5    5.70    2.90
   2  19  -5   53.09    7.60
  -2 -19   5   61.19    6.90
   1  19  -5   82.99    9.20
  -1 -19   5   69.29    7.20
   0  19  -5   54.19    7.00
   0 -19   5   58.29    6.70
  -1  19  -5   70.99    8.00
   1 -19   5   68.79    6.90
   2 -19   5    1.60    2.90
   2 -19   5    0.90    1.90
   2 -19   5    2.70    1.60
   2  18  -5    1.40    2.90
   1  18  -5   26.50    5.40
  -1 -18   5   23.40    4.40
   0  18  -5   27.10    5.10
   0 -18   5   26.80    4.40
  -1  18  -5   43.30    6.10
   1 -18   5   50.39    5.80
   1 -18   5   48.30    2.90
  -2  18  -5    2.60    2.40
   2 -18   5    3.00    1.50
   2 -18   5    4.10    2.40
   2 -18   5    2.40    2.80
   3 -18   5   -0.10    2.40
   3 -18   5    1.00    1.90
   3  17  -5    4.60    3.20
  -3 -17   5   14.10    4.10
   2  17  -5   29.80    5.40
  -2 -17   5   31.70    5.10
   1  17  -5    0.30    2.10
  -1 -17   5    3.00    2.10
   0  17  -5   11.10    3.70
   0 -17   5   14.50    3.20
   0 -17   5   16.80    1.60
  -1  17  -5   16.30    3.80
   1 -17   5   11.80    2.90
   1 -17   5   15.70    2.00
   1 -17   5   15.40    2.20
  -2  17  -5   57.99    7.00
   2 -17   5   53.69    3.90
   2 -17   5   36.50    4.60
   2 -17   5   46.40    6.50
   3 -17   5    6.50    2.20
   3 -17   5    5.20    3.10
   3 -17   5    8.30    2.60
   3  16  -5   27.70    5.90
  -3 -16   5   30.40    4.80
   2  16  -5   22.70    4.80
   2  16  -5   25.60    2.10
  -2 -16   5   26.00    4.30
  -2 -16   5   27.10    2.10
   1  16  -5    2.70    2.50
  -1 -16   5    3.60    0.90
  -1 -16   5    4.80    2.20
   0  16  -5    5.30    2.70
   0 -16   5    4.70    1.30
   0 -16   5    5.40    2.20
   0 -16   5    9.40    1.40
  -1  16  -5    0.90    1.80
   1 -16   5    0.80    1.00
   1 -16   5    0.90    1.50
   1 -16   5    1.80    1.20
  -2  16  -5    9.00    3.00
   2 -16   5   23.10    3.80
   2 -16   5   16.50    2.60
   3 -16   5    0.40    1.50
   3 -16   5    0.50    2.00
   3 -16   5    0.50    1.30
   4 -16   5    1.20    1.70
   4 -16   5    2.70    2.60
   4 -16   5   -0.90    1.70
   4  15  -5    5.90    3.50
  -4 -15   5    4.70    2.10
  -4 -15   5   10.40    3.60
   3  15  -5   43.40    7.10
  -3 -15   5   35.20    5.10
  -3 -15   5   34.30    3.50
   2  15  -5    0.50    2.20
   2  15  -5    3.90    1.20
  -2 -15   5    2.30    1.00
  -2 -15   5    1.50    1.70
   1  15  -5   72.09    7.60
  -1 -15   5   70.59    3.20
  -1 -15   5   72.49    3.70
  -1 -15   5   63.99    5.30
   0  15  -5  108.89    7.60
   0 -15   5   93.99    4.40
   0 -15   5   91.39    3.90
  -1  15  -5  109.09    7.50
   1 -15   5  108.09    6.60
   1 -15   5  103.89    5.20
   1 -15   5  112.49    4.90
  -2  15  -5   84.69    6.60
   2 -15   5   77.49    5.70
   2 -15   5   78.39    4.80
   3 -15   5   31.50    4.20
   3 -15   5   28.20    4.30
   3 -15   5   31.60    5.10
   4 -15   5    0.00    1.70
   4 -15   5   -1.00    1.40
   4 -15   5    2.10    2.50
  -4 -14   5   11.60    3.20
  -4 -14   5   11.40    2.70
   3  14  -5   31.90    5.70
   3  14  -5   21.30    2.70
  -3 -14   5   21.20    2.90
  -3 -14   5   29.00    4.40
   2  14  -5   35.90    5.80
   2  14  -5   37.80    2.80
  -2 -14   5   49.50    5.60
  -2 -14   5   40.80    2.90
   1  14  -5    8.70    1.50
   1  14  -5   11.20    3.10
  -1 -14   5    7.90    2.40
  -1 -14   5    8.50    1.50
   0  14  -5  216.08   10.40
   0 -14   5  177.08    8.40
   0 -14   5  182.98    6.80
   0 -14   5  192.18    6.40
  -1  14  -5    4.20    2.20
   1 -14   5    2.40    1.30
   1 -14   5    3.70    1.20
   1 -14   5    5.10    2.00
  -2  14  -5  122.59    7.60
   2 -14   5  131.99    6.90
   2 -14   5  126.09    6.10
   3 -14   5    6.60    2.00
   3 -14   5    4.20    1.90
   3 -14   5    4.30    2.40
   4 -14   5   37.40    5.60
   4 -14   5   29.80    4.40
   4 -14   5   38.00    5.20
   4  13  -5   65.59    8.50
  -4 -13   5   48.60    5.00
  -4 -13   5   66.89    6.70
   3  13  -5    0.70    1.40
   3  13  -5   -0.60    2.20
  -3 -13   5    0.90    1.30
  -3 -13   5    2.40    1.90
   2  13  -5   43.10    7.00
   2  13  -5   42.80    2.90
  -2 -13   5   42.20    3.00
  -2 -13   5   40.50    4.70
   1  13  -5  239.58    7.70
   1  13  -5  230.58   11.40
  -1 -13   5  243.28    9.90
  -1 -13   5  253.57    7.70
   0  13  -5  235.18   10.80
   0 -13   5  231.08    8.00
   0 -13   5  239.58    7.40
   0 -13   5  220.28    9.30
  -1  13  -5  175.38    8.90
   1 -13   5  197.88    6.90
   1 -13   5  167.68    7.10
   1 -13   5  183.18    8.10
  -2  13  -5  234.58   10.60
   2 -13   5  253.27    9.30
   2 -13   5  237.78   10.50
   2 -13   5  256.17    9.90
   3 -13   5   41.20    4.30
   3 -13   5   31.00    3.90
   3 -13   5   43.10    5.50
   4 -13   5    0.30    2.00
   4 -13   5    1.40    1.90
   4 -13   5   -0.80    1.10
   5 -13   5    0.10    2.30
   5 -13   5    1.00    2.60
   5 -13   5    0.40    1.60
   4  12  -5  115.29    9.40
  -4 -12   5  111.99    7.10
  -4 -12   5   98.99    6.30
   3  12  -5   27.60    5.50
  -3 -12   5   31.80    3.60
  -3 -12   5   23.20    3.50
   2  12  -5  145.49    5.80
   2  12  -5  150.28    9.20
  -2 -12   5  152.58    6.00
  -2 -12   5  141.19    7.30
   1  12  -5  232.28    7.60
   1  12  -5  274.57   11.70
  -1 -12   5  240.48    7.60
  -1 -12   5  224.78    9.40
   0  12  -5   24.00    3.90
   0 -12   5   20.50    2.40
   0 -12   5   20.90    2.20
   0 -12   5   18.00    2.80
  -1  12  -5 1695.43   42.80
   1 -12   5 1707.03   39.80
   1 -12   5 1670.43   41.40
   1 -12   5 1653.43   40.40
  -2  12  -5    7.00    2.20
   2 -12   5    4.40    1.50
   2 -12   5    9.60    2.10
   2 -12   5    7.40    1.90
   3 -12   5   19.40    2.80
   3 -12   5   19.40    3.50
   3 -12   5   32.10    4.20
   4 -12   5   32.20    3.90
   4 -12   5   39.20    5.00
   4 -12   5   37.00    5.30
   5 -12   5    7.00    3.20
   5 -12   5    4.10    2.70
   5 -12   5    4.50    2.00
   5  11  -5   23.80    5.60
  -5 -11   5   19.60    3.70
  -5 -11   5   19.00    3.70
   4  11  -5    1.10    2.60
  -4 -11   5    6.30    2.40
  -4 -11   5    4.00    2.00
  -3 -11   5    6.90    1.90
  -3 -11   5    4.80    2.10
   2  11  -5  246.88    8.20
   2  11  -5  246.08   11.80
  -2 -11   5  255.07    9.90
  -2 -11   5  247.98    8.40
   1  11  -5   85.49    6.30
   1  11  -5   83.29    3.90
  -1 -11   5   84.89    5.00
  -1 -11   5   86.99    3.90
   0  11  -5  122.29    6.90
   0  11  -5  118.19    4.90
   0 -11   5  122.49    4.80
   0 -11   5  129.19   10.30
   0 -11   5  128.99    6.10
  -1  11  -5    0.90    1.30
   1 -11   5    0.10    1.20
   1 -11   5    0.10    0.70
   1 -11   5    2.20    1.20
   1 -11   5   -0.20    0.90
  -2  11  -5    1.10    1.40
   2 -11   5    1.40    1.10
   2 -11   5    1.40    1.30
   2 -11   5    2.80    1.20
   2 -11   5    2.20    1.40
   3 -11   5   94.29    6.00
   3 -11   5  107.49    6.70
   3 -11   5   94.39    5.30
   4 -11   5   -1.30    1.50
   4 -11   5   -1.20    1.00
   4 -11   5    0.90    1.90
   5 -11   5   -1.10    1.90
   5 -11   5    1.10    1.40
   5  10  -5   22.80    5.40
  -5 -10   5   27.50    4.70
  -5 -10   5   25.10    4.70
   4  10  -5   10.60    4.00
  -4 -10   5    4.10    1.90
  -4 -10   5    7.20    2.20
   3  10  -5   38.90    5.50
  -3 -10   5   38.90    4.00
  -3 -10   5   39.90    4.20
   2  10  -5  230.38    7.90
   2  10  -5  252.87   11.50
  -2 -10   5  242.28    8.30
  -2 -10   5  254.77    9.40
   1  10  -5  431.36   12.00
   1  10  -5  447.16   15.40
  -1 -10   5  444.96   12.10
  -1 -10   5  441.76   16.00
  -1 -10   5  438.86   13.50
   0  10  -5   19.20    3.20
   0  10  -5   12.20    1.70
   0 -10   5   12.50    2.60
   0 -10   5   13.50    2.80
   0 -10   5   12.00    2.10
   0 -10   5   13.70    1.80
  -1  10  -5   50.49    4.00
   1 -10   5   49.60    3.50
   1 -10   5   57.59    3.40
   1 -10   5   57.89    6.20
   1 -10   5   55.99    4.30
   1 -10   5   54.59    3.70
  -2  10  -5    8.70    2.00
   2 -10   5    7.30    2.00
   2 -10   5    9.60    2.10
   2 -10   5    5.60    1.60
   2 -10   5    4.00    1.70
   2 -10   5    8.60    2.10
  -3  10  -5   98.09    5.90
   3 -10   5   92.59    6.00
   3 -10   5   97.69    5.90
   3 -10   5   87.69    5.00
   3 -10   5  107.09    6.30
  -4  10  -5   31.40    4.00
   4 -10   5   23.10    3.80
   4 -10   5   18.70    3.40
   4 -10   5   18.90    2.90
   5 -10   5    4.90    1.90
   5 -10   5    2.60    2.30
   5 -10   5    3.60    2.60
   5   9  -5   -0.80    2.50
  -5  -9   5    1.40    1.70
  -5  -9   5    1.60    1.90
   4   9  -5   62.69    7.80
  -4  -9   5   55.49    4.40
  -4  -9   5   50.79    5.30
   3   9  -5   14.50    3.60
  -3  -9   5   16.10    2.70
  -3  -9   5   20.50    2.90
   2   9  -5   82.69    4.10
   2   9  -5   78.49    4.50
   2   9  -5   82.19    6.20
  -2  -9   5   87.59    4.70
  -2  -9   5   82.09    4.20
  -2  -9   5   75.49    5.00
   1   9  -5  330.27    9.50
   1   9  -5  337.57   12.50
  -1  -9   5  302.97   11.20
  -1  -9   5  335.27    9.60
  -1  -9   5  318.67   12.30
  -1  -9   5  335.17   10.70
   0   9  -5    0.70    0.70
   0   9  -5    1.80    1.30
   0  -9   5    2.70    1.40
   0  -9   5    1.40    1.00
   0  -9   5    0.90    0.80
   0  -9   5    1.90    1.30
  -1   9  -5   38.30    3.80
   1  -9   5   34.20    3.70
   1  -9   5   37.20    3.00
   1  -9   5   28.40    3.40
   1  -9   5   36.50    2.60
   1  -9   5   36.40    2.80
  -2   9  -5  450.85   14.20
   2  -9   5  413.36   13.70
   2  -9   5  431.16   14.10
   2  -9   5  429.56   13.80
   2  -9   5  456.35   13.70
   2  -9   5  468.15   14.10
  -3   9  -5   -0.60    1.20
   3  -9   5    0.70    1.20
   3  -9   5   -1.80    0.80
   3  -9   5    1.80    1.50
   3  -9   5   -0.40    1.00
  -4   9  -5   79.39    8.90
  -4   9  -5   90.79    5.70
   4  -9   5  103.09    6.60
  -5   9  -5   -0.50    1.60
  -5   9  -5    1.20    2.40
   5  -9   5    0.90    2.00
   5  -9   5   -0.20    1.70
   5   8  -5    1.90    2.80
  -5  -8   5    3.40    2.40
  -5  -8   5    4.20    1.90
   4   8  -5    2.00    2.50
  -4  -8   5    6.50    1.90
  -4  -8   5    3.30    1.80
   3   8  -5   69.29    4.20
   3   8  -5   60.69    6.60
  -3  -8   5   68.09    4.80
  -3  -8   5   82.29    4.90
  -3  -8   5   72.69    4.40
   2   8  -5   58.09    6.00
   2   8  -5   54.99    3.30
  -2  -8   5   52.59    3.40
  -2  -8   5   57.19    3.60
  -2  -8   5   53.29    4.00
   1   8  -5  111.09    4.40
  -1  -8   5  107.69    7.10
  -1  -8   5  116.29    5.70
  -1  -8   5  108.89    5.00
  -1  -8   5  113.09    4.50
   0   8  -5  244.88    9.10
   0   8  -5  233.68    7.50
   0  -8   5  245.98    8.20
   0  -8   5  238.28    9.20
   0  -8   5  244.38    7.50
   0  -8   5  237.28    8.90
  -1   8  -5  225.08    8.40
  -1   8  -5  202.18    7.70
   1  -8   5  198.38    8.00
   1  -8   5  212.38    7.20
   1  -8   5  219.68    7.80
   1  -8   5  194.78    7.80
   2  -8   5    7.00    1.80
   2  -8   5    9.00    1.90
   2  -8   5    8.00    1.90
   2  -8   5    9.20    2.00
  -3   8  -5  104.79    5.90
   3  -8   5  114.49    6.40
   3  -8   5  105.69    5.70
   3  -8   5  108.09    5.60
   3  -8   5  109.39    5.90
  -4   8  -5    3.00    2.10
  -4   8  -5    3.00    1.70
   4  -8   5    3.10    1.70
   4  -8   5    5.00    2.20
  -5   8  -5    4.00    2.80
  -5   8  -5    1.40    1.70
   5  -8   5    1.70    2.00
   5   7  -5   -2.10    2.40
  -5  -7   5    2.00    2.30
  -5  -7   5   -1.50    1.10
   4   7  -5    8.20    3.20
  -4  -7   5   11.40    2.20
  -4  -7   5   13.90    2.60
  -4  -7   5   11.50    2.60
   3   7  -5   52.39    6.30
   3   7  -5   54.59    3.90
  -3  -7   5   52.49    3.60
  -3  -7   5   50.09    4.20
  -3  -7   5   49.60    3.90
   2   7  -5   70.89    3.70
   2   7  -5   70.79    5.50
  -2  -7   5   70.49    3.80
  -2  -7   5   75.19    4.40
  -2  -7   5   77.19    4.00
  -2  -7   5   63.59    5.00
   1   7  -5  144.79    7.00
   1   7  -5  142.09    5.20
  -1  -7   5  144.49    7.00
  -1  -7   5  142.69    5.30
  -1  -7   5  145.69    5.70
  -1  -7   5  148.49    6.40
   0   7  -5   17.70    2.50
   0   7  -5   18.50    2.00
   0  -7   5   19.80    2.70
   0  -7   5   17.80    2.50
   0  -7   5   19.90    2.00
   0  -7   5   15.60    2.00
  -1   7  -5   29.10    2.50
  -1   7  -5   26.10    3.10
   1  -7   5   31.70    3.20
   1  -7   5   28.90    3.00
   1  -7   5   38.10    3.70
   1  -7   5   28.30    2.30
  -2   7  -5   16.20    2.50
   2  -7   5   15.60    2.40
   2  -7   5   13.00    3.50
   2  -7   5   20.00    2.40
   2  -7   5   17.00    2.30
   2  -7   5   25.40    3.50
  -3   7  -5  151.28    6.90
  -3   7  -5  139.99    7.60
   3  -7   5  152.28    7.40
   3  -7   5  138.59    6.50
   3  -7   5  157.18    6.50
   3  -7   5  145.49    6.70
  -4   7  -5   46.60    5.80
  -4   7  -5   52.39    4.20
   4  -7   5   45.30    3.80
   4  -7   5   45.60    4.80
   4  -7   5   44.50    4.40
  -5   7  -5    0.00    2.10
  -5   7  -5   -0.70    1.40
   5  -7   5    0.40    1.60
  -6   7  -5    9.20    3.80
  -6   7  -5    2.70    2.10
   6  -7   5   12.90    3.60
   6  -7   5    2.70    2.70
   5   6  -5  150.58   10.60
  -5  -6   5  127.69    6.60
  -5  -6   5  157.28    9.10
  -5  -6   5  152.78    6.50
   4   6  -5   -0.20    2.20
  -4  -6   5    0.10    1.40
   3   6  -5   78.89    6.40
   3   6  -5   87.59    5.40
  -3  -6   5   79.49    4.90
  -3  -6   5   79.29    4.60
  -3  -6   5   94.19    4.40
   2   6  -5  184.08    6.70
   2   6  -5  188.68    8.80
  -2  -6   5  188.08    8.70
  -2  -6   5  193.08    7.20
  -2  -6   5  189.48    7.00
  -2  -6   5  189.88    6.60
   1   6  -5   43.30    3.70
   1   6  -5   43.30    2.50
  -1  -6   5   41.80    2.60
  -1  -6   5   38.20    3.40
  -1  -6   5   37.60    2.90
  -1  -6   5   42.50    2.70
   0   6  -5   25.10    2.80
   0   6  -5   21.60    1.80
   0   6  -5   19.70    2.40
   0  -6   5   23.30    2.70
   0  -6   5   23.10    1.90
   0  -6   5   23.20    2.70
  -1   6  -5 2409.36   54.59
  -1   6  -5 2391.06   55.69
   1  -6   5 2404.96   54.79
   1  -6   5 2378.86   54.79
   1  -6   5 2401.76   55.59
   1  -6   5 2413.26   55.49
  -2   6  -5  517.35   14.90
   2  -6   5  511.45   13.90
   2  -6   5  502.95   13.70
   2  -6   5  508.65   15.20
   2  -6   5  515.15   15.00
   2  -6   5  493.85   14.60
  -3   6  -5   56.29    4.70
   3  -6   5   51.59    3.40
   3  -6   5   53.99    3.70
  -4   6  -5    1.80    1.50
  -4   6  -5    3.50    2.00
   4  -6   5    3.90    2.00
   4  -6   5    3.30    1.40
   4  -6   5    2.40    1.50
  -5   6  -5    1.80    1.50
  -5   6  -5   -2.00    1.60
   5  -6   5    0.40    1.60
  -6   6  -5    0.40    1.90
  -6   6  -5    0.50    2.30
   6  -6   5   -0.80    1.90
   6   5  -5    4.80    3.80
  -6  -5   5   -0.60    2.30
   5   5  -5   86.19    9.30
  -5  -5   5  110.49    7.60
  -5  -5   5   86.49    4.70
  -5  -5   5   94.79    4.60
   4   5  -5  120.69    8.60
  -4  -5   5  127.89    5.30
  -4  -5   5  107.19    5.20
  -4  -5   5  117.09    6.90
   3   5  -5    1.60    1.80
   3   5  -5    1.10    1.20
  -3  -5   5    2.50    1.40
  -3  -5   5    2.00    1.00
  -3  -5   5    2.00    1.20
   2   5  -5 1746.53   41.20
  -2  -5   5 1741.33   40.50
  -2  -5   5 1734.13   41.30
  -2  -5   5 1816.82   41.70
  -2  -5   5 1759.92   45.70
   1   5  -5  687.93   17.50
   1   5  -5  737.33   19.50
  -1  -5   5  702.23   17.50
  -1  -5   5  658.23   19.00
  -1  -5   5  700.23   18.20
  -1  -5   5  723.93   17.70
   0   5  -5  222.68    7.00
   0   5  -5  235.18    7.70
   0   5  -5  224.98    7.50
   0  -5   5  232.08    7.00
   0  -5   5  225.58    7.60
   0  -5   5  218.18    7.50
  -1   5  -5  471.45   13.20
  -1   5  -5  494.55   12.70
  -1   5  -5  507.15   14.00
   1  -5   5  499.55   13.90
   1  -5   5  478.65   13.80
   1  -5   5  492.55   13.30
   1  -5   5  481.65   12.80
  -2   5  -5   68.39    4.10
   2  -5   5   73.69    3.50
   2  -5   5   67.29    4.00
   2  -5   5   76.89    4.50
   2  -5   5   78.09    4.90
   2  -5   5   79.69    4.40
  -3   5  -5   42.20    4.70
  -3   5  -5   39.40    3.90
   3  -5   5   42.90    2.90
   3  -5   5   42.80    3.20
   3  -5   5   37.50    3.70
  -4   5  -5  180.08    7.90
  -4   5  -5  165.88    9.10
   4  -5   5  172.08    7.70
   4  -5   5  173.88    7.40
   4  -5   5  167.28    7.00
  -5   5  -5    9.80    2.50
  -5   5  -5    4.90    2.50
   5  -5   5    7.70    2.40
  -6   5  -5   -0.20    2.40
  -6   5  -5    0.40    1.80
   6  -5   5   -0.30    2.10
  -6  -4   5   10.70    3.60
   5   4  -5    6.10    3.50
  -5  -4   5    7.70    1.50
  -5  -4   5    9.20    3.20
  -5  -4   5    4.40    1.30
   4   4  -5   10.40    3.40
  -4  -4   5    5.70    2.30
  -4  -4   5    3.70    1.30
  -4  -4   5    3.60    1.10
   3   4  -5   85.59    6.30
   3   4  -5   77.59    4.60
  -3  -4   5   76.69    3.60
  -3  -4   5   91.89    5.20
  -3  -4   5   87.89    4.10
   2   4  -5   51.29    3.20
   2   4  -5   55.29    4.50
  -2  -4   5   58.49    3.50
  -2  -4   5   57.29    4.30
  -2  -4   5   59.79    2.80
  -2  -4   5   57.69    3.20
   1   4  -5    0.90    0.70
   1   4  -5    1.20    1.10
  -1  -4   5    0.40    0.70
  -1  -4   5    0.00    0.70
  -1  -4   5    0.80    0.60
  -1  -4   5    1.40    1.10
   0   4  -5  807.52   20.20
   0   4  -5  833.42   20.00
   0   4  -5  795.12   19.60
   0  -4   5  786.92   20.10
   0  -4   5  798.52   19.50
   0  -4   5  801.02   20.00
  -1   4  -5  360.66    9.10
  -1   4  -5  354.06   10.60
  -1   4  -5  344.27   10.10
   1  -4   5  346.47    9.20
   1  -4   5  350.66   10.10
   1  -4   5  349.96   10.40
   1  -4   5  336.07   10.50
  -2   4  -5  377.96   11.80
   2  -4   5  396.56   12.30
   2  -4   5  370.46   11.80
   2  -4   5  390.56   10.10
   2  -4   5  397.16   10.40
   2  -4   5  384.26   11.60
  -3   4  -5   33.50    4.10
  -3   4  -5   28.20    3.20
   3  -4   5   33.50    3.40
   3  -4   5   36.90    2.80
   3  -4   5   34.70    2.50
  -4   4  -5  379.36   12.70
  -4   4  -5  388.06   14.70
   4  -4   5  355.66   12.10
   4  -4   5  355.36   11.50
   4  -4   5  382.56   12.50
  -5   4  -5   -0.90    1.50
  -5   4  -5   -0.40    1.30
   5  -4   5   -0.80    1.20
   5  -4   5    2.20    1.70
  -6   4  -5    5.00    2.30
  -6   4  -5   10.00    4.10
   6  -4   5    8.20    3.00
   6   3  -5    6.80    4.10
  -6  -3   5   12.10    3.80
   5   3  -5   48.60    7.00
  -5  -3   5   40.10    2.00
  -5  -3   5   63.19    6.90
   4   3  -5    7.60    3.00
  -4  -3   5    4.30    1.00
  -4  -3   5    7.60    1.40
  -4  -3   5    5.50    2.20
   3   3  -5    8.40    1.90
   3   3  -5    8.70    2.70
  -3  -3   5   10.00    1.30
  -3  -3   5    5.50    1.60
  -3  -3   5    5.20    1.20
   2   3  -5    0.20    1.10
   2   3  -5    1.90    1.00
  -2  -3   5    3.30    1.50
  -2  -3   5    2.00    0.70
  -2  -3   5    2.00    1.10
   1   3  -5  229.48    8.10
   1   3  -5  232.18    7.00
   1   3  -5  213.88    6.90
  -1  -3   5  218.68    7.90
  -1  -3   5  223.68    7.00
   0   3  -5    0.30    0.80
   0   3  -5    1.50    0.70
   0   3  -5    0.90    0.80
   0  -3   5    0.80    0.70
   0  -3   5    0.50    0.70
   0  -3   5    2.00    1.00
  -1   3  -5  554.64   12.90
  -1   3  -5  553.24   15.00
  -1   3  -5  542.05   14.60
   1  -3   5  561.04   14.90
   1  -3   5  571.14   13.10
   1  -3   5  548.95   14.50
  -2   3  -5   43.80    3.20
   2  -3   5   45.40    2.00
   2  -3   5   47.80    2.20
   2  -3   5   46.60    3.10
   2  -3   5   39.90    3.20
   2  -3   5   47.10    3.30
  -3   3  -5    0.90    1.10
  -3   3  -5    1.60    1.50
  -3   3  -5    0.00    0.60
   3  -3   5    0.40    0.80
   3  -3   5    0.60    1.00
  -4   3  -5   50.29    4.10
  -4   3  -5   48.80    3.50
  -4   3  -5   44.20    5.30
   4  -3   5   45.70    3.70
   4  -3   5   52.59    3.90
  -5   3  -5    5.20    2.00
  -5   3  -5    5.80    2.10
  -5   3  -5    2.00    2.30
   5  -3   5    6.00    2.30
  -6   3  -5    9.10    2.70
  -6   3  -5   19.10    4.80
   6  -3   5   16.40    3.70
   6   2  -5    1.80    3.20
  -6  -2   5    7.90    3.40
   5   2  -5   31.40    5.80
  -5  -2   5   34.10    5.00
   4   2  -5   89.29    7.10
  -4  -2   5   96.29    6.20
  -4  -2   5   87.69    3.10
  -4  -2   5   87.09    2.90
   3   2  -5   72.69    4.40
   3   2  -5   79.59    5.90
  -3  -2   5   81.59    2.90
  -3  -2   5   77.09    4.80
  -3  -2   5   74.09    5.50
  -3  -2   5   76.89    3.00
   2   2  -5   45.30    2.90
   2   2  -5   51.69    4.10
  -2  -2   5   50.99    3.30
  -2  -2   5   47.40    2.30
  -2  -2   5   41.50    3.60
  -2  -2   5   49.30    2.10
   1   2  -5   10.50    1.90
   1   2  -5    5.70    1.10
   1   2  -5    7.40    1.20
  -1  -2   5    9.50    1.80
  -1  -2   5    6.70    1.30
  -1  -2   5    7.90    1.20
   0   2  -5   35.00    2.40
   0   2  -5   37.60    2.20
   0   2  -5   37.50    2.20
   0  -2   5   38.10    2.20
   0  -2   5   38.20    2.40
   0  -2   5   38.70    2.20
  -1   2  -5  279.97    8.40
  -1   2  -5  277.17    8.70
   1  -2   5  268.47    8.50
   1  -2   5  279.97    8.30
  -2   2  -5  127.89    5.70
   2  -2   5  137.89    5.80
   2  -2   5  122.69    5.40
   2  -2   5  120.79    5.70
   2  -2   5  135.09    3.80
  -3   2  -5    7.30    1.40
  -3   2  -5    4.10    1.60
  -3   2  -5   10.50    2.40
   3  -2   5    7.60    1.50
   3  -2   5    9.50    1.90
   3  -2   5    2.60    1.40
  -4   2  -5   62.39    6.40
  -4   2  -5   58.19    4.50
  -4   2  -5   56.49    3.70
   4  -2   5   55.99    4.60
   4  -2   5   55.89    4.00
  -5   2  -5   36.90    4.20
  -5   2  -5   40.00    4.50
  -5   2  -5   38.10    5.80
   5  -2   5   37.00    4.40
  -6   2  -5    3.60    2.20
  -6   2  -5    2.30    3.00
   6  -2   5   -0.40    2.30
   6   1  -5   -0.30    2.90
  -6  -1   5    8.70    3.60
   5   1  -5   -0.90    2.00
  -5  -1   5   -0.50    1.90
   4   1  -5    1.50    2.10
  -4  -1   5    1.80    1.60
   3   1  -5   14.50    3.20
   3   1  -5   13.10    2.40
  -3  -1   5   15.30    3.00
  -3  -1   5    8.50    1.90
   2   1  -5  596.34   15.90
   2   1  -5  604.64   17.90
  -2  -1   5  573.64   16.10
  -2  -1   5  591.44   17.50
  -2  -1   5  615.74   13.80
  -2  -1   5  586.04   13.90
   1   1  -5   52.39    2.80
   1   1  -5   53.89    3.50
   1   1  -5   61.89    2.60
  -1  -1   5   56.69    2.50
  -1  -1   5   50.99    2.80
  -1  -1   5   56.19    3.50
   0   1  -5  144.29    4.80
   0   1  -5  145.69    5.10
   0   1  -5  136.79    4.70
   0  -1   5  145.69    4.90
   0  -1   5  147.59    4.70
  -1   1  -5  793.42   19.80
  -1   1  -5  755.82   19.20
   1  -1   5  793.72   19.30
   1  -1   5  773.12   19.60
  -2   1  -5   94.19    4.70
  -2   1  -5   91.79    2.90
   2  -1   5   95.99    4.80
   2  -1   5   91.49    4.40
   2  -1   5   84.99    3.20
   2  -1   5   83.49    4.40
  -3   1  -5  134.09    6.90
  -3   1  -5  141.19    7.40
  -3   1  -5  134.59    5.50
   3  -1   5  129.09    6.40
   3  -1   5  129.79    5.20
  -4   1  -5   37.70    3.10
  -4   1  -5   37.10    4.10
  -4   1  -5   38.80    5.10
   4  -1   5   37.70    3.40
  -5   1  -5   20.00    3.50
  -5   1  -5   11.50    3.20
  -5   1  -5    8.10    2.30
   5  -1   5   14.60    3.00
  -6   1  -5   12.40    3.10
  -6   1  -5    6.90    3.40
   6  -1   5   12.10    3.40
   6   0  -5    0.00    2.80
  -6   0   5    3.30    2.90
   5   0  -5   16.90    4.30
  -5   0   5   19.10    4.20
   4   0  -5   26.60    4.70
  -4   0   5   27.00    3.80
   3   0  -5   -0.30    0.80
   3   0  -5   -0.20    1.30
  -3   0   5    0.40    1.00
  -3   0   5    0.30    1.10
   2   0  -5   31.80    3.80
   2   0  -5   34.40    2.60
  -2   0   5   38.30    4.00
  -2   0   5   33.50    2.80
  -2   0   5   32.60    1.20
  -2   0   5   33.10    1.10
   1   0  -5  703.23   17.00
   1   0  -5  745.63   19.10
   1   0  -5  713.33   17.70
  -1   0   5  717.63   17.90
  -1   0   5  708.83   16.90
  -1   0   5  728.63   18.90
   0   0  -5  722.93   17.60
   0   0  -5  719.53   17.40
   0   0  -5  710.73   17.20
   0   0   5  686.83   17.20
   0   0   5  706.63   17.20
   0   0   5  734.23   17.60
  -1   0  -5   45.50    2.70
  -1   0  -5   45.90    1.60
  -1   0  -5   43.00    2.90
  -1   0  -5   47.00    1.60
   1   0   5   47.70    2.70
   1   0   5   47.30    2.90
   1   0   5   47.80    2.90
  -2   0  -5  314.47    8.10
  -2   0  -5  312.67   10.20
   2   0   5  312.97    8.10
   2   0   5  310.87    9.80
   2   0   5  290.67    9.80
   2   0   5  300.67    9.70
  -3   0  -5  324.07    9.70
  -3   0  -5  353.16   12.20
  -3   0  -5  338.77   11.50
   3   0   5  339.27   11.60
   3   0   5  340.67   10.10
   3   0   5  324.27   10.90
  -4   0  -5  139.39    7.20
  -4   0  -5  151.88    8.20
  -4   0  -5  134.39    6.20
   4   0   5  143.99    6.60
  -5   0  -5   43.00    4.50
  -5   0  -5   69.09    7.50
  -5   0  -5   65.19    5.20
   5   0   5   63.49    5.00
  -6   0  -5   43.90    6.50
  -6   0  -5   37.50    4.90
   6   0   5   37.70    4.90
   6  -1  -5    2.10    3.20
  -6   1   5    4.10    2.90
   5  -1  -5   14.50    4.40
  -5   1   5   22.70    4.20
   4  -1  -5    2.30    2.10
  -4   1   5    1.80    1.60
   3  -1  -5  183.78    9.30
  -3   1   5  206.58   13.50
  -3   1   5  186.08    8.00
   2  -1  -5  806.12   22.70
   2  -1  -5  807.22   20.80
  -2   1   5  788.72   22.20
  -2   1   5  854.41   21.20
   1  -1  -5  435.16   11.00
   1  -1  -5  435.16   12.90
   1  -1  -5  440.86   11.60
  -1   1   5  435.86   11.70
  -1   1   5  448.36   12.70
  -1   1   5  425.16   10.80
   0  -1  -5   13.80    1.80
   0  -1  -5   12.90    1.60
   0  -1  -5   13.90    1.70
   0   1   5   14.80    1.50
   0   1   5   11.40    1.50
   0   1   5   15.40    1.60
  -1  -1  -5   16.60    2.10
  -1  -1  -5   16.20    1.30
  -1  -1  -5   14.70    1.70
   1   1   5   17.80    1.80
   1   1   5   16.30    2.00
   1   1   5   16.20    1.20
   1   1   5   14.60    1.90
  -2  -1  -5   39.70    2.20
  -2  -1  -5   36.10    3.00
   2   1   5   42.20    3.00
   2   1   5   37.70    2.10
   2   1   5   41.30    3.00
   2   1   5   42.00    3.00
  -3  -1  -5   26.40    3.50
  -3  -1  -5   22.20    2.50
  -3  -1  -5   17.70    2.80
   3   1   5   17.70    2.70
   3   1   5   22.10    2.80
   3   1   5   21.10    2.40
  -4  -1  -5  224.18    9.50
  -4  -1  -5  223.98   10.20
  -4  -1  -5  205.48    8.20
   4   1   5  219.58    8.60
  -5  -1  -5   10.30    2.70
  -5  -1  -5   10.90    2.60
  -5  -1  -5    3.90    2.50
   5   1   5    9.10    2.60
  -6  -1  -5    2.00    2.10
  -6  -1  -5    0.90    2.70
   6   1   5    1.90    2.10
   6  -2  -5   -1.10    2.70
  -6   2   5   -0.80    1.90
   5  -2  -5    2.70    2.60
  -5   2   5    2.50    2.10
   4  -2  -5   14.30    3.60
  -4   2   5   14.00    3.00
   3  -2  -5  125.29    7.30
  -3   2   5  103.99    5.80
   2  -2  -5 9296.17  224.68
  -2   2   5 9999.00  227.68
   1  -2  -5   51.49    2.40
   1  -2  -5   55.09    2.80
   1  -2  -5   55.19    3.70
  -1   2   5   51.79    3.40
  -1   2   5   52.59    2.80
  -1   2   5   50.99    2.30
   0  -2  -5  322.27    8.90
   0  -2  -5  306.87    9.10
   0  -2  -5  313.37    9.10
   0   2   5  305.27    8.30
   0   2   5  306.97    8.90
  -1  -2  -5   18.70    2.30
  -1  -2  -5   19.20    1.60
   1   2   5   22.00    2.00
   1   2   5   21.30    2.40
   1   2   5   18.80    1.50
   1   2   5   19.20    2.00
  -2  -2  -5  689.53   18.70
  -2  -2  -5  678.33   17.00
   2   2   5  674.03   16.90
   2   2   5  664.23   18.20
   2   2   5  669.83   17.80
   2   2   5  669.93   17.90
  -3  -2  -5   96.29    5.40
  -3  -2  -5   83.29    4.40
  -3  -2  -5   85.19    5.20
   3   2   5   81.49    4.80
   3   2   5   83.39    4.40
   3   2   5   86.49    5.00
  -4  -2  -5   40.70    4.70
  -4  -2  -5   36.50    4.80
  -4  -2  -5   38.10    4.00
   4   2   5   38.30    4.00
  -5  -2  -5    3.00    2.10
  -5  -2  -5    0.50    1.60
   5   2   5    3.50    2.00
  -6  -2  -5   42.60    5.30
  -6  -2  -5   52.39    7.10
   6   2   5   43.10    5.30
   6  -3  -5    2.20    4.20
  -6   3   5   -0.30    2.60
   5  -3  -5    7.10    3.60
  -5   3   5    2.10    2.20
   4  -3  -5    2.20    2.20
  -4   3   5    4.70    2.30
   3  -3  -5    0.30    1.60
  -3   3   5    0.60    1.20
   2  -3  -5   41.50    2.90
  -2   3   5   32.10    3.60
  -2   3   5   37.40    1.50
  -2   3   5   36.10    2.90
   1  -3  -5  133.79    4.80
   1  -3  -5  141.69    6.20
   1  -3  -5  130.69    4.60
  -1   3   5  139.19    4.90
  -1   3   5  139.29    6.00
  -1   3   5  143.49    5.00
   0  -3  -5   56.09    2.50
   0  -3  -5   58.69    3.20
   0  -3  -5   55.99    3.20
   0  -3  -5   56.09    3.30
   0   3   5   61.39    2.60
   0   3   5   55.59    3.00
  -1  -3  -5  428.16   12.10
  -1  -3  -5  408.76   12.30
   1   3   5  405.46   10.90
   1   3   5  411.86   12.00
   1   3   5  415.56   11.30
   1   3   5  418.76   11.30
  -2  -3  -5   32.20    3.40
  -2  -3  -5   32.10    2.60
   2   3   5   36.30    3.90
   2   3   5   28.80    2.40
   2   3   5   29.50    2.30
   2   3   5   33.10    3.10
  -3  -3  -5  532.35   16.20
  -3  -3  -5  505.55   15.80
  -3  -3  -5  503.55   14.80
   3   3   5  494.25   14.60
   3   3   5  537.75   15.40
   3   3   5  471.25   15.00
  -4  -3  -5  110.19    6.00
  -4  -3  -5  101.89    6.60
  -4  -3  -5  109.59    6.60
  -5  -3  -5   17.90    3.90
   5   3   5   25.80    3.90
   6  -4  -5   -0.60    3.20
  -6   4   5   -1.40    2.10
   5  -4  -5    1.10    2.50
  -5   4   5    2.60    2.30
   4  -4  -5   64.59    7.00
  -4   4   5   52.09    5.60
   3  -4  -5   82.49    6.30
  -3   4   5   96.69    5.60
   2  -4  -5  430.16   12.50
   2  -4  -5  441.56   10.80
   2  -4  -5  463.85   15.00
  -2   4   5  426.56   10.50
  -2   4   5  437.06   12.90
  -2   4   5  423.76   14.20
   1  -4  -5   60.59    4.10
   1  -4  -5   53.79    2.80
   1  -4  -5   59.19    3.70
   1  -4  -5   51.99    2.70
  -1   4   5   58.49    2.70
  -1   4   5   50.69    2.80
   0  -4  -5  708.03   16.90
   0  -4  -5  708.93   18.30
   0  -4  -5  704.83   18.60
   0  -4  -5  722.23   18.80
   0   4   5  714.33   16.90
   0   4   5  690.53   18.00
  -1  -4  -5  273.67    9.40
  -1  -4  -5  267.77    8.80
   1   4   5  275.27    8.10
   1   4   5  270.47    9.10
   1   4   5  294.07    7.90
   1   4   5  287.87    8.80
  -2  -4  -5   22.30    3.00
  -2  -4  -5   32.00    2.80
   2   4   5   28.30    2.90
   2   4   5   28.80    3.20
   2   4   5   30.20    2.40
   2   4   5   28.50    2.40
  -3  -4  -5    4.70    1.80
  -3  -4  -5    4.30    1.70
  -3  -4  -5    6.30    1.80
   3   4   5    6.80    1.80
   3   4   5    6.10    1.80
   3   4   5    5.00    1.60
  -4  -4  -5    9.80    2.70
  -4  -4  -5    5.00    2.00
  -4  -4  -5   10.90    2.90
   4   4   5    9.20    2.30
  -5  -4  -5   17.10    3.60
  -5  -4  -5   14.50    3.60
   5   4   5   19.30    3.50
   6  -5  -5    3.80    3.30
  -6   5   5   -1.50    2.20
   5  -5  -5   12.20    4.00
  -5   5   5   12.60    3.50
   4  -5  -5   -0.20    1.90
  -4   5   5   -1.60    1.30
   3  -5  -5  149.39    8.80
  -3   5   5  165.28    7.50
   2  -5  -5  100.29    4.70
   2  -5  -5  100.49    5.70
   2  -5  -5  108.29    6.50
   2  -5  -5  103.99    3.80
  -2   5   5   93.69    5.70
  -2   5   5  110.29    3.60
  -2   5   5   98.89    4.90
   1  -5  -5  233.68    7.40
   1  -5  -5  226.78    8.60
   1  -5  -5  227.98    7.00
   1  -5  -5  239.08    9.20
  -1   5   5  231.48    7.10
  -1   5   5  231.08    7.20
   0  -5  -5  661.73   18.20
   0  -5  -5  686.63   18.40
   0  -5  -5  671.53   16.10
   0  -5  -5  663.13   17.80
   0   5   5  657.83   17.50
   0   5   5  666.83   18.10
   0   5   5  688.33   16.00
  -1  -5  -5  491.85   14.20
   1   5   5  487.35   12.20
   1   5   5  469.85   14.10
   1   5   5  496.35   12.60
   1   5   5  499.35   14.00
  -2  -5  -5   15.10    2.40
  -2  -5  -5   13.30    2.50
   2   5   5   12.30    2.10
   2   5   5   17.10    2.70
   2   5   5   16.80    2.10
   2   5   5   12.50    1.80
  -3  -5  -5  469.95   15.10
  -3  -5  -5  508.55   16.10
   3   5   5  471.95   14.20
   3   5   5  474.75   14.80
   3   5   5  470.65   14.40
  -4  -5  -5    5.20    2.20
  -4  -5  -5    4.80    1.90
  -4  -5  -5    2.50    1.90
   4   5   5    3.50    1.80
   4   5   5    5.60    1.90
  -5  -5  -5   77.39    6.50
  -5  -5  -5   78.79    6.50
   5   5   5   71.79    5.80
   5   5   5   96.49    6.80
   5  -6  -5    3.10    3.00
  -5   6   5    2.60    2.30
   4  -6  -5   13.20    5.30
  -4   6   5   14.30    3.20
   3  -6  -5   79.49    6.40
  -3   6   5   82.19    5.30
   2  -6  -5    1.60    0.90
   2  -6  -5    2.50    1.80
   2  -6  -5    1.20    0.80
  -2   6   5    1.00    0.90
  -2   6   5    1.10    0.70
   1  -6  -5    3.80    0.90
   1  -6  -5    1.70    1.60
   1  -6  -5    5.30    1.40
  -1   6   5    4.20    1.10
  -1   6   5    3.70    1.00
   0  -6  -5   33.00    1.70
   0  -6  -5   37.70    3.80
   0  -6  -5   36.10    2.90
   0   6   5   29.90    3.20
   0   6   5   28.50    2.80
   0   6   5   31.30    1.70
  -1  -6  -5   20.50    2.90
   1   6   5   20.80    1.40
   1   6   5   18.80    1.50
   1   6   5   22.40    2.70
   1   6   5   23.40    3.00
  -2  -6  -5   -1.60    0.80
  -2  -6  -5   -0.30    1.10
   2   6   5    0.70    1.10
   2   6   5   -0.20    0.70
   2   6   5   -0.10    0.70
  -3  -6  -5  181.58    8.40
  -3  -6  -5  189.78    8.90
   3   6   5  190.08    8.00
   3   6   5  185.28    8.30
   3   6   5  185.68    7.40
   4   6   5   28.50    3.70
   4   6   5   27.40    3.90
  -5  -6  -5    4.00    2.50
   5   6   5    2.80    2.00
   5   6   5    3.20    2.30
   5  -7  -5   51.49    7.50
  -5   7   5   44.80    6.20
   4  -7  -5    6.80    3.20
  -4   7   5    1.50    1.80
   3  -7  -5    7.20    2.60
   3  -7  -5    6.00    1.00
   3  -7  -5    5.40    1.00
  -3   7   5   10.30    2.30
   2  -7  -5   42.00    4.90
   2  -7  -5   48.20    2.90
   2  -7  -5   44.80    3.00
  -2   7   5   47.90    3.40
  -2   7   5   47.60    2.70
   1  -7  -5  228.58    9.50
   1  -7  -5  201.68    6.40
   1  -7  -5  219.88    9.00
   1  -7  -5  213.08    7.50
  -1   7   5  210.48    7.20
  -1   7   5  223.38    6.90
   0  -7  -5   81.29    6.60
   0  -7  -5   81.09    4.60
   0  -7  -5   82.19    2.90
   0   7   5   80.19    6.10
   0   7   5   82.09    2.80
  -1  -7  -5  205.78    8.60
  -1  -7  -5  199.28    8.30
   1   7   5  206.48    5.70
   1   7   5  203.08    8.30
   1   7   5  206.48    5.60
   1   7   5  202.38    8.00
  -2  -7  -5  138.39    7.10
  -2  -7  -5  141.19    7.10
   2   7   5  142.79    5.00
   2   7   5  135.89    5.10
   2   7   5  136.09    6.70
  -3  -7  -5    4.00    2.00
  -3  -7  -5    7.10    2.50
   3   7   5    5.90    1.60
   3   7   5    2.40    1.60
   3   7   5    7.20    1.80
  -4  -7  -5   19.10    3.70
   4   7   5   24.00    3.50
   4   7   5   22.50    3.70
  -5  -7  -5    5.80    2.90
   5   7   5    2.00    2.10
   5   7   5    5.90    2.60
   5  -8  -5   10.40    4.30
  -5   8   5    2.10    2.30
   4  -8  -5    3.90    2.70
  -4   8   5    4.00    2.20
   3  -8  -5    5.30    2.70
   3  -8  -5    2.60    1.00
   3  -8  -5    1.00    0.70
  -3   8   5    0.30    1.30
   2  -8  -5  307.27    9.80
   2  -8  -5  337.77   13.50
   2  -8  -5  315.97    9.80
  -2   8   5  335.87   10.60
  -2   8   5  319.97    9.50
   1  -8  -5    2.30    1.70
   1  -8  -5    1.80    0.70
   1  -8  -5    1.60    1.20
  -1   8   5    1.00    1.00
  -1   8   5    1.00    0.80
   0  -8  -5  216.18    9.20
   0  -8  -5  220.38    5.70
   0  -8  -5  220.98    8.50
   0   8   5  209.48    8.90
   0   8   5  213.38    8.00
  -1  -8  -5    3.70    1.80
  -1  -8  -5    6.00    2.00
   1   8   5    1.70    0.50
   1   8   5    1.40    0.40
   1   8   5    2.20    1.30
  -2  -8  -5   75.39    5.50
  -2  -8  -5   80.39    5.50
   2   8   5   70.39    5.10
   2   8   5   80.59    3.30
   2   8   5   74.79    3.30
  -3  -8  -5   63.79    6.30
   3   8   5   56.69    3.60
   3   8   5   56.79    5.70
   3   8   5   56.79    3.50
  -4  -8  -5   97.69    7.20
   4   8   5   93.49    6.60
   4   8   5  104.89    5.90
  -5  -8  -5    0.10    2.10
   5   8   5    1.10    2.20
   5   8   5    2.70    2.10
   5  -9  -5   11.80    4.50
  -5   9   5    2.10    2.60
   4  -9  -5    4.50    2.70
  -4   9   5    7.40    3.00
   3  -9  -5   51.39    3.00
   3  -9  -5   54.89    6.90
   3  -9  -5   44.40    3.00
  -3   9   5   60.59    4.60
   2  -9  -5  137.79    8.40
   2  -9  -5  145.09    6.00
   2  -9  -5  135.69    5.60
  -2   9   5  150.78    6.30
  -2   9   5  144.39    5.70
   1  -9  -5    3.20    2.10
   1  -9  -5    4.30    0.90
   1  -9  -5    1.90    1.30
  -1   9   5    4.10    1.40
  -1   9   5    3.00    1.00
   0  -9  -5   42.10    4.10
   0   9   5   32.00    4.00
  -1  -9  -5  245.18   10.10
   1   9   5  260.67   10.40
  -2  -9  -5   29.50    4.10
   2   9   5   37.70    2.00
   2   9   5   37.40    1.90
   2   9   5   42.50    4.80
  -3  -9  -5   10.40    2.80
   3   9   5   13.20    2.00
   3   9   5   13.20    2.90
   3   9   5   13.30    1.90
  -4  -9  -5   30.90    4.80
   4   9   5   39.10    4.10
   4   9   5   43.70    5.50
   5 -10  -5    9.10    5.00
  -5  10   5   13.60    4.00
   4 -10  -5    0.10    2.30
  -4  10   5   -0.10    2.10
   3 -10  -5   27.10    5.00
   3 -10  -5   18.70    2.30
   3 -10  -5   18.40    2.40
  -3  10   5   22.30    3.40
   2 -10  -5    8.40    2.90
   2 -10  -5    8.80    1.60
   2 -10  -5    7.80    1.90
  -2  10   5    8.50    1.80
  -2  10   5    7.90    1.80
   1 -10  -5  160.78    7.20
   1 -10  -5  152.58    6.40
   1 -10  -5  167.38    9.10
  -1  10   5  157.68    5.30
   0 -10  -5    0.50    1.30
   0  10   5    1.10    1.50
  -1 -10  -5  340.37   12.70
   1  10   5  328.87   12.80
  -2 -10  -5   20.20    3.50
   2  10   5   15.40    3.10
  -3 -10  -5    3.40    2.20
   3  10   5    1.90    1.00
   3  10   5    3.00    1.10
   3  10   5    4.00    2.10
  -4 -10  -5   12.90    3.70
   4  10   5   13.50    3.40
   4  10   5   11.80    2.30
   5 -11  -5   -1.50    2.90
  -5  11   5    1.30    2.50
   4 -11  -5    1.30    2.60
   4 -11  -5    0.60    0.70
  -4  11   5   -0.20    1.70
   3 -11  -5    7.60    3.30
   3 -11  -5    4.50    1.60
  -3  11   5    4.20    1.90
   2 -11  -5    0.60    0.90
   2 -11  -5   -1.20    1.60
   2 -11  -5    1.20    1.30
  -2  11   5   -0.70    0.90
  -2  11   5    1.20    1.30
   1 -11  -5    0.30    1.10
   1 -11  -5    0.20    1.60
   1 -11  -5    0.40    0.50
  -1  11   5   -0.50    0.50
   0 -11  -5   95.99    5.90
   0  11   5   90.69    6.40
  -1 -11  -5   35.80    4.70
   1  11   5   30.70    4.30
  -2 -11  -5   -0.60    1.30
   2  11   5    1.10    1.50
  -3 -11  -5   13.00    3.30
   3  11   5   17.60    3.70
   3  11   5   16.30    1.60
   3  11   5   16.90    1.60
  -4 -11  -5   -1.30    1.90
   4  11   5   -0.10    2.00
   4  11   5    0.60    1.20
   4 -12  -5    1.90    2.90
  -4  12   5    2.40    2.00
   3 -12  -5    1.40    1.60
   3 -12  -5    1.50    2.60
   3 -12  -5    1.30    1.30
  -3  12   5   -0.20    1.40
   2 -12  -5    0.10    1.90
   2 -12  -5    0.10    0.80
   2 -12  -5    0.50    1.30
  -2  12   5    2.20    1.30
   1 -12  -5   82.99    5.50
   1 -12  -5   86.49    7.20
   0 -12  -5   33.90    4.30
   0  12   5   38.10    5.20
  -1 -12  -5   16.20    3.50
   1  12   5   24.40    4.40
  -2 -12  -5    0.70    1.60
   2  12   5    0.30    1.80
  -3 -12  -5    4.10    2.60
   3  12   5    8.20    3.00
  -4 -12  -5    1.60    2.50
   4  12   5   -1.00    2.10
   4 -13  -5    6.10    3.80
  -4  13   5    4.70    2.50
   3 -13  -5   13.20    2.60
   3 -13  -5   13.00    4.30
  -3  13   5   13.80    2.70
   2 -13  -5   12.90    2.70
   2 -13  -5   12.00    1.80
   2 -13  -5   17.80    4.20
  -2  13   5   13.10    2.10
   1 -13  -5   52.59    5.20
   1 -13  -5   60.29    7.40
   0  13   5    5.80    2.60
  -1 -13  -5   29.60    4.60
   1  13   5   30.40    4.70
  -2 -13  -5    3.10    2.20
   2  13   5    4.20    2.50
  -3 -13  -5    2.70    2.40
   3  13   5    1.10    2.00
   4 -14  -5   12.70    4.60
  -4  14   5   13.90    3.40
   3 -14  -5    0.70    1.50
   3 -14  -5    0.90    2.70
  -3  14   5    1.80    1.70
   2 -14  -5   20.50    5.10
   2 -14  -5   14.80    3.10
  -2  14   5   17.60    2.10
   1 -14  -5   -0.40    2.00
   1 -14  -5   -1.80    2.20
   0 -14  -5   10.00    2.90
   0  14   5    6.60    2.80
  -1 -14  -5   15.60    3.60
   1  14   5   15.90    3.80
  -2 -14  -5   63.09    6.90
   2  14   5   68.29    7.30
   3  14   5   61.59    7.50
   3 -15  -5    3.70    3.10
   3 -15  -5    7.00    2.30
  -3  15   5    6.60    2.30
   2 -15  -5   20.70    1.90
   2 -15  -5   29.00    4.10
   2 -15  -5   34.60    6.40
   1 -15  -5   -1.90    2.20
   1 -15  -5   -0.70    1.60
   0 -15  -5   56.69    7.60
   0 -15  -5   44.80    5.70
   0  15   5   42.70    5.90
  -1 -15  -5   64.09    7.20
   1  15   5   67.79    7.50
   2  15   5   14.30    3.90
   3 -16  -5    8.00    2.70
   3 -16  -5    4.70    3.80
   2 -16  -5   16.90    3.60
   2 -16  -5   30.50    9.90
   1 -16  -5    5.20    2.50
   1 -16  -5    8.80    3.60
   0 -16  -5   -0.70    2.20
   0 -16  -5    4.30    2.40
   0  16   5    0.80    2.10
  -1 -16  -5   -0.20    1.90
   1  16   5   -0.80    1.90
  -2 -16  -5   -2.50    1.70
   2  16   5    7.60    5.20
   2 -17  -5   17.90    3.70
   2 -17  -5   11.30    4.90
   1 -17  -5    2.50    2.60
   1 -17  -5    2.00    3.00
   0 -17  -5    6.30    4.30
   0 -17  -5    7.90    3.30
  -1 -17  -5   53.89    7.20
   1  17   5   52.79    7.20
   1  20  -6   -0.10    2.50
  -1 -20   6   -0.50    1.90
   0  20  -6   18.10    4.70
   0 -20   6   20.50    4.40
  -1  20  -6   90.19    9.50
   1 -20   6   81.09    8.00
   2  19  -6   13.10    4.50
  -2 -19   6    8.90    3.40
   1  19  -6    0.30    2.60
  -1 -19   6   -0.80    1.80
   0  19  -6   12.40    4.00
   0 -19   6   16.50    3.70
  -1  19  -6    1.80    2.40
   1 -19   6   -0.20    1.80
   1 -19   6    2.20    1.20
  -2  19  -6   15.70    4.20
   2 -19   6   14.60    4.60
   2 -19   6   14.80    3.60
   2 -19   6   13.20    2.50
   2  18  -6   23.90    5.40
   1  18  -6    3.30    3.00
  -1 -18   6    1.80    2.00
   0  18  -6   45.40    6.60
   0 -18   6   38.00    5.10
   0 -18   6   40.30    2.40
  -1  18  -6    7.10    3.10
   1 -18   6    6.90    2.80
   1 -18   6    8.90    2.00
  -2  18  -6   30.70    5.30
   2 -18   6   39.20    4.00
   2 -18   6   40.20    5.20
   2 -18   6   40.50    6.30
   3 -18   6   46.00    5.70
   3 -18   6   45.10    5.00
   3 -18   6   35.90    6.30
   3  17  -6   68.19    8.70
  -3 -17   6   84.69    8.70
   2  17  -6    1.50    2.50
  -2 -17   6   -0.20    1.80
  -2 -17   6    0.10    0.90
   1  17  -6   48.80    6.60
  -1 -17   6   52.59    6.10
  -1 -17   6   51.69    2.70
   0  17  -6    7.90    3.10
   0 -17   6    5.40    2.40
   0 -17   6   11.70    1.70
   0 -17   6    5.20    1.40
  -1  17  -6    1.90    2.10
   1 -17   6    6.00    1.60
   1 -17   6    4.90    2.40
   1 -17   6    6.00    1.90
  -2  17  -6   32.60    5.30
   2 -17   6   25.60    3.30
   2 -17   6   32.30    4.60
   3 -17   6    2.90    1.80
   3 -17   6   -2.00    1.80
   3 -17   6    4.30    2.20
   3  16  -6   39.20    8.00
  -3 -16   6   42.60    3.60
  -3 -16   6   37.60    5.30
   2  16  -6    2.50    1.50
   2  16  -6    2.60    2.50
  -2 -16   6    1.30    1.10
  -2 -16   6    3.90    2.20
   1  16  -6   21.20    4.70
  -1 -16   6   22.90    2.30
  -1 -16   6   23.00    3.80
  -1 -16   6   22.60    2.60
   0  16  -6    1.70    2.20
   0 -16   6    1.60    1.20
   0 -16   6    1.50    1.70
   0 -16   6    1.40    0.90
  -1  16  -6  227.08   11.40
   1 -16   6  226.88   10.20
   1 -16   6  213.88    8.50
   1 -16   6  219.08    7.90
  -2  16  -6    7.90    2.70
   2 -16   6    2.30    1.50
   2 -16   6    2.10    1.80
   3 -16   6    6.60    2.50
   3 -16   6    6.90    2.50
   3 -16   6    9.10    3.10
   4 -16   6    1.50    1.80
   4 -16   6   -2.10    1.40
   4 -16   6   -1.30    1.90
   4  15  -6    4.70    3.50
  -4 -15   6    2.20    1.90
  -4 -15   6    4.20    2.60
   3  15  -6    0.90    2.50
  -3 -15   6    0.20    1.20
  -3 -15   6    3.30    2.20
   2  15  -6   54.49    7.20
   2  15  -6   44.90    3.20
  -2 -15   6   56.19    4.70
  -2 -15   6   53.19    5.50
   1  15  -6   18.20    4.20
   1  15  -6   17.60    2.20
  -1 -15   6   17.00    3.20
  -1 -15   6   18.80    2.20
   0  15  -6   37.20    5.20
   0 -15   6   25.30    4.30
   0 -15   6   34.40    3.40
   0 -15   6   29.80    2.50
  -1  15  -6    1.60    1.80
   1 -15   6    1.00    1.30
   1 -15   6    0.00    0.90
  -2  15  -6   20.60    3.80
   2 -15   6   16.50    2.70
   2 -15   6   19.70    4.40
   3 -15   6   -0.10    1.80
   3 -15   6    0.60    1.40
   3 -15   6   -0.10    1.20
   4 -15   6    0.10    1.50
   4 -15   6    1.30    2.00
   4 -15   6    0.30    1.90
   4  14  -6   43.80    7.60
  -4 -14   6   39.40    4.60
  -4 -14   6   44.20    5.70
   3  14  -6   -0.20    2.10
  -3 -14   6    2.10    1.90
  -3 -14   6    1.90    1.40
   2  14  -6   33.80    5.50
   2  14  -6   29.70    3.80
  -2 -14   6   33.60    4.60
  -2 -14   6   35.40    4.00
   1  14  -6   10.50    1.80
   1  14  -6   14.20    3.60
  -1 -14   6   13.00    1.90
  -1 -14   6   13.00    2.70
   0  14  -6  215.38   10.50
   0 -14   6  202.78    9.00
   0 -14   6  204.48    7.10
   0 -14   6  191.58    7.60
  -1  14  -6  167.48    8.80
   1 -14   6  156.58    7.10
   1 -14   6  167.38    6.70
   1 -14   6  160.78    7.90
  -2  14  -6  109.09    7.10
   2 -14   6  125.29    6.30
   2 -14   6  123.89    6.70
   3 -14   6    4.20    1.80
   3 -14   6    4.50    2.00
   3 -14   6    6.30    2.50
   4 -14   6    0.00    1.60
   4 -14   6   -1.00    1.80
   4 -14   6   -0.40    1.50
   4  13  -6    1.40    2.70
  -4 -13   6    1.30    1.90
  -4 -13   6    0.90    1.60
   3  13  -6    8.00    3.40
  -3 -13   6    8.30    2.50
  -3 -13   6    6.70    1.90
  -2 -13   6   34.50    3.40
  -2 -13   6   29.20    3.90
   1  13  -6    5.00    2.50
   1  13  -6    5.80    1.40
  -1 -13   6    3.40    1.70
  -1 -13   6    5.70    1.40
   0  13  -6   89.39    6.40
   0 -13   6   92.29    5.60
   0 -13   6   95.79    4.40
   0 -13   6   83.69    4.70
  -1  13  -6   75.39    5.60
   1 -13   6   70.39    4.80
   1 -13   6   63.99    3.90
  -2  13  -6    6.00    2.20
   2 -13   6    2.60    1.60
   2 -13   6    4.70    1.70
   3 -13   6   35.60    4.20
   3 -13   6   33.00    4.70
   3 -13   6   28.90    3.90
   4 -13   6    6.00    2.60
   4 -13   6    5.80    2.00
   4 -13   6    5.00    2.30
   5 -13   6    2.30    1.80
   5 -13   6    3.70    4.70
   5 -13   6    4.50    2.90
   4  12  -6    2.40    2.80
  -4 -12   6    0.60    1.70
  -4 -12   6    2.90    2.00
   3  12  -6    0.70    2.10
  -3 -12   6   -0.50    1.20
  -3 -12   6    2.10    1.40
   2  12  -6   57.39    5.90
   2  12  -6   52.39    6.20
  -2 -12   6   63.49    4.70
  -2 -12   6   61.39    3.80
   1  12  -6  107.99    4.70
   1  12  -6   99.49    7.00
  -1 -12   6   95.99    5.60
  -1 -12   6   96.39    4.50
   0  12  -6   55.29    4.80
   0  12  -6   50.69    3.30
   0 -12   6   57.49    3.30
   0 -12   6   50.29    4.00
  -1  12  -6  511.65   16.60
   1 -12   6  515.65   15.60
   1 -12   6  471.55   14.90
  -2  12  -6   84.59    5.70
   2 -12   6   96.69    5.30
   2 -12   6   91.09    5.40
   3 -12   6    1.50    1.30
   3 -12   6    0.40    1.30
   3 -12   6    0.20    1.50
   4 -12   6    6.90    2.60
   4 -12   6    5.00    2.50
   4 -12   6    5.40    1.90
   5 -12   6    1.70    2.60
   5 -12   6   -0.60    2.10
   5  11  -6    2.50    3.30
  -5 -11   6    5.00    2.30
  -5 -11   6    4.20    2.50
   4  11  -6    5.10    3.20
  -4 -11   6    2.60    1.90
  -4 -11   6    2.10    1.70
   3  11  -6  190.58   11.10
  -3 -11   6  191.38    8.20
  -3 -11   6  200.28    8.80
   2  11  -6   73.69    6.40
  -2 -11   6   73.69    4.20
  -2 -11   6   72.89    4.90
   1  11  -6    2.20    1.10
   1  11  -6    2.80    1.90
  -1 -11   6    2.10    1.00
  -1 -11   6    0.60    1.20
   0  11  -6  207.78    9.20
   0  11  -6  193.58    7.10
   0 -11   6  196.88    8.00
   0 -11   6  204.18    7.00
   0 -11   6  196.48   10.30
  -1  11  -6   55.69    4.40
   1 -11   6   62.19    4.10
   1 -11   6   58.99    3.60
   1 -11   6   54.89    4.60
   1 -11   6   62.19    4.20
  -2  11  -6    2.30    1.30
   2 -11   6   -0.20    0.90
   2 -11   6    0.30    0.90
   2 -11   6    0.10    1.20
   2 -11   6   -0.20    1.90
   3 -11   6   57.09    4.30
   3 -11   6   65.69    5.00
   3 -11   6   56.19    4.80
   4 -11   6    4.20    2.20
   4 -11   6    4.10    1.70
   4 -11   6    3.10    2.10
   5 -11   6    2.40    1.70
   5 -11   6    1.30    2.10
   5 -11   6    0.20    2.10
   5  10  -6   -0.90    3.20
  -5 -10   6    0.40    1.70
  -5 -10   6    1.60    2.10
   4  10  -6    8.30    3.40
  -4 -10   6    6.30    2.20
  -4 -10   6    8.50    2.30
   3  10  -6   36.40    5.80
  -3 -10   6   42.90    4.40
  -3 -10   6   42.60    4.30
   2  10  -6  237.18   11.00
  -2 -10   6  203.78    7.80
  -2 -10   6  213.18    8.40
   1  10  -6   -1.20    1.30
   1  10  -6    0.60    0.70
  -1 -10   6   -1.00    0.80
  -1 -10   6   -0.60    0.60
   0  10  -6  103.49    6.10
   0  10  -6  106.79    4.70
   0 -10   6  102.09    4.50
   0 -10   6  114.89    6.50
   0 -10   6  104.29    5.30
   0 -10   6  112.59    6.10
   1 -10   6  115.19    5.60
   1 -10   6  106.49    6.50
   1 -10   6  105.59    6.00
   1 -10   6  102.89    5.30
   1 -10   6  105.09    5.00
  -2  10  -6   23.40    3.40
   2 -10   6   21.80    3.00
   2 -10   6   26.70    3.20
  -3  10  -6   53.89    5.10
   3 -10   6   45.20    4.10
   3 -10   6   55.49    4.70
   3 -10   6   59.59    4.60
  -4  10  -6   37.50    4.50
   4 -10   6   49.99    5.40
   4 -10   6   40.10    5.20
  -5  10  -6   58.39    5.80
   5 -10   6   73.29    7.40
   5 -10   6   73.19    6.20
   5   9  -6    5.20    3.50
  -5  -9   6   12.60    3.40
  -5  -9   6    4.10    2.00
   4   9  -6   20.90    4.70
  -4  -9   6   15.20    3.00
  -4  -9   6   13.30    2.70
  -3  -9   6   79.19    5.00
  -3  -9   6   81.19    4.90
   2   9  -6    1.90    1.80
  -2  -9   6    1.90    1.30
  -2  -9   6    0.70    1.30
  -2  -9   6    3.60    1.40
   1   9  -6  223.98    9.70
   1   9  -6  214.08    7.20
  -1  -9   6  225.28    9.00
  -1  -9   6  225.18    8.10
  -1  -9   6  208.98    7.20
  -1  -9   6  208.78    9.50
   0   9  -6  402.56   11.60
   0   9  -6  393.46   13.30
   0  -9   6  417.66   13.40
   0  -9   6  406.16   12.30
   0  -9   6  415.46   11.60
   0  -9   6  397.16   13.50
  -1   9  -6  556.44   16.40
  -1   9  -6  570.74   17.20
   1  -9   6  562.34   16.70
   1  -9   6  568.64   17.10
   1  -9   6  569.64   16.40
   1  -9   6  582.94   15.80
   1  -9   6  580.74   16.20
  -2   9  -6   34.50    4.20
  -2   9  -6   32.80    3.00
   2  -9   6   40.30    4.30
   2  -9   6   34.50    3.60
   2  -9   6   38.80    3.30
   2  -9   6   35.70    4.00
  -3   9  -6  412.96   14.00
   3  -9   6  412.76   14.20
   3  -9   6  394.26   13.10
  -4   9  -6    4.10    2.00
   4  -9   6    5.20    2.20
   4  -9   6    4.10    1.80
   4  -9   6    3.40    1.70
  -5   9  -6   26.50    4.00
   5  -9   6   36.70    4.90
   5  -9   6   38.00    5.90
   5   8  -6   33.50    6.50
  -5  -8   6   24.60    3.30
  -5  -8   6   21.90    4.30
   4   8  -6   19.20    4.50
  -4  -8   6   23.40    3.20
  -4  -8   6   18.40    3.30
   3   8  -6  105.89    7.70
  -3  -8   6   92.19    5.10
  -3  -8   6   98.39    5.70
  -3  -8   6  110.59    5.80
   2   8  -6    1.90    1.90
   2   8  -6    0.40    0.80
  -2  -8   6   -0.50    0.80
  -2  -8   6    0.70    1.10
   1   8  -6   -0.60    1.10
   1   8  -6   -0.20    0.60
  -1  -8   6    1.40    1.50
  -1  -8   6    0.60    0.70
  -1  -8   6   -1.30    0.80
  -1  -8   6    0.10    0.90
   0   8  -6   59.49    4.10
   0   8  -6   54.59    3.20
   0  -8   6   62.59    3.30
   0  -8   6   67.19    4.40
   0  -8   6   64.59    4.20
   0  -8   6   60.79    3.60
  -1   8  -6   55.79    3.60
  -1   8  -6   58.79    7.30
   1  -8   6   63.09    4.00
   1  -8   6   57.09    3.50
   1  -8   6   60.79    3.90
  -2   8  -6    0.10    1.20
   2  -8   6   -1.40    0.70
   2  -8   6    0.20    0.80
   2  -8   6   -0.30    0.90
   2  -8   6    0.50    1.20
   2  -8   6    0.10    0.80
  -3   8  -6   69.19    4.90
   3  -8   6   65.89    5.10
   3  -8   6   72.89    5.20
   3  -8   6   73.99    4.60
   3  -8   6   67.09    4.20
  -4   8  -6   14.10    2.90
   4  -8   6   19.60    3.20
   4  -8   6   16.60    2.80
  -5   8  -6    3.50    1.90
   5  -8   6    0.60    1.60
   5  -8   6    2.00    2.00
   5   7  -6    3.10    3.10
  -5  -7   6    2.00    2.30
  -5  -7   6    3.50    1.60
   4   7  -6   40.30    6.20
  -4  -7   6   47.20    4.40
  -4  -7   6   48.10    5.10
  -4  -7   6   43.90    3.50
   3   7  -6   69.99    6.20
  -3  -7   6   62.09    4.50
   2   7  -6    7.70    1.70
   2   7  -6   13.20    3.10
  -2  -7   6   10.10    2.50
  -2  -7   6    7.70    1.90
  -2  -7   6   12.20    3.00
  -2  -7   6   10.70    1.80
   1   7  -6  498.85   15.20
   1   7  -6  467.65   12.90
  -1  -7   6  470.45   12.90
  -1  -7   6  453.55   14.90
  -1  -7   6  459.95   14.00
  -1  -7   6  465.05   13.20
   0   7  -6   45.40    4.10
   0   7  -6   46.60    3.50
   0   7  -6   41.00    2.70
   0  -7   6   37.70    3.10
   0  -7   6   40.30    2.70
   0  -7   6   42.00    3.30
  -1   7  -6   43.20    3.00
  -1   7  -6   50.19    3.70
  -1   7  -6   45.30    3.10
   1  -7   6   54.59    3.70
   1  -7   6   52.49    3.60
   1  -7   6   49.60    3.20
   1  -7   6   50.19    3.20
  -2   7  -6  849.12   23.60
   2  -7   6  887.81   22.10
   2  -7   6  875.41   23.60
   2  -7   6  855.41   21.90
   2  -7   6  853.91   23.00
  -3   7  -6    4.50    1.70
   3  -7   6    2.50    1.70
   3  -7   6    1.00    1.20
   3  -7   6    3.10    1.40
   3  -7   6    3.00    1.30
  -4   7  -6  332.77   12.20
  -4   7  -6  349.57   14.10
   4  -7   6  339.47   11.90
   4  -7   6  326.87   11.30
   4  -7   6  348.27   13.60
  -5   7  -6   42.60    6.40
  -5   7  -6   40.90    4.70
   5  -7   6   51.69    6.50
   5  -7   6   37.90    4.60
  -6   7  -6    2.90    2.20
   6  -7   6    2.10    2.50
   5   6  -6  110.09    9.40
  -5  -6   6  117.29    5.90
  -5  -6   6  126.69    8.20
   4   6  -6   30.40    5.10
  -4  -6   6   26.50    2.90
  -4  -6   6   23.30    3.70
  -4  -6   6   25.40    3.10
   3   6  -6   -0.50    1.80
  -3  -6   6    0.30    0.80
  -3  -6   6    1.00    1.10
  -3  -6   6    1.00    1.30
   2   6  -6  713.03   19.10
   2   6  -6  742.13   22.00
  -2  -6   6  741.23   18.80
  -2  -6   6  753.22   19.70
  -2  -6   6  738.93   19.60
  -2  -6   6  704.63   21.70
   1   6  -6   64.39    3.40
   1   6  -6   75.39    4.80
  -1  -6   6   65.99    3.90
  -1  -6   6   74.49    3.60
  -1  -6   6   71.49    3.60
  -1  -6   6   71.99    4.60
   0   6  -6  820.92   21.60
   0   6  -6  854.11   21.50
   0   6  -6  820.52   20.50
   0  -6   6  821.12   20.50
   0  -6   6  825.72   21.50
   0  -6   6  803.32   21.40
  -1   6  -6  149.88    6.40
  -1   6  -6  149.29    5.90
  -1   6  -6  145.59    5.40
   1  -6   6  155.38    6.00
   1  -6   6  159.38    6.50
   1  -6   6  154.38    5.70
  -2   6  -6   88.79    5.00
   2  -6   6   93.99    5.00
   2  -6   6   85.49    3.90
   2  -6   6   82.49    5.00
   2  -6   6   88.29    4.90
   2  -6   6   80.59    3.80
  -3   6  -6   38.70    4.10
   3  -6   6   30.60    4.00
   3  -6   6   30.90    2.80
   3  -6   6   33.30    2.60
   3  -6   6   30.00    3.50
  -4   6  -6    8.30    2.20
  -4   6  -6    7.60    2.80
   4  -6   6   11.80    2.90
   4  -6   6   13.90    2.60
   4  -6   6   12.80    2.20
  -5   6  -6    0.60    1.50
  -5   6  -6    0.00    1.80
   5  -6   6    0.60    1.50
   5  -6   6    0.50    1.70
   5  -6   6    1.10    1.60
  -6   6  -6   17.30    3.50
   6  -6   6   22.50    4.90
   6   5  -6    9.50    4.60
  -6  -5   6    9.40    3.70
   5   5  -6   19.40    5.00
  -5  -5   6   17.80    2.20
  -5  -5   6   18.70    4.00
  -5  -5   6   18.00    2.30
   4   5  -6    4.70    2.70
  -4  -5   6    4.70    1.30
  -4  -5   6   11.30    2.80
  -4  -5   6    4.60    1.50
   3   5  -6  139.39    8.50
  -3  -5   6  135.29    5.70
  -3  -5   6  140.99    6.80
  -3  -5   6  144.09    5.40
   2   5  -6   10.60    1.70
   2   5  -6   18.90    3.40
  -2  -5   6   14.70    2.80
  -2  -5   6   16.00    1.90
  -2  -5   6   12.30    2.10
  -2  -5   6   16.80    2.20
   1   5  -6   89.19    5.10
   1   5  -6   85.09    3.90
  -1  -5   6   87.39    4.90
  -1  -5   6   91.19    4.30
  -1  -5   6   85.19    3.90
  -1  -5   6   85.59    3.80
   0   5  -6   35.40    2.70
   0   5  -6   39.70    2.90
   0   5  -6   37.00    2.50
   0  -5   6   37.20    2.80
   0  -5   6   42.20    3.00
   0  -5   6   37.10    2.50
  -1   5  -6 1038.80   26.50
  -1   5  -6 1050.29   25.90
  -1   5  -6 1042.80   24.60
   1  -5   6 1050.79   25.80
   1  -5   6 1080.39   25.00
   1  -5   6 1030.80   26.30
  -2   5  -6   97.09    5.10
   2  -5   6   93.79    3.70
   2  -5   6  101.39    5.20
   2  -5   6   95.79    3.80
   2  -5   6   89.09    4.80
  -3   5  -6   29.60    3.50
   3  -5   6   28.50    3.80
   3  -5   6   22.20    2.90
   3  -5   6   27.10    2.20
   3  -5   6   31.50    2.50
  -4   5  -6  111.59    6.20
  -4   5  -6  104.59    7.20
   4  -5   6   91.39    4.70
   4  -5   6   93.19    6.40
   4  -5   6  101.89    5.30
  -5   5  -6   23.60    3.60
  -5   5  -6   16.60    4.20
   5  -5   6   18.90    2.90
   5  -5   6   16.50    3.10
   5  -5   6   19.90    4.10
  -6   5  -6   -0.80    2.40
  -6   5  -6   -0.40    1.90
   6  -5   6    0.30    2.50
   6  -5   6    0.00    3.40
   6   4  -6   16.00    5.10
  -6  -4   6   23.70    5.00
   5   4  -6   14.20    4.30
  -5  -4   6   13.00    3.40
  -5  -4   6   10.30    1.30
   4   4  -6    6.20    2.80
  -4  -4   6    1.70    0.90
  -4  -4   6    1.70    1.10
  -4  -4   6    3.70    1.90
   3   4  -6   29.00    4.60
  -3  -4   6   32.20    2.20
  -3  -4   6   30.30    2.40
  -3  -4   6   20.70    3.00
   2   4  -6   14.70    2.00
  -2  -4   6   15.80    2.40
  -2  -4   6   14.30    1.80
  -2  -4   6   17.10    3.50
  -2  -4   6   10.90    1.40
   1   4  -6   88.59    4.90
   1   4  -6   87.99    4.00
   1   4  -6   74.59    3.60
  -1  -4   6   83.19    3.90
  -1  -4   6   77.49    4.50
  -1  -4   6   80.29    3.90
   0   4  -6  137.69    5.10
   0   4  -6  125.19    5.40
   0   4  -6  139.39    5.30
   0  -4   6  138.39    5.50
   0  -4   6  139.19    5.10
  -1   4  -6  148.49    6.10
  -1   4  -6  144.89    4.40
  -1   4  -6  137.59    5.60
   1  -4   6  144.59    4.50
   1  -4   6  142.89    5.90
   1  -4   6  137.39    5.50
  -2   4  -6  745.23   20.00
   2  -4   6  735.73   17.30
   2  -4   6  702.03   21.00
   2  -4   6  723.23   19.60
   2  -4   6  729.33   20.20
   2  -4   6  750.02   17.40
  -3   4  -6    1.00    1.40
   3  -4   6    1.90    1.00
   3  -4   6    0.30    1.20
   3  -4   6    0.20    1.10
  -4   4  -6   61.79    4.80
  -4   4  -6   56.49    5.90
   4  -4   6   68.39    4.10
   4  -4   6   57.89    3.60
  -5   4  -6    8.30    2.50
  -5   4  -6    4.90    2.70
   5  -4   6   10.50    2.50
   5  -4   6    5.30    2.10
  -6   4  -6   30.20    4.30
  -6   4  -6   23.90    5.10
   6  -4   6   27.70    5.00
   6   3  -6   12.40    4.80
  -6  -3   6   24.20    5.30
   5   3  -6    7.40    3.50
  -5  -3   6   11.00    3.20
   4   3  -6   53.59    6.40
  -4  -3   6   51.49    5.60
  -4  -3   6   46.60    2.40
  -4  -3   6   49.10    2.30
   3   3  -6    3.30    2.10
  -3  -3   6    1.20    0.60
  -3  -3   6    1.50    1.20
   2   3  -6   25.90    2.70
   2   3  -6   22.70    3.40
  -2  -3   6   24.30    1.90
  -2  -3   6   24.00    3.30
  -2  -3   6   33.90    3.40
  -2  -3   6   24.90    1.70
   1   3  -6  193.98    7.40
   1   3  -6  182.98    6.20
   1   3  -6  181.08    6.20
  -1  -3   6  175.08    7.10
  -1  -3   6  180.08    6.10
  -1  -3   6  178.78    6.30
   0   3  -6   41.10    2.50
   0   3  -6   37.40    2.70
   0   3  -6   38.80    2.50
   0  -3   6   36.10    2.60
   0  -3   6   37.20    2.40
   0  -3   6   39.10    2.50
  -1   3  -6   36.90    2.90
  -1   3  -6   38.70    1.50
  -1   3  -6   42.10    2.80
   1  -3   6   37.10    2.80
   1  -3   6   41.60    2.80
   1  -3   6   39.60    1.60
  -2   3  -6  401.96   12.50
   2  -3   6  402.76    9.50
   2  -3   6  398.46   12.40
   2  -3   6  377.16   12.00
   2  -3   6  394.36   12.60
   2  -3   6  417.26    9.50
  -3   3  -6  832.72   23.50
  -3   3  -6  834.22   22.60
   3  -3   6  819.52   19.60
   3  -3   6  775.52   19.80
   3  -3   6  847.92   23.00
   3  -3   6  796.22   22.00
  -4   3  -6  215.88   10.50
  -4   3  -6  221.68    9.40
   4  -3   6  214.78    8.00
   4  -3   6  215.08    7.40
  -5   3  -6   15.90    3.90
  -5   3  -6   17.70    3.50
  -6   3  -6    0.40    2.40
   6  -3   6    0.80    2.50
   6   2  -6   12.40    7.70
  -6  -2   6   20.00    4.80
   5   2  -6    6.50    3.50
  -5  -2   6    5.20    2.80
   4   2  -6   48.90    6.10
  -4  -2   6   51.39    5.50
   3   2  -6   -0.90    1.60
  -3  -2   6    0.60    0.60
  -3  -2   6    1.00    0.50
  -3  -2   6    0.80    1.20
   2   2  -6   44.80    4.70
   2   2  -6   37.70    2.80
  -2  -2   6   39.10    1.90
  -2  -2   6   37.10    2.10
  -2  -2   6   42.30    3.10
  -2  -2   6   30.50    3.60
   1   2  -6  115.39    4.40
   1   2  -6  128.09    5.70
   1   2  -6  114.69    4.60
  -1  -2   6  116.49    5.30
  -1  -2   6  115.49    4.70
   0   2  -6  210.18    7.10
   0   2  -6  221.18    6.80
   0   2  -6  212.18    6.60
   0  -2   6  217.78    6.60
   0  -2   6  213.38    7.00
   0  -2   6  207.28    6.70
  -1   2  -6 1997.00   45.80
  -1   2  -6 1891.41   45.20
   1  -2   6 1981.20   45.60
   1  -2   6 1962.40   45.20
  -2   2  -6   11.80    2.20
   2  -2   6    8.20    1.70
   2  -2   6    8.80    1.80
   2  -2   6   11.60    2.10
  -3   2  -6  408.26   14.00
  -3   2  -6  406.46   10.60
  -3   2  -6  412.06   13.40
   3  -2   6  409.56   13.60
   3  -2   6  425.26   11.00
   3  -2   6  390.26   12.80
  -4   2  -6  133.69    8.00
  -4   2  -6  125.29    5.40
  -4   2  -6  145.29    7.30
   4  -2   6  137.69    5.90
  -5   2  -6   24.00    3.10
  -5   2  -6   27.30    4.20
  -5   2  -6   26.20    4.90
  -6   2  -6    2.30    2.70
  -6   2  -6    1.80    2.10
   6  -2   6   -0.90    2.10
  -6  -1   6    1.20    2.50
   5   1  -6   14.10    4.30
  -5  -1   6   22.90    4.50
   4   1  -6    0.30    1.80
  -4  -1   6   -1.10    1.10
   3   1  -6  104.59    6.90
  -3  -1   6   94.69    5.50
   2   1  -6  124.09    5.30
   2   1  -6  119.89    6.60
  -2  -1   6  123.19    5.50
  -2  -1   6  115.29    3.80
  -2  -1   6  117.29    6.20
  -2  -1   6  123.29    3.60
   1   1  -6  120.69    4.30
   1   1  -6  113.19    4.60
   1   1  -6  113.69    5.50
  -1  -1   6  121.99    5.40
  -1  -1   6  114.49    4.10
  -1  -1   6  119.99    4.70
   0   1  -6   68.19    3.30
   0   1  -6   70.69    3.30
   0   1  -6   76.99    3.60
   0  -1   6   73.59    3.50
   0  -1   6   73.99    3.30
   0  -1   6   68.49    3.10
  -1   1  -6  535.35   15.10
  -1   1  -6  534.25   14.60
   1  -1   6  570.24   14.60
   1  -1   6  554.44   15.00
  -2   1  -6   19.30    2.70
   2  -1   6   27.70    3.20
   2  -1   6   23.80    2.80
   2  -1   6   20.20    2.50
  -3   1  -6   41.40    2.30
  -3   1  -6   48.30    5.00
  -3   1  -6   46.10    3.80
   3  -1   6   47.10    3.90
   3  -1   6   47.20    3.60
   3  -1   6   40.50    2.50
  -4   1  -6  135.99    7.50
  -4   1  -6  154.58    8.60
  -4   1  -6  151.58    6.00
   4  -1   6  163.18    6.50
  -5   1  -6    7.30    2.00
  -5   1  -6    8.10    3.20
  -5   1  -6    0.80    1.70
  -6   1  -6   -0.80    2.10
  -6   1  -6   -0.70    1.90
   6  -1   6   -2.30    2.00
  -6   0   6    0.60    2.40
   5   0  -6   81.49    9.50
  -5   0   6   85.69    8.30
   4   0  -6    1.00    1.90
  -4   0   6    0.40    1.60
   3   0  -6  209.78   10.10
  -3   0   6  203.18    8.50
   2   0  -6 2339.17   55.29
   2   0  -6 2464.85   57.99
   2   0  -6 2428.86   52.99
  -2   0   6 2301.57   57.09
  -2   0   6 2434.26   52.79
  -2   0   6 2452.85   55.79
   1   0  -6  926.71   22.20
   1   0  -6  914.41   22.70
   1   0  -6  967.90   24.20
  -1   0   6  943.71   22.10
  -1   0   6  898.51   23.70
  -1   0   6  965.80   23.00
   0   0  -6  507.25   13.00
   0   0  -6  515.35   13.30
   0   0  -6  477.55   12.70
   0   0   6  487.85   12.70
   0   0   6  483.55   12.70
   0   0   6  468.35   13.00
  -1   0  -6 1395.86   33.20
  -1   0  -6 1348.57   30.30
  -1   0  -6 1364.76   30.30
  -1   0  -6 1392.76   32.40
   1   0   6 1326.17   32.70
   1   0   6 1382.06   32.20
  -2   0  -6    0.30    1.00
  -2   0  -6    0.70    0.40
   2   0   6   -1.00    0.60
   2   0   6   -0.20    0.30
   2   0   6    0.70    0.90
   2   0   6    0.10    0.90
  -3   0  -6  503.95   15.80
  -3   0  -6  499.05   13.20
   3   0   6  542.05   16.00
   3   0   6  531.95   19.00
   3   0   6  509.85   13.30
   3   0   6  488.65   15.30
  -4   0  -6  131.19    7.10
  -4   0  -6  116.69    5.30
  -4   0  -6  116.89    7.40
   4   0   6  123.99    5.60
   4   0   6  128.69    7.30
  -5   0  -6    0.90    2.30
  -5   0  -6    0.40    1.60
   5   0   6    2.90    2.00
   5   0   6    0.90    1.60
  -6   0  -6   -1.70    2.00
  -6   0  -6   -0.30    2.00
   6   0   6   -0.30    2.20
   6  -1  -6    4.00    4.10
  -6   1   6    7.10    3.40
   5  -1  -6   22.60    5.30
  -5   1   6   13.60    3.40
   4  -1  -6    9.70    3.30
  -4   1   6    5.50    2.20
   3  -1  -6   42.70    5.20
  -3   1   6   49.99    4.90
   2  -1  -6   63.09    3.70
   2  -1  -6   66.49    4.90
  -2   1   6   64.59    4.60
  -2   1   6   74.69    4.20
  -2   1   6   68.19    2.20
   1  -1  -6   89.29    4.80
   1  -1  -6   92.29    3.90
   1  -1  -6   90.39    3.60
  -1   1   6   87.79    3.40
  -1   1   6   84.69    4.50
  -1   1   6   85.69    3.90
   0  -1  -6  126.39    4.70
   0  -1  -6  124.89    5.10
   0  -1  -6  131.89    5.10
   0   1   6  142.69    5.20
   0   1   6  139.19    4.80
   0   1   6  144.69    5.00
  -1  -1  -6 1221.48   29.50
  -1  -1  -6 1226.88   28.30
  -1  -1  -6 1243.98   30.50
  -1  -1  -6 1271.27   28.30
   1   1   6 1231.58   30.20
   1   1   6 1265.67   29.50
  -2  -1  -6   15.50    1.50
   2   1   6   18.20    2.50
   2   1   6   10.40    1.90
   2   1   6   13.30    1.30
   2   1   6   13.00    2.00
  -3  -1  -6  438.36   14.50
  -3  -1  -6  450.75   12.60
   3   1   6  401.56   13.80
   3   1   6  460.95   12.20
   3   1   6  456.15   14.20
  -4  -1  -6  145.49    8.20
  -4  -1  -6  147.29    7.70
  -4  -1  -6  142.49    6.20
   4   1   6  151.98    6.40
   4   1   6  149.99    7.90
  -5  -1  -6   18.60    4.30
  -5  -1  -6   19.80    3.60
  -5  -1  -6   12.80    2.60
   5   1   6   17.40    3.80
   5   1   6   11.00    2.50
  -6  -1  -6    0.50    2.10
   6   1   6   -1.50    2.00
   6  -2  -6   -1.50    2.90
  -6   2   6    0.20    2.40
   5  -2  -6    3.70    3.10
  -5   2   6   -1.00    1.60
   4  -2  -6   48.90    6.30
  -4   2   6   44.20    4.90
   3  -2  -6    2.80    2.00
  -3   2   6    2.10    1.30
   2  -2  -6  599.54   19.20
   2  -2  -6  655.23   14.30
   2  -2  -6  575.24   16.10
  -2   2   6  571.84   16.40
  -2   2   6  572.04   13.60
   1  -2  -6    0.90    0.70
   1  -2  -6    1.40    0.80
   1  -2  -6    0.20    1.00
  -1   2   6    3.30    1.00
  -1   2   6    0.90    0.70
  -1   2   6   -0.20    0.80
   0  -2  -6  136.99    5.30
   0  -2  -6  124.49    5.10
   0  -2  -6  116.89    4.40
   0  -2  -6  133.19    5.00
   0   2   6  127.69    4.50
   0   2   6  128.69    5.00
  -1  -2  -6    0.10    0.60
  -1  -2  -6   -0.30    0.60
  -1  -2  -6   -0.60    0.80
  -1  -2  -6   -0.20    0.50
   1   2   6    0.70    0.80
   1   2   6    1.20    0.90
   1   2   6   -0.30    0.50
   1   2   6   -0.10    0.60
  -2  -2  -6    8.30    1.40
  -2  -2  -6    9.80    2.10
   2   2   6    8.20    1.30
   2   2   6    9.60    1.90
   2   2   6   12.20    1.90
   2   2   6    9.30    1.90
  -3  -2  -6  200.28    7.20
  -3  -2  -6  202.68    8.80
   3   2   6  204.68    8.40
   3   2   6  201.18    8.30
   3   2   6  218.58    7.30
  -4  -2  -6    7.70    2.60
  -4  -2  -6    7.90    2.00
  -4  -2  -6    8.00    2.30
   4   2   6   12.00    2.80
   4   2   6    8.20    1.90
  -5  -2  -6    7.70    2.70
  -5  -2  -6    5.10    2.70
  -5  -2  -6    1.80    2.30
   5   2   6    6.50    2.10
   5   2   6    7.10    2.90
   6  -3  -6   24.70    6.20
  -6   3   6   29.10    5.80
   5  -3  -6   18.50    4.50
  -5   3   6   16.60    4.00
   4  -3  -6   29.80    5.30
  -4   3   6   20.00    3.60
   3  -3  -6    9.50    2.90
  -3   3   6    6.50    1.90
   2  -3  -6  250.17    8.50
   2  -3  -6  253.47    6.80
   2  -3  -6  259.47   10.50
  -2   3   6  251.87   10.00
  -2   3   6  256.47    8.80
  -2   3   6  256.87    6.50
   1  -3  -6   33.90    2.30
   1  -3  -6   35.00    2.30
   1  -3  -6   36.20    3.70
  -1   3   6   43.70    3.30
  -1   3   6   36.30    2.50
  -1   3   6   31.90    2.10
   0  -3  -6  189.88    6.80
   0  -3  -6  196.18    6.90
   0  -3  -6  199.28    7.10
   0  -3  -6  189.98    6.00
   0   3   6  193.98    6.00
   0   3   6  189.98    6.60
  -1  -3  -6   47.00    3.50
  -1  -3  -6   54.49    3.00
   1   3   6   48.60    2.90
   1   3   6   49.99    2.80
   1   3   6   50.29    3.30
   1   3   6   51.39    2.70
  -2  -3  -6  217.78    8.80
  -2  -3  -6  218.48    7.50
   2   3   6  235.48    7.80
   2   3   6  226.68    7.90
   2   3   6  221.78    7.20
   2   3   6  214.68    8.30
  -3  -3  -6    3.00    1.30
  -3  -3  -6    0.30    1.20
   3   3   6    2.90    1.40
   3   3   6    3.00    1.40
   3   3   6    1.30    1.10
  -4  -3  -6    1.00    1.40
  -4  -3  -6    2.40    1.90
   4   3   6    4.30    1.70
   4   3   6    2.00    1.60
  -5  -3  -6   13.70    3.20
   5   3   6   19.20    3.80
   5   3   6   16.40    3.00
   6  -4  -6    1.00    3.10
  -6   4   6    0.70    2.60
   5  -4  -6    5.80    3.30
  -5   4   6    2.30    2.30
   4  -4  -6    5.40    2.90
  -4   4   6    3.90    2.30
   3  -4  -6  126.89    8.20
  -3   4   6  140.49    7.00
   2  -4  -6  164.28    6.50
   2  -4  -6  186.38    8.60
   2  -4  -6  172.08    5.30
  -2   4   6  175.38    5.00
  -2   4   6  175.88    8.10
  -2   4   6  168.18    6.80
   1  -4  -6   98.59    4.20
   1  -4  -6   94.79    5.40
   1  -4  -6   93.99    3.90
   1  -4  -6   97.49    5.10
  -1   4   6   94.19    3.90
  -1   4   6   99.89    4.20
   0  -4  -6    8.30    1.30
   0  -4  -6    9.80    1.90
   0  -4  -6    6.70    1.50
   0  -4  -6    8.80    1.70
   0   4   6    7.10    1.60
   0   4   6   11.90    1.40
  -1  -4  -6    1.20    0.80
   1   4   6   -0.60    0.70
   1   4   6   -0.30    0.60
   1   4   6    0.20    0.70
   1   4   6    0.60    0.60
  -2  -4  -6  121.19    6.30
  -2  -4  -6  113.99    5.20
   2   4   6  109.89    6.40
   2   4   6  114.79    5.00
   2   4   6  115.79    5.20
   2   4   6  120.79    5.10
  -3  -4  -6  734.73   21.50
  -3  -4  -6  735.53   20.00
   3   4   6  722.43   19.50
   3   4   6  733.13   20.10
   3   4   6  667.93   19.80
  -4  -4  -6   51.49    5.60
   4   4   6   45.30    5.00
   4   4   6   40.30    4.20
  -5  -4  -6    1.40    2.10
   5   4   6    2.00    2.00
   5   4   6    1.10    1.60
   5  -5  -6    0.60    2.60
  -5   5   6    1.10    2.10
   4  -5  -6    1.00    3.70
  -4   5   6    1.60    1.80
   3  -5  -6   32.80    5.00
  -3   5   6   30.90    3.80
   2  -5  -6   19.80    3.60
   2  -5  -6   19.30    1.90
   2  -5  -6   22.10    3.60
   2  -5  -6   23.00    2.60
  -2   5   6   24.00    2.80
  -2   5   6   18.90    1.50
  -2   5   6   17.00    3.10
   1  -5  -6   37.30    2.40
   1  -5  -6   42.60    3.50
   1  -5  -6   42.30    2.80
   1  -5  -6   48.50    5.30
  -1   5   6   46.50    2.70
  -1   5   6   42.60    2.60
   0  -5  -6  520.65   15.10
   0  -5  -6  511.85   14.70
   0  -5  -6  533.95   15.40
   0  -5  -6  511.05   13.10
   0   5   6  515.95   13.00
   0   5   6  510.25   14.40
  -1  -5  -6    4.00    1.30
  -1  -5  -6    1.30    1.10
   1   5   6    2.10    1.10
   1   5   6    2.40    1.20
   1   5   6    0.70    0.70
   1   5   6    2.20    0.80
  -2  -5  -6   74.29    5.00
  -2  -5  -6   72.99    4.50
   2   5   6   76.69    3.90
   2   5   6   79.99    4.40
   2   5   6   78.89    3.90
  -3  -5  -6   42.10    4.70
  -3  -5  -6   45.90    4.50
   3   5   6   39.70    3.90
   3   5   6   39.30    3.40
   3   5   6   43.40    3.50
  -4  -5  -6   13.90    3.00
   4   5   6   15.70    2.90
   4   5   6   18.50    3.30
  -5  -5  -6    0.10    2.00
   5   5   6    0.70    1.80
   5   5   6    2.90    1.90
   5  -6  -6   13.80    4.70
  -5   6   6   17.30    4.00
   4  -6  -6   -1.60    2.00
  -4   6   6   -0.30    1.50
   2  -6  -6   27.60    2.90
   2  -6  -6   26.90    4.00
   2  -6  -6   24.40    2.10
  -2   6   6   22.70    2.70
  -2   6   6   22.20    1.80
   1  -6  -6    0.90    0.70
   1  -6  -6    1.10    1.40
   1  -6  -6    0.20    1.10
   1  -6  -6    0.10    0.80
  -1   6   6    0.60    0.70
  -1   6   6    0.80    0.80
   0  -6  -6   76.99    4.70
   0  -6  -6   71.39    4.60
   0   6   6   72.89    4.10
   0   6   6   72.19    3.00
  -1  -6  -6   41.70    3.40
  -1  -6  -6   43.80    3.60
   1   6   6   38.30    3.20
   1   6   6   35.20    2.20
   1   6   6   37.70    2.10
   1   6   6   41.60    3.30
  -2  -6  -6  122.79    6.70
  -2  -6  -6  117.39    6.20
   2   6   6  129.49    6.10
   2   6   6  126.99    5.20
   2   6   6  126.89    5.00
  -3  -6  -6    1.90    1.60
  -3  -6  -6    1.80    1.60
   3   6   6    3.00    1.50
   3   6   6    1.70    1.20
   3   6   6    2.50    1.60
  -4  -6  -6    8.70    3.00
   4   6   6   10.30    2.60
   4   6   6   15.20    2.90
  -5  -6  -6    5.90    2.70
   5   6   6    6.80    2.50
   5   6   6    6.40    2.40
   5  -7  -6    8.80    4.10
  -5   7   6   13.80    3.70
   4  -7  -6    2.30    2.40
  -4   7   6    4.30    2.30
   3  -7  -6    5.70    2.60
   3  -7  -6    3.70    0.90
   3  -7  -6    4.00    0.90
  -3   7   6    3.60    1.60
   2  -7  -6    2.40    2.00
   2  -7  -6    2.20    1.00
   2  -7  -6    0.50    0.90
  -2   7   6    1.30    0.80
  -2   7   6    0.30    0.90
   1  -7  -6  175.48    6.00
   1  -7  -6  194.58    9.00
   1  -7  -6  197.48    7.30
   1  -7  -6  177.68    8.20
  -1   7   6  186.08    6.80
  -1   7   6  195.38    6.40
   0  -7  -6  221.08    8.50
   0  -7  -6  216.08    8.90
   0  -7  -6  229.38    9.20
   0  -7  -6  213.78    6.30
   0   7   6  219.68    6.20
   0   7   6  201.88    7.80
  -1  -7  -6 1021.10   27.00
   1   7   6 1015.20   23.10
   1   7   6  974.40   27.10
   1   7   6  985.80   23.40
  -2  -7  -6    6.50    2.20
  -2  -7  -6    4.70    1.90
   2   7   6    7.40    1.30
   2   7   6    6.20    1.40
   2   7   6    7.90    2.10
  -3  -7  -6  213.78   10.10
  -3  -7  -6  202.38    9.40
   3   7   6  214.78    7.90
   3   7   6  220.28    8.60
   3   7   6  217.18    9.20
  -4  -7  -6   12.00    3.50
   4   7   6    7.00    2.40
   4   7   6    8.10    2.30
  -5  -7  -6   -0.50    2.00
   5   7   6    0.00    1.70
   5   7   6   -0.50    1.70
   5  -8  -6    8.20    3.80
  -5   8   6    8.00    3.10
   4  -8  -6    4.50    3.00
   3  -8  -6    3.20    1.10
   3  -8  -6    8.20    3.40
   3  -8  -6    7.20    1.30
  -3   8   6    5.50    2.10
   2  -8  -6    3.80    1.40
   2  -8  -6    4.20    1.30
   2  -8  -6    6.50    2.50
  -2   8   6    4.30    1.60
  -2   8   6    3.80    1.20
   1  -8  -6   34.50    2.20
   1  -8  -6   31.90    4.20
   1  -8  -6   39.10    3.30
  -1   8   6   30.40    2.30
  -1   8   6   34.70    3.30
   0  -8  -6  312.77   11.80
   0  -8  -6  312.87   11.00
   0  -8  -6  300.17   11.50
   0  -8  -6  310.97    8.10
   0   8   6  297.97    7.90
   0   8   6  298.87   11.30
   0   8   6  311.87   11.40
  -1  -8  -6   62.79    4.80
  -1  -8  -6   72.99    5.20
   1   8   6   53.99    4.30
   1   8   6   62.69    2.50
   1   8   6   64.19    2.30
  -2  -8  -6  105.69    6.50
  -2  -8  -6  102.69    6.50
   2   8   6  103.49    6.10
   2   8   6  103.99    4.00
   2   8   6  102.39    4.10
  -3  -8  -6   95.39    6.80
   3   8   6   91.39    4.70
   3   8   6   99.89    4.80
   3   8   6  101.49    6.30
  -4  -8  -6    8.30    3.00
   4   8   6    5.80    2.40
   4   8   6    6.30    2.00
   5   8   6   44.30    5.60
   5   8   6   36.50    4.70
   5  -9  -6    4.30    4.00
  -5   9   6    1.40    2.30
   4  -9  -6    8.30    3.60
  -4   9   6   10.90    3.00
   3  -9  -6    3.60    1.30
   3  -9  -6    2.50    2.40
   3  -9  -6    4.40    1.30
  -3   9   6    2.40    1.50
   2  -9  -6  116.49    5.20
   2  -9  -6  113.59    6.10
   2  -9  -6  120.39    8.00
  -2   9   6  121.39    5.20
  -2   9   6  121.49    5.70
   1  -9  -6   83.89    6.20
   1  -9  -6   83.99    4.90
   1  -9  -6   74.69    3.30
  -1   9   6   69.89    4.20
  -1   9   6   75.89    3.60
   0  -9  -6   29.00    4.00
   0  -9  -6   22.30    3.20
   0   9   6   25.90    3.70
   0   9   6   20.60    1.20
  -1  -9  -6   58.09    4.80
   1   9   6   58.99    4.70
  -2  -9  -6   30.40    4.10
   2   9   6   35.10    4.50
   2   9   6   33.30    1.90
  -3  -9  -6   37.80    5.00
   3   9   6   35.40    2.80
   3   9   6   42.70    5.10
   3   9   6   45.50    3.00
  -4  -9  -6   37.70    5.70
   4   9   6   39.00    4.00
   4   9   6   42.70    5.30
   5 -10  -6   -0.20    3.10
  -5  10   6    0.90    2.40
   4 -10  -6   11.60    4.00
  -4  10   6    9.90    2.90
   3 -10  -6    7.20    1.60
   3 -10  -6    6.90    3.20
   3 -10  -6    9.50    2.00
  -3  10   6    8.40    2.30
   2 -10  -6   42.70    3.00
   2 -10  -6   37.50    3.90
   2 -10  -6   41.40    5.60
  -2  10   6   38.10    3.30
  -2  10   6   40.10    3.20
   1 -10  -6   54.69    2.70
   1 -10  -6   58.39    4.40
   1 -10  -6   65.09    5.80
  -1  10   6   64.99    3.10
   0 -10  -6    1.20    1.80
   0 -10  -6    5.00    2.10
   0  10   6   -0.50    1.20
  -1 -10  -6  151.78    8.00
   1  10   6  153.38    8.10
  -2 -10  -6    3.20    2.00
   2  10   6    4.20    2.10
  -3 -10  -6   34.30    5.00
   3  10   6   27.80    2.30
   3  10   6   32.90    2.40
   3  10   6   27.70    4.40
  -4 -10  -6    9.40    3.40
   4  10   6   11.80    2.30
   4  10   6   13.20    3.50
   4 -11  -6    7.90    4.20
  -4  11   6    5.60    2.60
   3 -11  -6    0.20    1.60
   3 -11  -6    2.60    2.60
   3 -11  -6    0.70    1.40
  -3  11   6    1.00    1.60
   2 -11  -6   11.30    2.40
   2 -11  -6    7.40    1.60
   2 -11  -6   11.10    3.40
  -2  11   6   10.70    2.20
   1 -11  -6   62.29    4.60
   1 -11  -6   63.19    6.90
   1 -11  -6   51.69    3.60
  -1  11   6   56.79    2.70
   0 -11  -6  105.79    6.50
   0 -11  -6   98.29    7.10
   0  11   6  109.09    7.00
  -1 -11  -6   65.99    6.60
   1  11   6   65.49    5.50
  -2 -11  -6   77.29    6.30
   2  11   6   87.39    6.40
  -3 -11  -6   12.60    3.50
   3  11   6    7.00    1.10
  -4 -11  -6   67.89    7.60
   4  11   6   75.09    6.70
  -4  12   6    1.40    2.00
   3 -12  -6    9.00    3.50
   3 -12  -6    6.80    1.80
  -3  12   6    5.10    2.00
   2 -12  -6   14.50    2.00
   2 -12  -6   10.60    2.40
   2 -12  -6   14.00    4.10
  -2  12   6   18.60    2.60
   1 -12  -6   51.99    6.40
   1 -12  -6   58.29    4.80
   0 -12  -6  259.57   12.40
   0 -12  -6  264.27   11.20
   0  12   6  260.57   11.90
  -1 -12  -6   21.20    3.80
   1  12   6   22.90    4.20
  -2 -12  -6    8.70    3.00
  -3 -12  -6   -0.20    1.70
   3  12   6    4.00    2.50
   4 -13  -6   12.50    4.80
  -4  13   6    6.30    2.60
   3 -13  -6   -0.10    1.30
   3 -13  -6    0.20    2.70
  -3  13   6    1.00    1.60
   2 -13  -6   59.29    7.70
   2 -13  -6   53.89    3.20
   2 -13  -6   66.69    5.00
  -2  13   6   53.29    3.50
   1 -13  -6    3.70    2.10
   1 -13  -6    0.10    2.20
   0 -13  -6   58.09    7.00
   0 -13  -6   45.80    5.50
  -1 -13  -6   19.50    3.80
   1  13   6   26.70    4.70
  -2 -13  -6   -1.10    1.60
   2  13   6    1.20    2.00
  -3 -13  -6   65.39    7.60
   3  13   6   67.39    7.40
   3 -14  -6    9.30    2.30
  -3  14   6    4.60    2.00
   2 -14  -6   60.29    7.80
   2 -14  -6   56.69    5.60
  -2  14   6   56.59    3.30
   1 -14  -6    9.20    2.70
   1 -14  -6   15.20    4.30
   0 -14  -6  160.68    9.00
   0 -14  -6  148.69   10.00
  -1 -14  -6   -1.10    1.80
   1  14   6   -0.10    1.60
  -2 -14  -6   31.70    5.30
   2  14   6   39.70    5.90
  -3 -14  -6   37.70    6.00
   3  14   6   48.20    6.60
   3 -15  -6   32.90    4.30
   3 -15  -6   23.30    5.90
  -3  15   6   23.60    3.40
   2 -15  -6    7.60    2.40
   2 -15  -6    6.60    3.50
   1 -15  -6   25.10    4.30
   1 -15  -6   26.00    5.30
   0 -15  -6    0.50    2.00
   0 -15  -6    2.00    2.70
  -1 -15  -6   30.60    5.20
   1  15   6   30.10    5.00
  -2 -15  -6    4.50    2.80
   2  15   6    4.20    2.70
   2 -16  -6   -0.10    1.90
   2 -16  -6   -2.60    2.50
   1 -16  -6    9.90    3.00
   1 -16  -6   14.50    4.90
   0 -16  -6    1.60    2.30
   0 -16  -6    1.40    2.90
  -1 -16  -6   -1.80    2.00
   1  16   6    1.10    2.20
   1 -17  -6   16.40    4.00
   1 -17  -6    7.00    4.10
   0 -17  -6   -0.60    2.70
   0 -17  -6    3.60    2.70
  -1 -20   7    0.60    2.30
   0  20  -7   17.40    4.60
   0 -20   7   21.60    4.40
  -1  20  -7   13.70    4.40
   1 -20   7   13.90    3.70
   2  19  -7   18.90    5.20
  -2 -19   7   25.40    4.60
   1  19  -7   31.50    6.70
  -1 -19   7   44.70    6.10
   0  19  -7   34.20    5.80
   0 -19   7   46.30    5.90
  -1  19  -7    2.40    2.40
   1 -19   7    5.60    1.60
   1 -19   7    3.60    2.40
  -2  19  -7   13.50    3.80
   2 -19   7   17.10    2.80
   2 -19   7   18.20    3.90
   2 -19   7   25.00    5.30
   2  18  -7   95.19   10.10
  -2 -18   7   66.79   11.10
   1  18  -7   22.10    4.70
  -1 -18   7   23.80    2.30
  -1 -18   7   24.20    4.20
   0  18  -7    0.70    2.30
   0 -18   7    0.50    1.00
   0 -18   7   -0.60    1.70
  -1  18  -7    8.00    3.20
   1 -18   7   14.10    2.30
   1 -18   7   13.30    3.20
  -2  18  -7   -1.60    1.90
   2 -18   7    0.40    2.00
   2 -18   7   -0.50    1.30
   3 -18   7   50.39    5.30
   3 -18   7   56.59    7.40
   3 -18   7   30.40    4.60
   3  17  -7  187.78   12.80
  -3 -17   7  176.28   11.70
   2  17  -7   50.09    7.50
  -2 -17   7   40.00    4.20
  -2 -17   7   44.60    5.60
   1  17  -7   -1.30    2.00
  -1 -17   7   -0.80    1.60
  -1 -17   7    0.00    0.90
   0  17  -7    1.80    2.10
   0 -17   7    0.10    1.20
   0 -17   7    1.80    1.70
  -1  17  -7   35.00    5.50
   1 -17   7   27.50    3.20
   1 -17   7   22.90    4.10
   1 -17   7   31.40    4.60
  -2  17  -7    1.70    2.30
   2 -17   7   -0.30    1.50
   2 -17   7    1.00    1.30
   3 -17   7   -0.40    1.90
   3 -17   7    0.00    1.80
   3 -17   7    0.50    1.50
  -3 -16   7   38.70    5.40
  -3 -16   7   35.00    3.80
   2  16  -7   26.40    5.30
  -2 -16   7   14.00    2.20
  -2 -16   7   12.40    3.00
   1  16  -7    5.90    1.60
   1  16  -7    6.10    2.90
  -1 -16   7    6.20    1.80
  -1 -16   7   11.30    3.00
   0  16  -7   -0.50    1.70
   0 -16   7   -1.00    0.80
   0 -16   7   -1.50    1.10
  -1  16  -7   15.40    3.70
   1 -16   7   21.00    3.30
   1 -16   7   19.50    3.50
   1 -16   7   25.10    3.00
  -2  16  -7    0.40    1.70
   2 -16   7    0.50    1.50
   2 -16   7    0.90    1.20
   3 -16   7    0.60    1.60
   3 -16   7    2.30    2.20
   3 -16   7    0.20    1.60
   4 -16   7    2.80    2.70
   4 -16   7    2.90    2.30
   4 -16   7    4.20    2.10
   4  15  -7   -1.30    2.40
  -4 -15   7   -0.70    2.00
  -4 -15   7   -0.60    1.70
   3  15  -7    1.70    2.90
  -3 -15   7   -0.90    1.70
  -3 -15   7    1.60    1.40
   2  15  -7    0.80    1.20
   2  15  -7    1.20    2.30
  -2 -15   7   -0.70    0.90
  -2 -15   7   -1.30    1.40
   1  15  -7    6.10    1.60
   1  15  -7    7.50    3.00
  -1 -15   7    6.70    2.30
   0  15  -7    0.40    1.70
   0 -15   7    1.30    1.50
   0 -15   7    0.30    0.90
  -1  15  -7  101.69    7.20
   1 -15   7  101.49    5.90
   1 -15   7  110.29    5.40
   1 -15   7  124.19    7.00
  -2  15  -7    0.50    1.60
   2 -15   7    0.90    1.40
   2 -15   7    0.60    1.30
   3 -15   7   13.20    2.90
   4 -15   7    1.90    1.80
   4 -15   7   -0.90    1.90
   4 -15   7    0.60    1.70
   4  14  -7    5.80    3.80
  -4 -14   7    5.00    2.30
  -4 -14   7    7.10    2.80
   3  14  -7   45.50    6.70
  -3 -14   7   44.60    4.50
  -3 -14   7   44.40    5.10
   2  14  -7   31.70    5.50
   2  14  -7   32.10    3.30
  -2 -14   7   45.10    5.20
  -2 -14   7   33.40    3.50
   1  14  -7    9.00    2.00
   1  14  -7    9.50    3.00
  -1 -14   7    7.40    2.50
   0  14  -7  115.89    7.70
   0 -14   7  121.69    7.60
   0 -14   7  125.39    6.00
   0 -14   7  117.59    6.80
  -1  14  -7   29.60    4.10
   1 -14   7   30.70    4.10
   1 -14   7   20.90    3.10
   1 -14   7   26.10    3.10
  -2  14  -7   15.30    3.10
   2 -14   7   16.70    2.90
   2 -14   7   21.00    3.30
   3 -14   7   43.70    5.20
   3 -14   7   43.80    5.40
   3 -14   7   40.60    4.80
   4 -14   7    0.30    1.70
   4 -14   7   -0.20    1.50
   4  13  -7    4.30    3.40
  -4 -13   7    1.10    1.90
  -4 -13   7    4.20    2.00
   3  13  -7    2.90    2.50
  -3 -13   7    2.40    2.00
  -3 -13   7    2.20    1.40
   2  13  -7  128.49    9.50
   2  13  -7  113.69    5.50
  -2 -13   7  113.89    5.60
  -2 -13   7  119.09    6.70
   1  13  -7    4.70    2.50
   1  13  -7    2.20    1.20
  -1 -13   7    0.80    1.40
   0  13  -7   51.09    5.60
   0  13  -7   50.29    3.50
   0 -13   7   59.09    4.50
  -1  13  -7   38.50    4.70
   1 -13   7   43.10    3.30
   1 -13   7   39.10    4.20
   1 -13   7   29.50    3.60
  -2  13  -7   36.20    4.50
   2 -13   7   30.30    3.60
   2 -13   7   39.80    4.40
   3 -13   7   68.09    5.30
   3 -13   7   75.79    5.20
   3 -13   7   65.79    5.60
   4 -13   7   60.89    6.70
   4 -13   7   51.19    6.00
   4 -13   7   59.99    4.80
   5 -13   7    6.60    2.40
   5 -13   7    8.00    3.20
   5 -13   7    8.40    3.40
   4  12  -7   10.80    4.00
  -4 -12   7   12.20    3.20
  -4 -12   7   12.00    3.00
   3  12  -7    7.10    3.30
  -3 -12   7    3.70    1.60
  -3 -12   7    6.80    2.30
   2  12  -7    0.50    1.00
   2  12  -7    0.90    2.00
  -2 -12   7    2.80    1.30
  -2 -12   7    1.50    1.50
   1  12  -7   21.70    2.60
   1  12  -7   34.10    5.00
  -1 -12   7   25.60    3.30
   0  12  -7  550.64   18.00
   0  12  -7  540.15   15.30
   0 -12   7  528.75   16.40
   0 -12   7  533.45   15.10
  -1  12  -7    9.90    2.40
   1 -12   7   11.90    2.40
   1 -12   7    7.90    2.00
   1 -12   7   11.50    2.10
  -2  12  -7   28.40    3.70
   2 -12   7   29.70    3.50
   2 -12   7   25.90    3.40
   3 -12   7   70.39    5.00
   3 -12   7   79.89    5.70
   3 -12   7   70.69    5.40
   4 -12   7    0.60    1.30
   4 -12   7   -0.10    1.60
   4 -12   7    1.10    2.10
   5 -12   7    7.20    3.00
   5 -12   7    8.00    2.40
   5  11  -7    0.80    3.00
  -5 -11   7    2.60    2.30
  -5 -11   7    1.80    1.90
   4  11  -7   19.30    4.80
  -4 -11   7   18.00    3.30
   3  11  -7   99.29    8.00
  -3 -11   7  106.39    6.10
  -3 -11   7  102.19    5.90
   2  11  -7  560.14   19.70
   2  11  -7  527.75   15.50
  -2 -11   7  565.34   16.80
  -2 -11   7  540.55   15.90
   1  11  -7   35.00    3.30
   1  11  -7   31.70    4.40
  -1 -11   7   33.70    2.80
  -1 -11   7   28.80    3.40
   0  11  -7  558.14   17.80
   0  11  -7  538.35   15.30
   0 -11   7  561.54   16.40
   0 -11   7  544.95   15.00
   0 -11   7  514.55   18.80
  -1  11  -7  129.59    6.60
   1 -11   7  124.09    5.60
   1 -11   7  112.89    6.60
   1 -11   7  115.19    6.10
   1 -11   7  119.59    6.00
  -2  11  -7  549.25   17.60
  -2  11  -7  522.35   16.30
   2 -11   7  557.74   16.40
   2 -11   7  503.85   16.70
   2 -11   7  535.95   16.40
  -3  11  -7   58.69    5.70
   3 -11   7   64.89    5.10
   3 -11   7   68.39    5.10
   3 -11   7   60.59    4.80
  -4  11  -7   34.90    4.60
   4 -11   7   33.50    4.50
   4 -11   7   34.30    4.80
   5 -11   7    3.00    2.50
   5 -11   7    2.80    1.90
   5 -11   7    0.10    1.90
   5  10  -7   66.29    8.60
  -5 -10   7   74.59    5.50
  -5 -10   7   66.69    6.90
   4  10  -7   17.90    4.80
  -4 -10   7   43.80    7.80
  -4 -10   7   30.20    3.90
   3  10  -7   95.59    7.70
  -3 -10   7   86.39    5.40
  -3 -10   7   95.09    5.60
   2  10  -7   21.40    4.20
   2  10  -7   18.00    2.40
  -2 -10   7   18.60    2.70
  -2 -10   7   18.30    3.00
   1  10  -7  150.18    8.10
   1  10  -7  135.99    5.70
  -1 -10   7  151.08    6.00
  -1 -10   7  138.89    6.50
   0  10  -7  467.85   13.80
   0  10  -7  508.35   15.90
   0 -10   7  492.25   14.70
   0 -10   7  494.55   13.80
   0 -10   7  476.05   15.80
  -1  10  -7  134.39    6.50
  -1  10  -7  142.89    7.20
   1 -10   7  131.59    5.80
   1 -10   7  125.99    7.00
   1 -10   7  113.69    6.30
   1 -10   7  142.09    6.40
  -2  10  -7    9.80    2.10
  -2  10  -7    7.10    2.20
   2 -10   7   10.70    2.20
   2 -10   7    7.50    1.90
  -3  10  -7  407.66   14.40
   3 -10   7  398.56   13.50
   3 -10   7  429.36   14.50
   3 -10   7  370.56   13.10
  -4  10  -7    2.20    1.90
   4 -10   7    1.20    1.50
   4 -10   7   -0.50    1.50
   4 -10   7    1.80    1.60
  -5  10  -7   36.80    4.80
   5 -10   7   19.90    4.20
   5 -10   7   29.60    4.40
   5   9  -7    2.20    3.00
  -5  -9   7    5.80    2.10
  -5  -9   7    8.50    2.90
   4   9  -7   21.70    5.10
  -4  -9   7   25.30    4.00
  -4  -9   7   30.10    3.70
   3   9  -7  274.37   13.30
  -3  -9   7  272.27    9.90
  -3  -9   7  279.97   10.50
   2   9  -7   22.00    4.20
   2   9  -7   19.30    2.60
  -2  -9   7   17.70    2.60
  -2  -9   7   23.40    2.90
  -2  -9   7   18.60    3.20
   1   9  -7    0.10    1.30
   1   9  -7    1.10    0.80
  -1  -9   7   -1.60    0.90
  -1  -9   7    1.60    1.10
  -1  -9   7    1.00    0.90
  -1  -9   7   -0.70    1.10
   0   9  -7   -0.20    0.70
   0   9  -7   -1.20    1.10
   0  -9   7    1.20    0.90
   0  -9   7   -0.80    1.00
   0  -9   7    0.40    1.10
   0  -9   7    0.30    0.80
  -1   9  -7  261.87    9.40
  -1   9  -7  274.97   10.30
   1  -9   7  265.87   10.50
   1  -9   7  269.27   10.30
   1  -9   7  264.27    9.70
  -2   9  -7    3.60    1.40
  -2   9  -7    3.80    1.90
   2  -9   7    2.40    1.50
   2  -9   7    5.80    1.70
  -3   9  -7   23.10    3.60
   3  -9   7   22.90    3.40
   3  -9   7   26.50    3.30
   3  -9   7   25.60    3.20
  -4   9  -7    0.20    1.60
   4  -9   7    0.90    1.40
   4  -9   7    1.30    1.40
   4  -9   7    1.50    1.70
  -5   9  -7    2.30    2.10
   5  -9   7    2.40    2.00
   5  -9   7    1.60    2.40
   5   8  -7  115.99   10.30
  -5  -8   7  130.19    8.50
  -5  -8   7  124.79    6.20
   4   8  -7   12.00    4.10
  -4  -8   7   10.60    2.20
  -4  -8   7    3.80    2.00
   3   8  -7  388.46   16.00
  -3  -8   7  401.16   12.30
  -3  -8   7  384.06   13.10
  -3  -8   7  378.46   12.90
   2   8  -7  210.78    7.80
   2   8  -7  216.48   10.40
  -2  -8   7  213.78    8.70
  -2  -8   7  222.98    8.00
  -2  -8   7  225.98    8.30
   1   8  -7  233.88    8.10
   1   8  -7  248.18   10.10
  -1  -8   7  262.97   10.20
  -1  -8   7  249.58    8.20
  -1  -8   7  234.98   10.00
  -1  -8   7  245.78    8.50
   0   8  -7   13.70    2.10
   0   8  -7   11.00    2.10
   0   8  -7   13.80    2.60
   0  -8   7   13.50    2.00
   0  -8   7   14.40    2.80
   0  -8   7   14.20    2.10
   0  -8   7   12.10    2.30
  -1   8  -7   54.59    3.50
  -1   8  -7   58.69    4.20
  -1   8  -7   48.10    3.40
   1  -8   7   53.69    3.60
   1  -8   7   48.10    3.70
   1  -8   7   45.90    3.30
   1  -8   7   44.80    3.70
  -2   8  -7  239.88    9.60
   2  -8   7  237.78    8.30
   2  -8   7  245.28    9.10
   2  -8   7  230.78    9.50
   2  -8   7  222.38    9.20
   2  -8   7  236.88    8.20
  -3   8  -7   81.39    5.40
   3  -8   7   71.49    5.30
   3  -8   7   77.59    4.40
   3  -8   7   78.79    4.60
  -4   8  -7    6.10    2.20
   4  -8   7    4.50    1.60
   4  -8   7    4.40    1.70
   4  -8   7    2.50    2.00
  -5   8  -7    4.70    2.30
   5  -8   7    4.00    1.90
   5  -8   7    0.70    2.20
   5   7  -7   21.70    5.20
  -5  -7   7   18.70    3.80
  -5  -7   7   12.30    2.20
   4   7  -7   10.80    4.00
  -4  -7   7   16.70    3.30
  -4  -7   7   12.00    2.20
  -4  -7   7   11.40    2.40
   3   7  -7   11.00    3.30
  -3  -7   7   10.10    2.40
   2   7  -7   28.90    4.20
   2   7  -7   27.70    2.80
  -2  -7   7   36.70    2.80
  -2  -7   7   28.40    3.30
  -2  -7   7   36.00    3.00
   1   7  -7   29.30    3.80
   1   7  -7   29.90    2.40
  -1  -7   7   29.60    3.70
  -1  -7   7   32.10    2.60
  -1  -7   7   29.30    3.20
  -1  -7   7   32.80    2.60
   0   7  -7  477.85   14.60
   0   7  -7  482.15   13.50
   0   7  -7  492.15   14.50
   0  -7   7  487.25   13.50
   0  -7   7  489.85   14.60
   0  -7   7  465.95   14.40
  -1   7  -7  139.99    5.50
  -1   7  -7  136.49    5.90
   1  -7   7  137.79    5.90
   1  -7   7  135.59    5.70
   1  -7   7  138.59    7.20
  -2   7  -7  210.78    8.70
   2  -7   7  212.48    7.30
   2  -7   7  220.78    8.40
   2  -7   7  199.78    8.40
   2  -7   7  208.58    8.80
   2  -7   7  214.58    7.20
  -3   7  -7  179.78    8.30
   3  -7   7  175.58    6.70
   3  -7   7  195.98    7.10
   3  -7   7  186.68    8.60
  -4   7  -7   91.09    6.10
   4  -7   7   99.19    5.00
   4  -7   7  100.69    5.40
   4  -7   7   95.49    7.70
  -5   7  -7   -1.10    1.60
   5  -7   7   -0.80    1.30
   5  -7   7    0.40    1.90
   5   6  -7   14.30    4.50
  -5  -6   7   10.60    1.90
  -5  -6   7    8.00    3.00
   4   6  -7  127.89    9.60
  -4  -6   7  134.39    5.60
  -4  -6   7  129.89    5.90
  -4  -6   7  130.69    7.50
   3   6  -7   15.90    3.90
  -3  -6   7   16.40    2.90
  -3  -6   7   15.20    2.30
  -3  -6   7   16.30    2.10
   2   6  -7   14.50    3.10
   2   6  -7    8.80    1.70
  -2  -6   7   18.40    3.40
  -2  -6   7   17.90    2.40
  -2  -6   7   14.40    1.90
  -2  -6   7   20.10    2.80
   1   6  -7  336.37   10.20
   1   6  -7  342.07   11.90
  -1  -6   7  348.67   10.30
  -1  -6   7  344.37   10.30
  -1  -6   7  324.47   10.80
  -1  -6   7  355.26   12.00
   0   6  -7   21.70    3.00
   0   6  -7   20.80    2.50
   0   6  -7   18.90    2.30
   0  -6   7   20.90    2.70
   0  -6   7   19.20    2.80
   0  -6   7   18.50    2.20
  -1   6  -7   84.69    4.40
  -1   6  -7   88.59    4.90
  -1   6  -7   89.59    3.90
   1  -6   7   85.29    4.00
   1  -6   7   92.39    4.50
   1  -6   7   87.79    4.80
  -2   6  -7   89.79    5.30
   2  -6   7   87.29    5.30
   2  -6   7   88.99    5.10
   2  -6   7   90.09    5.00
   2  -6   7   93.19    3.90
   2  -6   7   90.69    3.90
  -3   6  -7   38.60    4.30
   3  -6   7   33.50    2.60
   3  -6   7   33.50    3.90
   3  -6   7   31.80    2.40
  -4   6  -7   94.99    6.10
   4  -6   7   87.09    4.50
   4  -6   7   87.19    4.80
   4  -6   7   94.49    7.80
  -5   6  -7    6.90    2.50
   5  -6   7    8.10    3.00
   5   5  -7    0.40    3.00
  -5  -5   7    1.50    1.00
  -5  -5   7   -0.10    1.20
  -5  -5   7    1.20    2.10
   4   5  -7    2.30    2.70
  -4  -5   7    1.10    1.10
  -4  -5   7    1.10    0.90
  -4  -5   7    1.80    1.70
   3   5  -7  335.67   13.90
  -3  -5   7  289.57    9.60
  -3  -5   7  311.97   11.30
  -3  -5   7  306.87    9.20
   2   5  -7   -1.10    0.60
   2   5  -7    2.30    1.70
  -2  -5   7   -0.10    0.80
  -2  -5   7    1.00    0.80
  -2  -5   7    1.10    1.40
  -2  -5   7    0.60    1.10
   1   5  -7  344.47   10.40
   1   5  -7  361.76   12.10
   1   5  -7  355.16   10.90
  -1  -5   7  340.47   10.50
  -1  -5   7  349.57   10.80
  -1  -5   7  370.76   12.00
   0   5  -7    4.60    1.20
   0   5  -7    4.00    1.30
   0   5  -7    5.40    1.50
   0  -5   7    5.90    1.50
   0  -5   7    4.20    1.30
   0  -5   7    6.10    1.40
  -1   5  -7  697.03   19.00
  -1   5  -7  711.33   16.80
  -1   5  -7  642.64   18.10
   1  -5   7  694.13   17.10
   1  -5   7  676.43   18.60
   1  -5   7  685.03   18.20
  -2   5  -7  140.59    6.70
   2  -5   7  143.89    6.50
   2  -5   7  147.89    4.70
   2  -5   7  147.69    4.70
   2  -5   7  139.39    7.10
   2  -5   7  140.29    6.80
  -3   5  -7   42.50    4.60
   3  -5   7   31.40    2.30
   3  -5   7   41.40    4.70
   3  -5   7   21.40    3.00
   3  -5   7   36.00    2.20
  -4   5  -7   16.80    3.20
   4  -5   7   16.50    3.30
   4  -5   7   12.60    2.10
   4  -5   7   17.10    2.20
  -5   5  -7    8.50    2.70
   5  -5   7    8.00    3.20
   5  -5   7    4.20    1.90
  -6   5  -7    1.50    2.30
   6  -5   7    8.60    3.70
   6   4  -7   56.19    8.80
   5   4  -7   12.90    4.20
  -5  -4   7   12.70    3.40
   4   4  -7   20.10    4.50
  -4  -4   7   21.40    2.10
  -4  -4   7   21.20    3.70
  -4  -4   7   26.50    2.00
   3   4  -7   10.60    3.10
  -3  -4   7    8.40    2.20
  -3  -4   7    8.30    1.50
  -3  -4   7   12.10    1.60
   2   4  -7    0.10    0.90
   2   4  -7    1.30    1.50
  -2  -4   7    1.80    0.80
  -2  -4   7    2.70    1.20
  -2  -4   7    0.90    0.80
  -2  -4   7    3.10    1.70
   1   4  -7    2.10    1.50
   1   4  -7    0.80    0.80
   1   4  -7    1.10    0.90
  -1  -4   7    3.30    1.60
  -1  -4   7    2.90    1.10
  -1  -4   7    1.50    0.90
   0   4  -7 2352.36   53.69
   0   4  -7 2378.66   53.79
   0  -4   7 2347.86   54.19
   0  -4   7 2349.17   53.69
   0  -4   7 2325.17   53.79
  -1   4  -7    0.00    0.40
  -1   4  -7    0.40    1.10
  -1   4  -7    0.00    0.70
   1  -4   7    1.30    1.00
   1  -4   7   -0.30    0.80
   1  -4   7    0.40    0.50
   2  -4   7  296.97   10.60
   2  -4   7  300.87    7.30
   2  -4   7  312.57    7.30
   2  -4   7  285.57   10.10
   2  -4   7  285.57   11.10
  -3   4  -7  148.39    7.30
   3  -4   7  139.49    6.80
   3  -4   7  150.68    4.70
   3  -4   7  148.49    4.80
   3  -4   7  151.28    7.40
  -4   4  -7   21.00    3.40
   4  -4   7   16.80    2.20
   4  -4   7   17.90    2.10
   4  -4   7   15.60    3.10
  -5   4  -7   27.20    4.20
   5  -4   7   17.80    3.90
   5  -4   7   23.80    3.10
  -6   4  -7   46.40    5.60
   6  -4   7   58.09    7.30
   6   3  -7   21.40    5.60
  -6  -3   7   14.70    3.90
   5   3  -7    5.90    3.60
  -5  -3   7    8.80    2.90
   4   3  -7   32.70    5.40
  -4  -3   7   33.20    4.30
  -4  -3   7   34.80    1.70
  -4  -3   7   33.60    1.70
   3   3  -7   78.59    6.30
  -3  -3   7   85.19    5.20
  -3  -3   7   82.69    3.20
   2   3  -7   20.00    3.40
   2   3  -7   17.10    2.40
  -2  -3   7   14.20    1.50
  -2  -3   7   19.50    2.70
  -2  -3   7   13.30    2.80
  -2  -3   7   14.30    1.80
   1   3  -7    4.10    1.20
   1   3  -7    4.10    1.60
   1   3  -7    2.80    1.00
  -1  -3   7    4.70    1.20
  -1  -3   7    3.40    1.00
  -1  -3   7    4.80    1.50
   0   3  -7   16.60    2.10
   0   3  -7   17.00    2.00
   0   3  -7   24.20    2.70
   0  -3   7   22.40    2.30
   0  -3   7   23.30    2.60
   0  -3   7   21.30    2.20
  -1   3  -7  124.49    3.30
  -1   3  -7  125.79    5.30
  -1   3  -7  115.49    5.50
   1  -3   7  117.39    3.40
   1  -3   7  124.89    5.50
   1  -3   7  120.29    5.20
   2  -3   7  476.25   14.70
   2  -3   7  483.05   15.10
   2  -3   7  461.85   14.10
  -3   3  -7   47.00    4.70
   3  -3   7   53.89    2.50
   3  -3   7   56.79    4.10
   3  -3   7   48.60    4.20
   3  -3   7   46.90    2.00
  -4   3  -7   17.40    3.10
   4  -3   7   24.40    4.00
   4  -3   7   22.00    2.00
   4  -3   7   23.00    2.50
  -5   3  -7    4.80    2.20
   5  -3   7    4.90    2.80
   5  -3   7    2.90    1.60
   5  -3   7    4.90    1.80
  -6   3  -7    4.30    2.60
   6  -3   7    0.20    2.20
   6   2  -7    2.50    3.60
  -6  -2   7    2.70    3.00
   5   2  -7   28.60    5.70
  -5  -2   7   28.00    4.90
   4   2  -7    1.80    2.20
  -4  -2   7    2.50    1.70
   3   2  -7    9.80    2.90
  -3  -2   7   11.40    1.20
  -3  -2   7   12.40    1.10
  -3  -2   7   11.50    2.30
   2   2  -7  129.39    5.70
   2   2  -7  126.19    8.00
  -2  -2   7  128.39    5.80
  -2  -2   7  127.29    4.50
  -2  -2   7  132.59    4.20
   1   2  -7   74.99    3.60
   1   2  -7   76.99    3.80
   1   2  -7   80.99    4.70
  -1  -2   7   70.79    4.30
  -1  -2   7   76.99    3.80
  -1  -2   7   75.89    3.50
   0   2  -7   22.80    2.40
   0   2  -7   24.20    2.40
   0   2  -7   20.60    2.20
   0  -2   7   26.10    2.50
   0  -2   7   20.20    2.10
   0  -2   7   29.00    2.80
  -1   2  -7  640.14   17.40
  -1   2  -7  658.33   18.00
   1  -2   7  673.73   17.50
   1  -2   7  668.53   17.80
   2  -2   7  139.09    7.00
   2  -2   7  145.59    6.80
  -3   2  -7  429.16   14.30
   3  -2   7  453.55   14.40
   3  -2   7  426.66   14.90
   3  -2   7  418.16   10.20
  -4   2  -7   87.89    5.90
   4  -2   7   83.49    3.70
   4  -2   7   91.99    6.30
   4  -2   7   84.09    4.00
  -5   2  -7   22.00    3.90
   5  -2   7   16.90    3.90
   5  -2   7   16.00    2.50
   5  -2   7   17.30    3.10
  -6   2  -7    3.20    2.30
   6  -2   7    3.60    2.90
   6   1  -7    1.40    3.40
  -6  -1   7    1.90    2.70
   5   1  -7   10.60    4.00
  -5  -1   7    3.90    2.50
   4   1  -7    6.90    3.00
  -4  -1   7    7.90    2.50
   3   1  -7    3.10    2.10
  -3  -1   7    3.50    1.50
   2   1  -7   89.39    6.70
   2   1  -7   92.99    3.50
   2   1  -7   92.39    5.20
  -2  -1   7   97.19    4.90
  -2  -1   7   95.09    3.40
   1   1  -7   79.39    3.80
   1   1  -7   77.89    4.60
   1   1  -7   81.69    3.70
  -1  -1   7   78.59    3.50
  -1  -1   7   92.29    4.20
  -1  -1   7   77.29    4.40
   0   1  -7  109.19    4.40
   0   1  -7  111.59    4.50
   0   1  -7   97.79    4.60
   0  -1   7  105.19    4.60
   0  -1   7  104.59    4.40
   0  -1   7  103.99    4.20
  -1   1  -7   17.30    2.40
  -1   1  -7   19.20    2.40
   1  -1   7   16.60    2.10
   1  -1   7   16.00    2.20
  -2   1  -7    0.80    1.00
   2  -1   7    1.60    1.20
   2  -1   7    1.60    1.10
   2  -1   7    2.00    1.60
  -3   1  -7   19.40    3.00
   3  -1   7   20.40    2.00
   3  -1   7   17.00    2.80
  -4   1  -7   36.40    2.50
  -4   1  -7   37.00    4.50
   4  -1   7   47.50    5.30
   4  -1   7   36.80    2.60
  -5   1  -7    0.70    1.20
  -5   1  -7    1.00    1.80
   5  -1   7    1.70    1.40
   5  -1   7   -0.70    1.60
  -6   1  -7    1.60    2.30
   6  -1   7   -0.70    2.00
   6   0  -7    2.10    3.40
  -6   0   7    0.50    2.20
   5   0  -7   17.40    5.00
  -5   0   7   11.30    3.20
   4   0  -7    4.60    2.70
  -4   0   7    3.60    2.00
   3   0  -7   23.10    4.10
  -3   0   7   27.80    3.70
   2   0  -7  234.48    9.30
   2   0  -7  257.17    7.00
   2   0  -7  253.97   10.50
  -2   0   7  257.27   11.10
  -2   0   7  258.57    9.00
  -2   0   7  253.47    6.80
   1   0  -7  243.38    8.70
   1   0  -7  218.58    7.40
   1   0  -7  228.78    7.20
  -1   0   7  240.98    7.70
  -1   0   7  233.08    7.00
  -1   0   7  210.18    8.10
   0   0  -7 1193.48   28.40
   0   0  -7 1223.88   28.90
   0   0  -7 1174.18   28.20
   0   0   7 1172.78   28.20
   0   0   7 1163.58   28.60
  -1   0  -7  246.58    8.10
  -1   0  -7  251.27    8.80
  -1   0  -7  252.97    6.50
  -1   0  -7  245.88    6.40
   1   0   7  232.38    8.40
   1   0   7  261.77    8.20
  -2   0  -7   94.69    5.30
   2   0   7   92.39    4.80
   2   0   7   96.89    5.10
   2   0   7   94.69    5.10
  -3   0  -7    7.80    1.10
  -3   0  -7    5.30    2.00
   3   0   7    8.10    2.20
   3   0   7    8.30    1.10
  -4   0  -7    0.50    0.90
  -4   0  -7    0.70    1.40
   4   0   7    0.50    1.40
   4   0   7    1.40    1.00
  -5   0  -7    3.70    2.50
  -5   0  -7    3.70    1.80
   5   0   7    6.20    1.90
   5   0   7    4.80    2.60
   6  -1  -7    4.50    3.80
  -6   1   7    2.30    2.70
   5  -1  -7    1.20    2.70
  -5   1   7   -0.40    1.70
   4  -1  -7    0.00    2.20
  -4   1   7    0.40    1.40
   3  -1  -7   21.70    4.10
  -3   1   7   21.80    3.30
   2  -1  -7   19.10    2.90
   2  -1  -7   17.40    3.20
   2  -1  -7   17.70    1.40
  -2   1   7   18.20    2.40
  -2   1   7   21.40    1.30
  -2   1   7   26.40    3.60
   1  -1  -7   30.50    2.20
   1  -1  -7   33.20    3.60
   1  -1  -7   25.80    2.20
  -1   1   7   31.80    2.10
  -1   1   7   27.60    3.10
  -1   1   7   33.20    2.50
   0  -1  -7   86.99    4.30
   0  -1  -7   87.89    4.10
   0  -1  -7   85.39    3.80
   0   1   7   83.39    3.80
   0   1   7   82.59    3.80
   0   1   7   83.59    4.00
  -1  -1  -7  217.18    6.20
  -1  -1  -7  210.68    8.00
  -1  -1  -7  199.98    7.10
  -1  -1  -7  212.48    6.10
   1   1   7  208.28    7.00
   1   1   7  218.88    7.80
  -2  -1  -7  133.59    6.50
  -2  -1  -7  132.09    4.10
   2   1   7  131.89    4.00
   2   1   7  128.39    6.10
   2   1   7  124.99    5.60
   2   1   7  126.59    5.90
  -3  -1  -7   80.09    5.40
  -3  -1  -7   73.39    3.30
   3   1   7   84.99    5.20
   3   1   7   73.29    3.20
  -4  -1  -7    6.40    2.20
  -4  -1  -7    7.20    1.60
   4   1   7    8.80    1.70
   4   1   7    6.70    2.20
  -5  -1  -7   64.89    6.70
   5   1   7   55.49    6.30
   5   1   7   62.09    4.20
   6  -2  -7   -1.00    3.10
  -6   2   7    2.10    2.70
   5  -2  -7    2.90    2.80
  -5   2   7    2.50    2.30
   4  -2  -7    1.40    2.20
  -4   2   7    1.30    1.60
   3  -2  -7  172.98    9.60
  -3   2   7  197.98    8.50
   2  -2  -7   -0.20    0.70
   2  -2  -7   -0.80    1.10
   2  -2  -7   -0.10    0.50
  -2   2   7    0.30    0.50
  -2   2   7    0.90    0.90
  -2   2   7    1.60    1.40
   1  -2  -7   62.29    3.20
   1  -2  -7   62.59    4.20
   1  -2  -7   58.09    3.20
  -1   2   7   60.49    3.40
  -1   2   7   63.09    3.10
  -1   2   7   56.89    3.90
   0  -2  -7   39.40    2.90
   0  -2  -7   40.90    3.00
   0  -2  -7   44.10    2.60
   0  -2  -7   43.90    2.80
   0   2   7   39.10    2.80
   0   2   7   44.50    2.60
  -1  -2  -7   40.70    3.90
  -1  -2  -7   32.50    2.20
  -1  -2  -7   32.70    2.20
  -1  -2  -7   35.90    2.60
   1   2   7   34.50    2.90
   1   2   7   35.10    2.40
  -2  -2  -7  142.39    6.80
  -2  -2  -7  143.29    5.00
   2   2   7  133.09    5.80
   2   2   7  128.39    6.30
   2   2   7  141.09    6.20
   2   2   7  140.79    4.70
  -3  -2  -7   46.20    2.90
  -3  -2  -7   51.69    5.30
   3   2   7   47.20    2.80
   3   2   7   47.80    4.00
  -4  -2  -7    9.20    2.70
  -4  -2  -7    9.40    1.80
   4   2   7    8.80    2.50
   4   2   7   10.20    1.90
  -5  -2  -7   13.60    3.50
   5   2   7    8.90    2.90
   5  -3  -7    0.30    2.60
  -5   3   7    4.00    2.70
   4  -3  -7   45.70    6.90
  -4   3   7   35.70    4.70
   3  -3  -7  198.98   10.30
  -3   3   7  190.88    8.50
   2  -3  -7    1.60    0.70
   2  -3  -7    1.50    1.00
   2  -3  -7    2.70    1.80
  -2   3   7    2.00    1.20
  -2   3   7    0.90    0.60
  -2   3   7    0.50    1.20
   1  -3  -7  323.87    9.60
   1  -3  -7  315.27    9.50
   1  -3  -7  333.87   11.50
  -1   3   7  309.97   10.70
  -1   3   7  321.87    9.30
  -1   3   7  321.77    9.70
   0  -3  -7   72.79    3.50
   0  -3  -7   86.09    4.40
   0  -3  -7   77.19    4.20
   0  -3  -7   82.59    4.10
   0   3   7   80.39    3.50
   0   3   7   73.99    3.90
  -1  -3  -7  109.79    4.60
  -1  -3  -7  112.99    5.70
  -1  -3  -7  110.59    4.60
  -1  -3  -7  106.29    4.50
   1   3   7  102.99    4.40
  -2  -3  -7   -0.60    1.00
  -2  -3  -7    0.30    0.80
   2   3   7   -0.40    0.70
   2   3   7   -0.20    0.60
   2   3   7   -0.20    0.80
  -3  -3  -7    0.20    0.90
  -3  -3  -7   -0.90    1.30
   3   3   7    1.30    1.00
   3   3   7    0.80    1.20
  -4  -3  -7   25.40    3.10
  -4  -3  -7   38.00    4.90
   4   3   7   29.70    3.30
   4   3   7   22.30    3.50
  -5  -3  -7    3.30    2.30
   5   3   7    5.60    2.50
   5   3   7    7.80    2.20
   5  -4  -7   -2.00    2.40
  -5   4   7   -0.40    2.00
   4  -4  -7   70.99    8.20
  -4   4   7   80.19    6.10
   3  -4  -7  878.51   27.60
  -3   4   7  904.01   24.90
   2  -4  -7   87.49    6.00
   2  -4  -7   83.29    3.50
   2  -4  -7   81.79    4.40
  -2   4   7   82.29    4.60
   1  -4  -7  100.99    5.40
   1  -4  -7  111.69    6.00
   1  -4  -7  100.89    4.30
   1  -4  -7   98.69    4.50
  -1   4   7  103.59    4.30
  -1   4   7  107.39    4.60
   0  -4  -7  463.95   12.30
   0  -4  -7  448.06   13.70
   0  -4  -7  449.95   13.50
   0  -4  -7  455.75   13.60
   0   4   7  460.75   13.30
   0   4   7  471.45   12.30
  -1  -4  -7    0.50    1.00
  -1  -4  -7   -0.10    0.80
  -1  -4  -7    0.90    0.90
   1   4   7    1.00    0.80
   1   4   7    0.60    0.80
   1   4   7    0.20    1.00
   1   4   7    0.50    0.70
  -2  -4  -7  675.33   18.30
  -2  -4  -7  718.43   20.50
   2   4   7  691.13   18.20
   2   4   7  688.03   18.00
   2   4   7  668.13   18.40
  -3  -4  -7    1.20    1.20
  -3  -4  -7   -0.70    1.40
   3   4   7    1.50    1.10
   3   4   7    0.20    1.10
   3   4   7    1.50    1.30
  -4  -4  -7   13.50    2.50
  -4  -4  -7    9.20    3.50
   4   4   7   14.00    2.50
   4   4   7   11.90    2.80
  -5  -4  -7   29.70    4.90
   5   4   7   21.40    3.20
   5   4   7   34.20    5.00
   5  -5  -7   -2.70    2.40
  -5   5   7    3.60    2.80
   4  -5  -7   30.00    5.50
  -4   5   7   20.80    4.60
   3  -5  -7   24.30    4.40
  -3   5   7   26.90    3.70
   2  -5  -7   57.69    5.10
   2  -5  -7   50.89    2.90
   2  -5  -7   47.70    3.30
  -2   5   7   52.29    2.60
  -2   5   7   54.69    3.70
   1  -5  -7   20.80    2.50
   1  -5  -7   20.20    2.10
   1  -5  -7   29.60    3.70
   1  -5  -7   21.00    3.20
  -1   5   7   22.40    2.40
  -1   5   7   23.90    2.50
   0  -5  -7   28.60    3.40
   0  -5  -7   23.20    3.00
   0  -5  -7   24.90    1.90
   0   5   7   24.80    2.70
   0   5   7   22.70    1.80
  -1  -5  -7   92.19    4.80
   1   5   7   90.39    5.00
   1   5   7   90.39    3.80
   1   5   7   93.09    4.20
   1   5   7   84.19    4.50
  -2  -5  -7    3.60    1.50
  -2  -5  -7    4.40    1.80
   2   5   7    1.20    1.00
   2   5   7    2.90    1.30
   2   5   7    3.60    1.30
  -3  -5  -7   83.39    6.00
  -3  -5  -7   77.49    4.90
   3   5   7   81.69    4.80
   3   5   7   83.99    4.80
   3   5   7   76.29    4.80
  -4  -5  -7    3.20    1.80
  -4  -5  -7    3.60    2.10
   4   5   7    2.40    1.70
   4   5   7   10.20    2.30
  -5  -5  -7   17.90    4.20
   5   5   7   16.90    3.10
   5   5   7    9.20    2.80
   5  -6  -7   17.90    5.10
  -5   6   7   17.30    4.20
   4  -6  -7   -2.30    1.90
   3  -6  -7  101.39    7.70
  -3   6   7  110.69    6.30
   2  -6  -7   19.00    2.50
   2  -6  -7   18.80    2.20
   2  -6  -7   16.30    3.30
  -2   6   7   20.80    2.10
  -2   6   7   15.70    2.50
   1  -6  -7  120.09    5.50
   1  -6  -7  117.89    4.70
   1  -6  -7  110.79    6.60
   1  -6  -7  115.99    6.30
  -1   6   7  118.99    5.10
  -1   6   7  119.29    4.90
   0  -6  -7   55.49    4.00
   0  -6  -7   57.49    4.80
   0  -6  -7   51.09    2.70
   0   6   7   62.29    2.90
   0   6   7   62.19    3.90
  -1  -6  -7   50.79    3.80
  -1  -6  -7   53.79    4.30
   1   6   7   48.10    2.80
   1   6   7   48.80    3.60
   1   6   7   49.80    2.60
  -2  -6  -7   15.00    2.70
  -2  -6  -7   13.60    2.80
   2   6   7   16.40    2.10
   2   6   7   14.10    2.40
   2   6   7   17.20    2.30
  -3  -6  -7    1.10    2.20
  -3  -6  -7    3.60    2.10
   3   6   7    5.50    1.80
   3   6   7    2.90    1.40
   3   6   7    4.30    1.70
  -4  -6  -7    9.00    2.90
  -4  -6  -7    1.50    2.00
   4   6   7    6.50    2.10
   4   6   7    6.50    2.10
  -5  -6  -7   -0.30    2.30
   5   6   7   -1.00    1.60
   5   6   7    2.20    1.90
   5  -7  -7    0.10    2.90
  -5   7   7    1.70    2.20
   4  -7  -7    3.50    2.90
  -4   7   7    4.40    2.30
   3  -7  -7    0.30    0.60
   3  -7  -7   -1.10    1.60
   3  -7  -7    0.60    0.70
  -3   7   7    0.20    1.30
   2  -7  -7   47.30    5.50
   2  -7  -7   56.99    3.40
   2  -7  -7   51.19    3.40
  -2   7   7   55.39    3.90
  -2   7   7   51.89    3.00
   1  -7  -7  321.47    9.50
   1  -7  -7  327.87   12.80
  -1   7   7  342.17    9.90
  -1   7   7  330.27   11.20
   0  -7  -7    9.40    2.20
   0  -7  -7   11.60    1.50
   0  -7  -7    9.20    2.20
   0  -7  -7   14.20    2.50
   0   7   7    9.80    2.10
   0   7   7   13.10    1.50
  -1  -7  -7  403.06   13.90
  -1  -7  -7  457.65   14.70
   1   7   7  432.66   13.80
   1   7   7  433.46   11.10
   1   7   7  414.86   11.40
  -2  -7  -7  285.17   11.70
  -2  -7  -7  288.17   11.20
   2   7   7  297.27    9.20
   2   7   7  300.27    8.90
   2   7   7  300.17   10.80
  -3  -7  -7   11.20    2.90
  -3  -7  -7   10.00    2.70
   3   7   7   12.90    2.60
   3   7   7    9.60    2.10
   3   7   7   14.60    2.40
  -4  -7  -7   42.00    5.60
   4   7   7   50.69    5.10
   4   7   7   43.60    4.50
  -5  -7  -7   91.59   12.60
   5   7   7   81.59    6.20
   5   7   7   74.69    5.90
   5  -8  -7   16.90    5.50
  -5   8   7   15.70    4.10
   4  -8  -7   18.90    4.80
  -4   8   7   17.70    3.80
   3  -8  -7    2.60    1.00
   3  -8  -7    0.20    2.10
   3  -8  -7    2.60    1.00
  -3   8   7   -0.10    1.40
   2  -8  -7   14.00    3.40
   2  -8  -7   10.30    1.90
   2  -8  -7   14.90    2.30
  -2   8   7   13.40    2.00
  -2   8   7   12.20    2.30
   1  -8  -7   13.40    2.40
   1  -8  -7   18.30    2.10
   1  -8  -7   24.10    4.20
  -1   8   7   18.20    2.10
  -1   8   7   19.90    2.70
   0  -8  -7   26.30    3.90
   0  -8  -7   14.70    2.60
   0   8   7   22.70    1.60
  -1  -8  -7   12.00    2.60
  -1  -8  -7   12.40    2.80
   1   8   7   10.50    1.20
   1   8   7    8.10    2.20
   1   8   7   10.20    1.40
  -2  -8  -7    3.20    1.80
   2   8   7    5.30    1.90
   2   8   7    4.90    1.10
   2   8   7    5.00    1.20
  -3  -8  -7   -0.20    1.60
   3   8   7   -0.20    1.60
   3   8   7   -0.30    1.30
  -4  -8  -7   12.90    3.60
   4   8   7   17.30    3.40
   4   8   7   15.40    2.70
   5  -9  -7    0.20    3.20
  -5   9   7    0.30    2.40
   4  -9  -7    4.70    3.10
  -4   9   7    2.40    2.10
   3  -9  -7   -0.20    0.90
   3  -9  -7    1.20    1.10
   3  -9  -7    0.00    1.90
  -3   9   7   -0.50    1.30
   2  -9  -7   90.19    4.90
   2  -9  -7   81.49    4.40
   2  -9  -7   87.29    7.10
  -2   9   7   85.49    4.90
  -2   9   7   92.29    5.00
   1  -9  -7    3.40    1.10
   1  -9  -7    3.60    1.60
   1  -9  -7    6.80    2.50
  -1   9   7    5.40    1.30
   0  -9  -7  119.99    6.60
   0  -9  -7  120.39    7.30
   0  -9  -7  118.49    3.90
   0   9   7  116.09    3.80
  -1  -9  -7  114.19    6.90
   1   9   7  120.69    6.80
   1   9   7  126.69    3.60
  -2  -9  -7   21.20    4.50
   2   9   7   19.70    1.90
   2   9   7   20.20    3.30
   2   9   7   17.90    1.70
  -3  -9  -7   10.50    3.20
   3   9   7   19.30    3.50
   3   9   7   14.00    2.00
   3   9   7   14.80    2.20
  -4  -9  -7  158.28   10.00
   4   9   7  168.88    9.00
   4   9   7  174.48    7.40
   4 -10  -7    3.40    3.00
  -4  10   7    1.40    2.00
   3 -10  -7   38.70    3.60
   3 -10  -7   47.70    3.30
   3 -10  -7   32.90    5.60
  -3  10   7   45.90    4.70
   2 -10  -7   52.59    3.50
   2 -10  -7   59.69    4.20
  -2  10   7   56.09    4.00
  -2  10   7   47.40    3.60
   1 -10  -7   21.70    4.10
   1 -10  -7   25.40    3.50
   1 -10  -7   26.70    2.00
  -1  10   7   28.60    2.20
   0 -10  -7  173.18    8.40
   0 -10  -7  167.18    9.10
  -1 -10  -7    9.20    2.70
   1  10   7    7.00    2.30
  -2 -10  -7    2.20    1.80
   2  10   7    2.50    1.90
  -3 -10  -7  233.78   11.60
   3  10   7  200.08    7.30
   3  10   7  216.48    6.90
   3  10   7  217.18   10.30
   4  10   7    0.30    2.10
   4  10   7    1.80    1.50
   4 -11  -7    9.80    3.80
  -4  11   7    4.30    2.30
   3 -11  -7   23.40    5.40
   3 -11  -7   20.40    2.70
  -3  11   7   20.00    3.40
   2 -11  -7    1.30    2.50
   2 -11  -7    1.50    1.40
   1 -11  -7    8.30    1.30
   1 -11  -7    6.40    2.10
   1 -11  -7    7.00    3.00
  -1  11   7    7.40    1.30
   0 -11  -7   28.40    4.20
   0 -11  -7   25.30    4.30
  -1 -11  -7    0.70    1.50
   1  11   7    1.70    1.90
  -2 -11  -7   81.49    6.60
   2  11   7   76.39    6.00
  -3 -11  -7   15.90    4.10
   3  11   7   13.00    3.60
   3  11   7   18.20    1.40
  -4 -11  -7   46.70    6.60
   4  11   7   56.49    6.40
   4 -12  -7    1.80    3.10
  -4  12   7    1.30    2.30
   3 -12  -7    0.00    2.20
   3 -12  -7   -0.10    1.30
  -3  12   7    0.40    1.50
   2 -12  -7   37.30    2.90
   2 -12  -7   33.60    4.10
   2 -12  -7   42.20    6.30
  -2  12   7   40.50    3.30
   1 -12  -7    8.70    2.30
   1 -12  -7    5.60    2.90
   1 -12  -7    6.10    0.90
   0 -12  -7   25.50    5.20
  -1 -12  -7   15.10    3.60
  -2 -12  -7   -0.40    1.50
   2  12   7   -0.60    1.50
  -3 -12  -7   61.59    9.70
   3  12   7   46.10    6.00
   4 -13  -7   -0.50    3.00
   3 -13  -7   11.20    4.20
   3 -13  -7   12.40    2.40
  -3  13   7   16.60    3.10
   2 -13  -7   36.10    4.30
   2 -13  -7   32.30    5.90
  -2  13   7   41.50    3.20
   1 -13  -7   10.90    3.70
   0 -13  -7   10.50    2.90
   0 -13  -7   10.10    3.20
  -1 -13  -7    9.30    3.20
   1  13   7    7.60    2.70
  -2 -13  -7   11.80    3.50
   2  13   7   15.60    3.80
  -3 -13  -7    2.00    2.20
   3  13   7    1.30    2.30
   3 -14  -7    2.00    3.10
   3 -14  -7    0.50    1.70
  -3  14   7    1.90    1.70
   2 -14  -7   60.79    8.20
  -2  14   7   59.39    3.40
   1 -14  -7    0.30    1.60
   1 -14  -7   -1.90    2.00
   0 -14  -7   14.40    4.10
   0 -14  -7   13.80    3.50
  -1 -14  -7   17.70    4.10
   1  14   7   15.20    3.70
  -2 -14  -7    3.80    2.80
   2  14   7    3.30    2.60
   2 -15  -7   39.90    5.10
   2 -15  -7   54.89    8.70
   1 -15  -7    0.10    1.80
   1 -15  -7   -1.80    2.50
   0 -15  -7    0.50    2.50
   0 -15  -7    2.10    2.20
  -1 -15  -7    4.70    3.30
  -1 -15  -7    0.20    2.20
   1  15   7   -2.00    1.50
  -2 -15  -7    1.40    2.60
   2  15   7    0.20    2.00
   2 -16  -7   -0.20    1.90
   2 -16  -7   -0.20    2.90
   1 -16  -7    2.10    3.30
   1 -16  -7   -0.50    1.90
   0 -16  -7    2.50    2.80
  -1 -16  -7    1.70    2.70
   1  16   7    1.80    2.90
   0  20  -8    1.50    2.70
   0 -20   8    2.30    2.40
  -1  20  -8    0.50    2.50
   1 -20   8   -1.80    1.60
   1  19  -8  165.18   11.60
  -1 -19   8  183.88   10.40
   0  19  -8   92.09    8.30
   0 -19   8   97.89   12.40
   0 -19   8   89.09    4.50
  -1  19  -8   47.50    6.70
   1 -19   8   54.59    4.00
   1 -19   8   51.89    6.20
  -2  19  -8    0.80    2.30
   2 -19   8   -0.10    1.50
   2  18  -8    1.90    3.00
  -2 -18   8    1.20    3.80
   1  18  -8   20.10    4.60
  -1 -18   8   20.20    2.50
  -1 -18   8   17.10    3.70
   0  18  -8  133.19    9.60
   0 -18   8  141.99    8.50
   0 -18   8  126.59    5.70
  -1  18  -8   32.00    5.70
   1 -18   8   32.60    4.70
   1 -18   8   29.90    3.40
  -2  18  -8    9.80    3.30
   2 -18   8    1.40    2.00
   2 -18   8    5.50    2.10
   3 -18   8   44.40    5.00
   3 -18   8   45.50    5.40
   3 -18   8   35.70    6.00
   3  17  -8   26.10    5.70
  -3 -17   8   26.30    3.70
  -3 -17   8   24.00    5.10
   2  17  -8    1.60    2.80
  -2 -17   8    6.90    1.80
  -2 -17   8    3.10    2.30
   1  17  -8    2.30    2.60
  -1 -17   8    0.20    1.70
  -1 -17   8    0.00    1.00
   0  17  -8   13.20    3.70
   0 -17   8   12.30    2.20
   0 -17   8   13.60    3.20
   0 -17   8   10.70    2.50
  -1  17  -8    4.60    2.60
   1 -17   8    4.10    2.20
   1 -17   8    5.30    1.80
  -2  17  -8   14.60    3.50
   2 -17   8   16.30    3.40
   2 -17   8   14.80    2.80
   3 -17   8    3.60    2.10
   3 -17   8    2.80    2.10
   3 -17   8    4.40    2.80
   3  16  -8    0.80    2.90
  -3 -16   8   -2.60    1.70
  -3 -16   8    0.40    1.50
   2  16  -8   20.90    4.80
  -2 -16   8   20.60    3.80
  -2 -16   8   28.10    3.30
   1  16  -8    9.20    3.30
   1  16  -8   10.10    2.10
  -1 -16   8   13.20    2.20
  -1 -16   8   11.20    2.80
   0  16  -8   14.60    3.50
   0 -16   8   13.50    3.00
   0 -16   8   17.20    2.60
   0 -16   8   10.40    2.50
  -1  16  -8    1.70    1.80
   1 -16   8   -0.10    1.10
   1 -16   8    0.50    1.60
  -2  16  -8   -0.80    1.70
   2 -16   8   -2.00    0.90
   2 -16   8    1.00    1.70
   3 -16   8    1.60    2.30
   3 -16   8    6.30    2.50
   3 -16   8    5.30    2.30
   4 -16   8    7.70    2.60
   4 -16   8    6.40    2.60
   4 -16   8    5.60    2.90
   3  15  -8    3.20    2.80
  -3 -15   8    4.50    1.90
  -3 -15   8    6.80    2.60
   2  15  -8    3.90    2.60
  -2 -15   8    2.70    1.80
  -2 -15   8    0.90    1.10
   1  15  -8   65.29    7.30
   1  15  -8   56.09    4.00
  -1 -15   8   62.29    3.90
  -1 -15   8   62.79    5.10
   0  15  -8   87.19    6.80
   0 -15   8   64.49    4.70
   0 -15   8   72.59    4.30
   0 -15   8   88.09    6.00
  -1  15  -8  224.48   10.70
   1 -15   8  211.68    9.80
   1 -15   8  202.98    8.30
  -2  15  -8   51.09    5.70
   2 -15   8   44.70    5.10
   2 -15   8   53.79    4.30
   3 -15   8   10.90    2.80
   3 -15   8   12.30    3.30
   3 -15   8   14.70    3.20
   4 -15   8    1.70    2.10
   4 -15   8   -0.40    2.00
   4 -15   8    3.40    2.10
   4  14  -8   -1.40    2.80
  -4 -14   8   -0.70    1.60
  -4 -14   8    1.30    2.10
   3  14  -8   22.40    4.80
  -3 -14   8   24.30    3.50
  -3 -14   8   29.80    4.10
   2  14  -8   -0.50    1.90
  -2 -14   8    1.50    1.20
  -2 -14   8    0.00    1.40
   1  14  -8   79.59    4.60
   1  14  -8   91.89    7.20
  -1 -14   8   84.09    4.70
  -1 -14   8   81.19    6.50
   0  14  -8   99.59    7.00
   0  14  -8   83.59    4.90
   0 -14   8   87.39    5.80
   0 -14   8   89.29    4.80
  -1  14  -8   70.09    5.70
   1 -14   8   65.19    4.30
   1 -14   8   67.69    5.20
  -2  14  -8   41.30    5.10
   2 -14   8   34.70    4.20
   3 -14   8   17.50    3.70
   3 -14   8   19.10    3.50
   3 -14   8   14.20    2.90
   4 -14   8    2.20    2.20
   4 -14   8    3.30    2.10
   4 -14   8    2.30    1.70
   4  13  -8    1.40    3.20
  -4 -13   8    0.90    1.80
  -4 -13   8    1.60    1.90
   3  13  -8   20.60    4.80
  -3 -13   8   24.60    3.80
  -3 -13   8   19.20    3.10
   2  13  -8    0.00    1.90
  -2 -13   8    0.60    1.30
  -2 -13   8    0.40    1.00
   1  13  -8   87.19    6.90
   1  13  -8   85.69    4.80
  -1 -13   8   92.79    5.80
  -1 -13   8   92.29    4.80
   0  13  -8   34.70    4.80
   0  13  -8   24.90    3.00
   0 -13   8   27.80    3.10
   0 -13   8   30.10    3.90
  -1  13  -8   99.39    6.40
   1 -13   8  104.59    5.40
   1 -13   8   96.49    6.00
  -2  13  -8    1.40    1.50
   2 -13   8    1.60    1.50
   2 -13   8    3.50    1.60
   3 -13   8    4.90    2.10
   3 -13   8    3.20    3.00
   3 -13   8    5.80    2.60
   4 -13   8   17.10    3.80
   4 -13   8   21.00    3.60
   4 -13   8   18.80    3.70
   5 -13   8    5.40    2.40
   5 -13   8    1.30    2.70
   4  12  -8   28.00    6.20
  -4 -12   8   27.70    4.30
  -4 -12   8   19.30    3.50
   3  12  -8    8.00    3.40
  -3 -12   8    7.40    2.10
  -3 -12   8   10.60    2.60
   2  12  -8   76.79    6.90
  -2 -12   8   73.69    5.10
  -2 -12   8   73.69    4.60
   1  12  -8   75.79    4.40
   1  12  -8   77.79    6.20
  -1 -12   8   78.09    4.40
  -1 -12   8   88.29    5.40
   0  12  -8 1694.93   43.10
   0  12  -8 1599.84   40.10
   0 -12   8 1661.63   41.30
   0 -12   8 1671.73   39.90
  -1  12  -8   99.19    6.20
   1 -12   8  106.19    6.20
   1 -12   8  120.39    5.80
   1 -12   8  120.09    6.30
  -2  12  -8   24.30    3.50
   2 -12   8   15.50    2.90
   2 -12   8   20.20    3.60
   2 -12   8   26.90    3.80
  -3  12  -8    0.50    1.70
   3 -12   8    0.80    1.50
   3 -12   8    1.70    1.50
  -4  12  -8    9.70    3.70
   4 -12   8   11.40    3.10
   4 -12   8   10.20    3.00
   5 -12   8   -0.30    2.00
   5 -12   8    1.30    2.20
   5 -12   8    1.90    2.10
   5  11  -8   -0.50    3.40
  -5 -11   8    0.10    2.00
  -5 -11   8    2.80    2.30
   4  11  -8    0.60    2.80
  -4 -11   8    3.70    2.10
  -4 -11   8    1.90    1.80
   3  11  -8   15.20    4.00
  -3 -11   8   12.00    2.70
  -3 -11   8   14.70    2.70
   2  11  -8   69.99    7.50
  -2 -11   8   68.39    4.70
  -2 -11   8   57.39    4.10
   1  11  -8   91.69    4.90
   1  11  -8   94.59    6.80
  -1 -11   8  113.39    5.90
  -1 -11   8  118.49    5.40
   0  11  -8   19.40    2.50
   0  11  -8   25.70    3.90
   0 -11   8   20.40    2.70
   0 -11   8   16.70    2.70
  -1  11  -8   15.50    2.70
   1 -11   8   12.40    2.50
   1 -11   8   15.50    3.00
   1 -11   8   15.50    2.70
   1 -11   8   10.60    2.00
  -2  11  -8  148.29    8.10
  -2  11  -8  156.48    7.10
   2 -11   8  157.28    7.30
   2 -11   8  152.88    7.40
  -3  11  -8   -0.80    1.40
   3 -11   8    0.10    1.20
   3 -11   8    0.30    1.40
   3 -11   8    0.30    1.30
  -4  11  -8    2.80    2.20
   4 -11   8    3.00    2.10
   4 -11   8    3.80    1.90
  -5  11  -8   16.40    3.70
   5 -11   8   21.30    4.00
   5  10  -8   -1.50    3.00
  -5 -10   8    1.50    2.20
  -5 -10   8   -0.80    1.50
   4  10  -8   11.10    4.20
  -4 -10   8   20.60    3.80
  -4 -10   8    8.40    2.30
   3  10  -8   25.20    6.10
  -3 -10   8   30.50    3.70
  -3 -10   8   31.70    4.00
   2  10  -8   15.90    3.60
  -2 -10   8   15.30    2.50
  -2 -10   8   25.10    3.20
   1  10  -8    0.60    1.80
   1  10  -8    0.70    0.90
  -1 -10   8    0.20    1.00
  -1 -10   8    1.40    1.10
   0  10  -8  392.66   13.50
   0  10  -8  370.66   12.00
   0 -10   8  387.56   11.80
   0 -10   8  364.86   13.40
   0 -10   8  384.46   12.40
  -1  10  -8    6.50    2.10
  -1  10  -8    6.50    1.80
   1 -10   8    5.60    1.60
   1 -10   8    5.10    1.70
   1 -10   8    5.60    1.90
  -2  10  -8   11.80    2.80
  -2  10  -8   11.20    2.20
   2 -10   8   18.20    2.90
   2 -10   8   15.40    2.60
  -3  10  -8   67.99    5.50
   3 -10   8   87.89    5.90
   3 -10   8   82.69    5.30
   3 -10   8   76.09    4.80
  -4  10  -8   21.10    3.80
   4 -10   8   16.10    2.80
   4 -10   8   13.80    3.30
   4 -10   8   22.50    3.50
  -5  10  -8    4.00    2.50
   5 -10   8   -0.80    1.80
   5 -10   8   -0.70    1.50
  -5  -9   8    1.90    1.80
  -5  -9   8    2.30    2.10
   4   9  -8   57.79    7.50
  -4  -9   8   65.29    5.50
  -4  -9   8   65.39    4.60
   3   9  -8  109.69    8.30
  -3  -9   8  105.29    5.60
  -3  -9   8  111.29    6.30
   2   9  -8   80.09    5.20
   2   9  -8   81.69    6.50
  -2  -9   8   89.79    4.90
  -2  -9   8   95.99    5.10
   1   9  -8   11.70    2.70
   1   9  -8   10.30    1.90
  -1  -9   8   17.10    3.00
  -1  -9   8    8.40    1.80
  -1  -9   8   15.00    2.20
  -1  -9   8   10.10    2.60
   0   9  -8    4.30    1.70
   0   9  -8    1.30    1.40
   0   9  -8    3.70    1.50
   0  -9   8    1.30    1.40
   0  -9   8    1.80    1.50
   0  -9   8    2.60    1.30
   0  -9   8    4.20    2.00
  -1   9  -8  153.18    7.60
  -1   9  -8  150.38    6.70
  -1   9  -8  159.88    6.70
   1  -9   8  150.68    6.60
   1  -9   8  152.68    6.90
   1  -9   8  168.38    7.40
  -2   9  -8    0.00    0.90
  -2   9  -8   -0.40    1.20
   2  -9   8   -0.80    1.10
   2  -9   8    0.40    0.90
  -3   9  -8   41.00    4.80
   3  -9   8   45.60    4.80
   3  -9   8   39.60    3.30
   3  -9   8   48.30    3.70
  -4   9  -8   29.70    4.40
   4  -9   8   35.90    5.10
   4  -9   8   22.20    3.00
   4  -9   8   34.00    3.80
  -5   9  -8    1.10    2.00
   5  -9   8    5.90    3.00
   5  -9   8    2.60    1.90
   5   8  -8    3.00    3.70
  -5  -8   8    2.80    2.30
  -5  -8   8    0.00    1.30
   4   8  -8    7.30    3.40
  -4  -8   8   13.70    2.50
  -4  -8   8   16.90    3.60
   3   8  -8    8.20    3.40
  -3  -8   8    6.10    1.90
  -3  -8   8    7.80    1.80
  -3  -8   8    5.90    2.00
   2   8  -8   23.60    4.00
   2   8  -8   18.70    2.60
  -2  -8   8   15.50    2.30
  -2  -8   8   16.80    2.50
  -2  -8   8   11.70    2.30
   1   8  -8    5.40    2.10
  -1  -8   8    8.90    2.40
  -1  -8   8    9.60    1.80
  -1  -8   8   11.70    2.30
  -1  -8   8   15.40    2.40
   0   8  -8    3.60    1.20
   0   8  -8    5.70    1.90
   0   8  -8    6.40    1.80
   0  -8   8    6.20    1.50
   0  -8   8    4.90    1.70
   0  -8   8    4.50    1.60
  -1   8  -8   30.40    3.30
  -1   8  -8   26.40    3.60
  -1   8  -8   27.40    2.80
   1  -8   8   22.90    2.70
   1  -8   8   25.30    3.40
   1  -8   8   30.10    3.30
  -2   8  -8  234.28    9.70
   2  -8   8  223.28    8.00
   2  -8   8  236.28    8.00
   2  -8   8  240.98    9.30
  -3   8  -8  105.29    6.40
   3  -8   8   91.49    4.80
   3  -8   8  101.79    6.30
   3  -8   8   98.69    4.70
  -4   8  -8   48.10    5.40
   4  -8   8   35.20    3.10
   4  -8   8   38.20    3.90
   4  -8   8   49.30    5.80
   5  -8   8   31.00    5.10
   5   7  -8   12.10    4.40
  -5  -7   8   13.00    3.60
   4   7  -8    4.50    3.00
  -4  -7   8    3.10    2.30
  -4  -7   8    5.90    1.70
  -4  -7   8    6.20    1.90
   3   7  -8    2.20    2.30
  -3  -7   8    1.50    1.20
  -3  -7   8    4.70    1.90
   2   7  -8    0.80    0.90
   2   7  -8   -0.80    1.50
  -2  -7   8   -0.40    0.70
  -2  -7   8    0.20    1.10
  -2  -7   8    1.70    1.20
   1   7  -8  488.25   15.20
  -1  -7   8  493.75   17.40
  -1  -7   8  525.05   15.30
  -1  -7   8  510.65   14.40
   0   7  -8  216.98    9.40
   0   7  -8  207.48    8.10
   0   7  -8  196.38    7.40
   0  -7   8  209.18    8.20
   0  -7   8  211.18    7.50
  -1   7  -8   25.20    2.30
  -1   7  -8   35.30    4.10
  -1   7  -8   22.00    2.80
   1  -7   8   18.40    2.40
   1  -7   8   29.30    2.50
   1  -7   8   28.00    3.50
  -2   7  -8    2.40    1.50
   2  -7   8    4.30    1.50
   2  -7   8    5.00    1.20
   2  -7   8    1.10    1.30
   2  -7   8    3.80    1.10
  -3   7  -8  188.08    8.80
   3  -7   8  194.78    9.00
   3  -7   8  194.28    6.80
   3  -7   8  187.58    6.50
  -4   7  -8    9.90    2.60
   4  -7   8   10.90    1.90
   4  -7   8   10.40    1.90
   4  -7   8    8.50    2.80
  -5   7  -8   16.50    3.80
   5  -7   8   12.20    2.30
   5  -7   8    6.90    2.80
   5   6  -8    3.80    3.30
  -5  -6   8   -2.10    1.40
  -5  -6   8   -0.40    0.90
   4   6  -8   44.50    8.40
  -4  -6   8   30.80    3.20
  -4  -6   8   36.70    2.80
   3   6  -8   52.29    6.20
  -3  -6   8   64.29    3.50
  -3  -6   8   43.70    4.50
  -3  -6   8   53.99    3.70
   2   6  -8    7.20    2.50
   2   6  -8    8.00    1.70
  -2  -6   8    8.80    1.60
  -2  -6   8    4.60    1.70
  -2  -6   8    5.40    1.70
   1   6  -8   36.20    2.80
   1   6  -8   35.20    3.50
   1   6  -8   31.20    3.80
  -1  -6   8   29.90    3.20
  -1  -6   8   35.90    3.90
  -1  -6   8   35.60    2.90
   0   6  -8  466.65   13.60
   0   6  -8  472.65   14.00
   0   6  -8  487.75   14.60
   0  -6   8  477.15   14.10
   0  -6   8  510.25   13.80
   0  -6   8  471.45   14.40
  -1   6  -8  528.15   15.90
  -1   6  -8  634.94   20.50
  -1   6  -8  513.15   13.70
   1  -6   8  515.55   15.00
   1  -6   8  483.15   16.90
   1  -6   8  526.65   16.80
  -2   6  -8   24.80    3.40
   2  -6   8   23.00    3.00
   2  -6   8   29.60    3.70
   2  -6   8   25.30    1.90
   2  -6   8   26.90    4.10
   2  -6   8   22.30    1.70
  -3   6  -8   43.90    4.80
   3  -6   8   36.40    2.40
   3  -6   8   43.90    4.60
   3  -6   8   39.60    2.30
  -4   6  -8    4.70    2.10
   4  -6   8    6.60    1.50
   4  -6   8    4.80    2.20
   4  -6   8    4.60    1.20
  -5   6  -8    3.00    2.20
   5  -6   8    0.40    1.90
   5  -6   8    2.10    1.50
   5   5  -8    9.60    4.20
  -5  -5   8    2.50    2.40
   4   5  -8   24.20    5.00
  -4  -5   8   22.40    2.40
  -4  -5   8   22.40    2.20
   3   5  -8  318.47   13.90
  -3  -5   8  311.77    9.90
  -3  -5   8  331.27   11.90
  -3  -5   8  311.67    9.30
   2   5  -8  273.87   11.40
   2   5  -8  265.37    9.20
  -2  -5   8  265.67    8.90
  -2  -5   8  263.37    8.20
  -2  -5   8  275.67    9.60
  -2  -5   8  246.68   10.70
   1   5  -8   46.80    3.10
   1   5  -8   49.40    4.00
   1   5  -8   44.50    3.30
  -1  -5   8   43.60    3.70
  -1  -5   8   45.00    3.30
  -1  -5   8   52.29    3.40
   0   5  -8  604.74   16.80
   0   5  -8  578.94   16.10
   0   5  -8  618.84   16.30
   0  -5   8  604.54   16.70
   0  -5   8  564.84   15.90
   0  -5   8  567.44   16.10
  -1   5  -8   62.19    2.80
  -1   5  -8   55.39    3.70
  -1   5  -8   57.19    4.60
   1  -5   8   55.59    3.70
   1  -5   8   61.79    4.00
   1  -5   8   58.59    2.90
  -2   5  -8   30.50    3.70
   2  -5   8   41.60    4.60
   2  -5   8   35.40    1.70
   2  -5   8   35.00    2.00
   2  -5   8   26.00    3.10
   2  -5   8   36.60    4.00
  -3   5  -8  626.74   19.20
   3  -5   8  618.04   14.80
   3  -5   8  573.04   18.90
   3  -5   8  685.83   17.00
  -4   5  -8    2.80    1.80
   4  -5   8    0.30    0.80
   4  -5   8    0.70    0.80
   4  -5   8   -0.40    1.40
  -5   5  -8    3.80    2.30
   5  -5   8    1.90    2.20
   5  -5   8    1.70    1.30
   5   4  -8    0.90    2.70
  -5  -4   8    2.70    2.10
   4   4  -8   61.19   11.10
  -4  -4   8   64.49    2.90
  -4  -4   8   67.59    3.70
  -4  -4   8   73.19    7.80
   3   4  -8  178.28    9.70
  -3  -4   8  168.18    7.80
  -3  -4   8  162.88    5.50
  -3  -4   8  151.78    5.80
   2   4  -8  146.19    7.80
   2   4  -8  150.58    6.30
  -2  -4   8  137.19    5.60
  -2  -4   8  141.19    5.20
  -2  -4   8  153.38    6.60
  -2  -4   8  149.09    7.60
   1   4  -8    7.40    1.60
   1   4  -8   13.00    2.50
   1   4  -8   10.30    1.70
  -1  -4   8   10.20    1.70
  -1  -4   8   10.10    1.70
  -1  -4   8    9.50    2.10
   0   4  -8  604.94   16.00
   0   4  -8  601.74   16.70
   0   4  -8  613.24   16.20
   0  -4   8  606.64   16.10
   0  -4   8  575.64   15.90
   0  -4   8  582.24   16.50
  -1   4  -8   26.20    1.50
  -1   4  -8   24.40    3.20
  -1   4  -8   26.00    3.00
   1  -4   8   24.40    3.00
   1  -4   8   25.50    1.60
   1  -4   8   26.50    2.80
  -2   4  -8  216.08    8.80
   2  -4   8  204.48    8.40
   2  -4   8  197.58    8.60
   2  -4   8  232.48    8.60
  -3   4  -8  102.79    6.30
   3  -4   8  121.49    6.70
  -4   4  -8   16.00    3.20
   4  -4   8   19.20    1.60
   4  -4   8   16.20    1.40
   4  -4   8   35.10    7.30
   5  -4   8   56.79    3.30
   5  -4   8   59.79    6.70
   5   3  -8    1.30    2.70
  -5  -3   8    4.40    2.50
   4   3  -8    3.50    4.30
  -4  -3   8    1.80    1.70
   3   3  -8    1.20    1.90
  -3  -3   8    0.70    0.80
  -3  -3   8    1.30    1.40
  -3  -3   8    0.00    0.60
   2   3  -8  216.88    8.00
   2   3  -8  229.78    9.90
  -2  -3   8  212.78    8.20
  -2  -3   8  207.78    7.00
  -2  -3   8  223.28    6.60
  -2  -3   8  212.58    9.40
   1   3  -8   32.80    3.80
   1   3  -8   33.00    3.10
   1   3  -8   27.40    2.70
  -1  -3   8   30.30    2.90
  -1  -3   8   20.20    2.40
  -1  -3   8   27.20    3.30
   0   3  -8  394.76   11.70
   0   3  -8  368.96   11.10
   0   3  -8  363.86   10.90
   0  -3   8  371.76   10.80
   0  -3   8  377.96   11.10
   0  -3   8  374.06   11.40
  -1   3  -8    5.80    1.60
  -1   3  -8    6.40    1.70
  -1   3  -8    6.30    0.70
   1  -3   8   11.20    2.00
   1  -3   8    6.70    1.70
   1  -3   8    6.20    0.80
  -2   3  -8    0.70    1.30
   2  -3   8    1.00    1.10
   2  -3   8    0.30    0.90
   2  -3   8    2.10    1.30
  -3   3  -8    5.30    2.00
   3  -3   8    4.60    1.80
  -4   3  -8    7.60    2.40
   4  -3   8    1.10    1.60
   4  -3   8    3.80    0.80
   5  -3   8   37.50    2.60
   5  -3   8   34.70    5.40
   5   2  -8   18.50    4.80
  -5  -2   8   14.60    3.80
   4   2  -8    1.20    2.70
  -4  -2   8    5.00    2.10
   3   2  -8   18.00    3.90
  -3  -2   8   15.90    1.30
  -3  -2   8   19.70    1.30
  -3  -2   8   15.40    2.70
   2   2  -8   35.40    2.40
   2   2  -8   38.60    3.00
   2   2  -8   43.10    5.00
  -2  -2   8   29.50    3.10
  -2  -2   8   33.60    2.20
  -2  -2   8   35.40    4.30
   1   2  -8   19.20    2.30
   1   2  -8   18.10    2.60
   1   2  -8   15.50    2.10
  -1  -2   8   15.70    2.20
  -1  -2   8   19.10    2.70
  -1  -2   8   16.90    2.00
   0   2  -8    1.60    1.00
   0   2  -8    0.40    0.80
   0   2  -8    1.50    1.10
   0  -2   8    0.50    0.70
   0  -2   8    0.10    0.80
   0  -2   8    0.70    0.90
  -1   2  -8  140.99    5.90
  -1   2  -8  151.68    6.50
   1  -2   8  144.79    6.20
   1  -2   8  127.19    5.60
  -2   2  -8    2.10    1.50
   2  -2   8    2.40    1.30
   2  -2   8    1.20    1.00
   2  -2   8    2.30    1.30
  -3   2  -8   93.99    5.90
   3  -2   8   81.29    5.40
  -4   2  -8   68.29    5.50
   4  -2   8   73.89    5.80
  -5   2  -8   15.70    3.40
   5  -2   8    7.10    2.70
   5  -2   8    5.80    1.30
   6   1  -8    2.90    4.00
   5   1  -8    1.90    2.80
  -5  -1   8    1.80    2.20
   4   1  -8   11.20    3.70
  -4  -1   8    8.90    2.70
   3   1  -8   76.89    6.40
  -3  -1   8   81.49    5.30
   2   1  -8   67.89    4.10
   2   1  -8   76.59    3.30
   2   1  -8   78.99    5.60
  -2  -1   8   66.39    4.90
  -2  -1   8   75.09    4.40
   1   1  -8  115.09    5.00
   1   1  -8  109.09    4.80
   1   1  -8  120.49    6.00
  -1  -1   8  120.09    5.20
  -1  -1   8  113.89    4.60
  -1  -1   8  112.89    5.60
   0   1  -8  253.77    8.40
   0   1  -8  273.97    8.40
   0   1  -8  262.67    8.90
   0  -1   8  265.27    8.20
   0  -1   8  259.67    8.40
   0  -1   8  270.17    8.70
  -1   1  -8    0.00    0.80
  -1   1  -8    0.20    0.30
  -1   1  -8    0.70    0.40
  -1   1  -8    0.90    0.90
   1  -1   8    0.30    0.80
   1  -1   8    0.20    0.80
  -2   1  -8 1063.79   27.50
   2  -1   8 1012.50   26.70
   2  -1   8 1020.10   26.40
   2  -1   8  993.20   26.80
  -3   1  -8    9.80    2.60
   3  -1   8    7.50    2.00
  -4   1  -8   66.99    5.60
   4  -1   8   51.29    5.40
   4  -1   8   56.59    2.30
   4  -1   8   60.09    2.50
  -5   1  -8    1.00    1.80
   5  -1   8    0.50    2.00
   5  -1   8    1.20    0.90
   5   0  -8    5.80    3.60
  -5   0   8    3.30    2.30
   4   0  -8    2.50    2.70
  -4   0   8    1.10    1.70
   3   0  -8   12.60    3.30
  -3   0   8   10.20    2.50
   2   0  -8  184.38    8.80
   2   0  -8  172.78    6.90
   2   0  -8  173.98    5.50
  -2   0   8  161.98    7.90
  -2   0   8  173.58    7.20
  -2   0   8  171.98    5.30
   1   0  -8  331.17   11.20
   1   0  -8  318.87    9.90
   1   0  -8  329.67    9.70
  -1   0   8  320.07   10.80
  -1   0   8  330.77   10.10
  -1   0   8  320.67    9.50
   0   0  -8  596.94   16.00
   0   0  -8  611.04   16.10
   0   0  -8  608.24   16.60
   0   0   8  621.54   16.00
   0   0   8  573.74   15.60
   0   0   8  608.54   16.30
  -1   0  -8  115.59    5.70
  -1   0  -8  116.49    3.60
  -1   0  -8  115.59    3.80
  -1   0  -8  112.79    5.10
   1   0   8  114.39    5.40
   1   0   8  110.99    5.00
  -2   0  -8    8.30    2.00
   2   0   8    8.70    1.90
   2   0   8    5.40    1.70
   2   0   8    6.00    1.70
  -3   0  -8  254.37   10.40
   3   0   8  230.98    9.60
  -4   0  -8   37.30    1.90
  -4   0  -8   39.00    4.80
   4   0   8   35.00    2.00
   4   0   8   47.60    5.40
  -5   0  -8  113.29    7.70
   5   0   8   95.59    4.30
   5   0   8  103.89    7.60
   5  -1  -8    1.40    2.80
  -5   1   8    1.30    2.10
   3  -1  -8  289.47   13.10
  -3   1   8  291.77   11.00
   2  -1  -8   29.90    3.20
   2  -1  -8   25.20    1.90
   2  -1  -8   29.10    4.20
  -2   1   8   24.70    1.60
  -2   1   8   25.00    3.20
  -2   1   8   24.70    3.80
   1  -1  -8    3.10    1.10
   1  -1  -8    0.80    0.90
   1  -1  -8    1.80    1.40
  -1   1   8    1.80    0.80
  -1   1   8    2.50    1.30
  -1   1   8    2.10    1.00
   0  -1  -8  133.89    5.40
   0  -1  -8  147.49    5.40
   0  -1  -8  145.09    5.80
   0  -1  -8  142.99    6.00
   0   1   8  145.69    5.80
   0   1   8  133.49    5.30
   0   1   8  134.09    5.40
  -1  -1  -8   78.69    3.30
  -1  -1  -8   84.49    4.30
  -1  -1  -8   88.59    3.50
  -1  -1  -8   86.59    5.60
   1   1   8   80.69    4.00
  -2  -1  -8    2.70    0.60
  -2  -1  -8    1.70    0.50
  -2  -1  -8    1.90    1.60
   2   1   8    0.50    1.10
   2   1   8    2.80    1.20
  -3  -1  -8  365.86   13.40
  -3  -1  -8  359.16    9.20
   3   1   8  360.46    9.20
   3   1   8  392.66   12.90
  -4  -1  -8    2.30    1.00
  -4  -1  -8    0.90    1.70
   4   1   8    1.20    1.60
   4   1   8    1.40    0.90
  -5  -1  -8    1.20    2.00
   5   1   8    1.90    2.20
   5   1   8    1.60    1.10
   5  -2  -8    2.90    3.00
  -5   2   8    3.90    2.60
   4  -2  -8    3.50    2.50
   3  -2  -8 2167.88   56.19
  -3   2   8 2195.08   53.09
   2  -2  -8   40.60    5.00
   2  -2  -8   39.10    2.30
   2  -2  -8   37.00    3.00
  -2   2   8   36.90    2.00
  -2   2   8   51.29    5.30
  -2   2   8   41.20    3.30
   1  -2  -8  214.18    8.60
   1  -2  -8  193.08    6.90
   1  -2  -8  205.58    7.00
  -1   2   8  192.18    7.90
  -1   2   8  181.18    6.50
  -1   2   8  208.18    7.30
   0  -2  -8  333.07   10.20
   0  -2  -8  357.36   11.20
   0  -2  -8  358.76   10.60
   0  -2  -8  356.46   11.00
   0   2   8  365.06   10.30
   0   2   8  332.57   10.70
  -1  -2  -8  616.94   15.90
  -1  -2  -8  606.64   16.70
  -1  -2  -8  658.13   18.20
   1   2   8  607.24   17.50
   1   2   8  632.74   16.50
  -2  -2  -8  241.68    9.70
  -2  -2  -8  238.68    6.90
  -2  -2  -8  234.48    7.10
  -3  -2  -8   10.60    2.60
  -3  -2  -8   10.40    1.50
   3   2   8   10.40    2.30
   3   2   8    9.10    1.40
  -4  -2  -8   -0.90    1.50
  -4  -2  -8    0.20    0.90
   4   2   8    0.50    0.90
   4   2   8    0.40    1.50
  -5  -2  -8   58.79    6.70
   5   2   8   42.30    5.40
   5   2   8   54.79    3.60
   5  -3  -8    1.20    3.00
  -5   3   8   -1.50    1.70
   4  -3  -8   -0.40    1.90
  -4   3   8   -2.60    1.30
   3  -3  -8   17.00    3.70
  -3   3   8   12.80    2.70
   2  -3  -8   86.49    3.70
   2  -3  -8   87.49    4.70
   2  -3  -8   89.69    6.30
  -2   3   8   96.39    3.60
  -2   3   8   90.89    5.00
   1  -3  -8   16.70    2.00
   1  -3  -8   19.60    2.90
   1  -3  -8   22.30    2.50
  -1   3   8   16.20    2.60
  -1   3   8   22.20    2.40
  -1   3   8   17.60    2.20
   0  -3  -8  586.34   16.20
   0  -3  -8  579.14   16.50
   0  -3  -8  604.94   16.70
   0  -3  -8  590.44   15.50
   0   3   8  567.14   16.00
   0   3   8  577.94   15.30
  -1  -3  -8   13.10    2.00
  -1  -3  -8   13.10    2.00
  -1  -3  -8    8.80    2.00
  -1  -3  -8   11.40    1.90
   1   3   8   11.10    1.70
   1   3   8   16.70    2.60
  -2  -3  -8  832.22   21.50
  -2  -3  -8  896.71   24.60
   2   3   8  871.71   22.60
   2   3   8  870.71   21.20
   2   3   8  856.41   22.90
  -3  -3  -8    7.30    2.30
  -3  -3  -8    6.80    1.50
   3   3   8    6.70    1.90
   3   3   8    7.10    1.40
  -4  -3  -8   95.89    4.80
  -4  -3  -8  103.49    7.10
   4   3   8  100.29    4.70
   4   3   8   90.29    6.20
  -5  -3  -8    0.10    1.80
   5   3   8    0.70    1.30
   5   3   8    2.00    2.10
   5  -4  -8    1.10    2.90
  -5   4   8    0.30    2.00
   4  -4  -8    5.90    3.20
  -4   4   8    4.50    2.40
   3  -4  -8    2.90    2.30
  -3   4   8    0.00    1.30
   2  -4  -8   17.90    3.50
   2  -4  -8   19.10    2.00
   2  -4  -8   18.80    2.60
  -2   4   8   13.30    1.60
  -2   4   8   21.50    3.00
   1  -4  -8   38.10    2.90
   1  -4  -8   34.50    2.60
   1  -4  -8   40.70    3.50
   1  -4  -8   38.60    4.30
  -1   4   8   34.50    2.70
  -1   4   8   33.00    2.50
   0  -4  -8  184.38    7.40
   0  -4  -8  187.08    6.50
   0  -4  -8  189.38    7.70
   0   4   8  175.88    7.80
   0   4   8  190.08    6.40
  -1  -4  -8   17.00    2.10
  -1  -4  -8   13.80    2.10
  -1  -4  -8   16.70    2.30
  -1  -4  -8   15.60    2.70
   1   4   8   17.30    2.80
   1   4   8   17.40    2.30
   1   4   8   13.80    1.80
  -2  -4  -8   15.20    2.20
  -2  -4  -8   18.80    3.30
   2   4   8   16.40    2.40
   2   4   8   20.10    2.30
   2   4   8   16.70    2.40
  -3  -4  -8   13.90    3.10
  -3  -4  -8   12.20    2.10
   3   4   8   20.30    3.00
   3   4   8   16.90    2.30
  -4  -4  -8   12.30    2.30
  -4  -4  -8   10.20    3.00
   4   4   8   18.10    3.40
   4   4   8   11.80    2.10
  -5  -4  -8    2.10    2.50
   5   4   8    2.80    2.10
   5   4   8    1.10    1.60
   5  -5  -8    7.70    4.10
  -5   5   8    2.80    2.50
   4  -5  -8    2.40    2.50
  -4   5   8    3.70    2.20
   3  -5  -8  113.59    8.20
  -3   5   8   99.59    6.10
   2  -5  -8   75.79    3.70
   2  -5  -8   72.29    5.80
   2  -5  -8   68.39    4.10
  -2   5   8   80.99    4.60
  -2   5   8   63.39    3.10
   1  -5  -8    0.10    0.70
   1  -5  -8    1.20    1.30
   1  -5  -8    0.00    0.90
   1  -5  -8   -0.20    1.40
  -1   5   8   -0.40    0.80
  -1   5   8   -1.00    0.60
   0  -5  -8  227.68    8.80
   0  -5  -8  235.78    7.40
   0  -5  -8  238.08    9.20
   0  -5  -8  230.48    8.90
   0   5   8  226.78    7.30
   0   5   8  224.58    8.40
  -1  -5  -8  513.65   15.10
  -1  -5  -8  510.85   15.00
  -1  -5  -8  523.65   16.30
   1   5   8  492.05   14.10
   1   5   8  510.45   13.60
  -2  -5  -8  210.78    9.50
  -2  -5  -8  197.18    8.00
   2   5   8  206.68    7.40
   2   5   8  207.78    7.70
   2   5   8  207.68    7.80
  -3  -5  -8   33.10    3.60
  -3  -5  -8   44.60    5.40
   3   5   8   36.20    3.10
   3   5   8   32.30    3.50
  -4  -5  -8   80.99    6.70
  -4  -5  -8   76.29    5.10
   4   5   8   82.19    6.60
   4   5   8   86.59    5.70
  -5  -5  -8    4.80    2.70
   5   5   8    2.80    2.10
   5  -6  -8    2.10    3.20
  -5   6   8    1.30    2.70
   4  -6  -8   33.50    6.00
  -4   6   8   53.09    6.00
   3  -6  -8    6.90    0.90
   3  -6  -8    4.40    2.70
   3  -6  -8    6.20    0.90
  -3   6   8    8.60    2.40
   2  -6  -8    0.40    0.90
   2  -6  -8    1.30    1.90
   2  -6  -8   -0.30    0.80
  -2   6   8   -0.30    0.70
  -2   6   8    0.70    1.00
   1  -6  -8    3.70    1.20
   1  -6  -8    3.10    2.00
   1  -6  -8    4.70    1.70
  -1   6   8    5.70    1.50
  -1   6   8    6.80    1.50
   0  -6  -8    3.80    1.10
   0  -6  -8    2.90    1.50
   0  -6  -8    4.40    1.80
   0  -6  -8    1.40    1.50
   0   6   8    3.20    1.40
   0   6   8    1.60    0.80
  -1  -6  -8    3.00    1.50
  -1  -6  -8    6.00    2.10
  -1  -6  -8    4.50    1.70
   1   6   8    3.10    1.20
   1   6   8    5.10    1.10
  -2  -6  -8  515.65   16.20
  -2  -6  -8  533.05   17.80
   2   6   8  520.65   15.00
   2   6   8  540.95   15.80
   2   6   8  550.54   14.70
  -3  -6  -8   11.80    3.00
   3   6   8    9.70    2.10
   3   6   8   11.10    2.10
   3   6   8   13.50    2.80
  -4  -6  -8   -0.90    1.80
  -4  -6  -8   -0.90    2.50
   4   6   8    0.40    1.40
   4   6   8   -0.10    1.20
   5   6   8    2.90    2.00
   5  -7  -8    1.30    3.10
  -5   7   8    1.70    2.30
   4  -7  -8    0.20    2.60
  -4   7   8    1.90    2.20
   3  -7  -8    5.80    3.60
   3  -7  -8    1.70    0.90
   3  -7  -8    3.20    0.90
  -3   7   8    1.00    1.50
   2  -7  -8   10.10    1.90
   2  -7  -8   10.10    1.90
   2  -7  -8    7.20    2.90
  -2   7   8    8.40    1.60
  -2   7   8    8.80    2.10
   1  -7  -8    4.00    2.20
   1  -7  -8    1.60    1.30
   1  -7  -8    2.80    1.10
  -1   7   8    2.30    1.10
  -1   7   8    4.00    1.40
   0  -7  -8  135.99    5.00
   0  -7  -8  148.79    7.50
   0  -7  -8  127.99    6.60
   0  -7  -8  117.49    6.70
   0   7   8  131.19    4.80
  -1  -7  -8   33.50    4.10
  -1  -7  -8   26.20    3.60
  -1  -7  -8   28.00    4.00
   1   7   8   27.70    2.30
   1   7   8   34.60    4.00
   1   7   8   29.00    2.00
  -2  -7  -8    4.40    2.10
  -2  -7  -8    6.60    2.20
   2   7   8    2.70    1.20
   2   7   8    4.60    1.70
   2   7   8    2.40    1.10
  -3  -7  -8    1.80    2.00
  -3  -7  -8    1.70    2.20
   3   7   8    1.90    1.50
   3   7   8    1.20    1.30
   3   7   8    1.70    1.30
  -4  -7  -8    8.70    3.20
   4   7   8   11.60    2.70
   4   7   8    8.50    2.30
   5  -8  -8   -2.60    2.60
  -5   8   8   -0.40    2.40
   4  -8  -8    0.00    2.30
  -4   8   8    4.00    2.40
   3  -8  -8   41.60    6.20
   3  -8  -8   47.10    2.80
   3  -8  -8   45.60    2.90
  -3   8   8   56.89    5.50
   2  -8  -8   24.80    4.70
   2  -8  -8   21.30    2.60
   2  -8  -8   26.20    4.70
  -2   8   8   28.10    2.80
  -2   8   8   26.20    3.30
   1  -8  -8   72.29    3.60
   1  -8  -8   74.79    6.00
   1  -8  -8   65.49    4.60
  -1   8   8   78.39    4.50
  -1   8   8   64.39    3.70
   0  -8  -8   81.69    5.40
   0  -8  -8   79.39    3.60
   0  -8  -8   87.69    6.10
   0   8   8   82.89    3.50
  -1  -8  -8  179.18    8.60
  -1  -8  -8  189.48    9.10
   1   8   8  205.58    8.80
   1   8   8  188.58    6.20
   1   8   8  192.58    5.90
   2   8   8   81.89    4.00
   2   8   8   75.39    3.60
   2   8   8   78.49    5.30
  -3  -8  -8   18.10    4.00
   3   8   8   14.10    2.40
   3   8   8   18.90    3.20
   3   8   8   19.70    2.50
  -4  -8  -8   -0.50    1.90
   4   8   8    1.00    1.40
   4   8   8    0.60    1.60
   4  -9  -8    2.00    2.90
  -4   9   8    3.80    2.30
   3  -9  -8    9.30    1.80
   3  -9  -8   16.60    2.10
   3  -9  -8   19.90    4.70
  -3   9   8   14.10    3.00
   2  -9  -8    7.50    2.80
   2  -9  -8    2.60    1.30
   2  -9  -8    4.00    1.70
  -2   9   8    5.30    1.70
  -2   9   8    5.70    1.60
   1  -9  -8   35.40    4.10
   1  -9  -8   26.00    4.30
   1  -9  -8   30.30    2.40
  -1   9   8   30.90    2.50
   0  -9  -8  227.98    7.10
   0  -9  -8  235.98    9.90
   0  -9  -8  216.08   10.50
   0   9   8  232.48    6.70
  -1  -9  -8   28.30    4.30
  -1  -9  -8   40.40    4.70
   1   9   8   28.90    4.00
   1   9   8   35.40    1.80
   1   9   8   31.10    1.90
  -2  -9  -8   16.80    3.60
   2   9   8   17.20    1.90
   2   9   8   23.70    3.70
   2   9   8   21.80    1.80
  -3  -9  -8   65.79    6.90
   3   9   8   65.09    4.00
   3   9   8   64.59    3.70
   3   9   8   56.49    5.00
   4   9   8    7.90    2.10
   4   9   8   15.50    3.40
   4 -10  -8    1.00    3.00
  -4  10   8   -0.70    1.90
   3 -10  -8   11.00    2.10
   3 -10  -8   14.70    2.30
   3 -10  -8   15.20    4.20
  -3  10   8   16.20    3.20
   2 -10  -8    4.30    1.70
   2 -10  -8    6.80    3.10
   2 -10  -8    4.40    1.50
  -2  10   8    8.30    2.00
   1 -10  -8   20.40    4.00
   1 -10  -8   20.10    2.10
   1 -10  -8   18.70    3.00
  -1  10   8   19.70    2.20
   0 -10  -8  198.58   10.10
   0 -10  -8  192.08    9.10
   0  10   8  176.08    5.10
   0  10   8  176.68    5.00
  -1 -10  -8   68.99    5.70
   1  10   8   60.89    5.20
  -2 -10  -8   14.40    3.60
   2  10   8   10.90    1.10
   2  10   8   13.50    3.00
   2  10   8   13.10    1.10
  -3 -10  -8   45.10    6.10
   3  10   8   37.70    4.80
   3  10   8   43.70    2.80
  -4 -10  -8    9.40    3.60
   4  10   8    5.20    2.60
   4 -11  -8   -3.20    1.90
  -4  11   8    1.10    2.10
   3 -11  -8    1.10    1.40
   3 -11  -8   -2.20    1.90
  -3  11   8    2.40    1.80
   2 -11  -8   17.20    2.90
   2 -11  -8   17.80    2.40
   2 -11  -8   19.00    4.50
  -2  11   8   20.70    2.80
   1 -11  -8   51.49    2.80
   1 -11  -8   68.99    7.60
   1 -11  -8   60.79    4.90
  -1  11   8   54.39    3.00
   0 -11  -8   16.90    4.20
   0 -11  -8   10.90    2.80
  -1 -11  -8   -0.30    1.90
  -1 -11  -8    2.10    2.00
   1  11   8   -0.40    1.40
  -2 -11  -8   42.80    5.70
   2  11   8   41.10    5.10
  -3 -11  -8    2.30    2.30
   3  11   8    9.40    2.80
   4 -12  -8    2.90    3.50
  -4  12   8    3.80    2.50
   3 -12  -8    2.50    1.50
   3 -12  -8    4.80    3.30
  -3  12   8    3.30    2.00
   2 -12  -8   27.80    5.30
   2 -12  -8   31.00    4.00
   1 -12  -8   19.90    4.50
   1 -12  -8   14.80    3.10
   1 -12  -8   21.20    1.60
  -1  12   8   19.80    1.50
   0 -12  -8   43.60    6.30
   0 -12  -8   42.40    5.20
  -1 -12  -8   -0.60    1.60
  -1 -12  -8    0.70    2.00
   1  12   8    1.90    1.80
  -2 -12  -8    1.60    2.10
   2  12   8    0.80    1.70
  -3 -12  -8    6.60    3.10
   3  12   8   11.30    3.20
   3 -13  -8    6.40    2.10
   3 -13  -8    7.50    4.00
  -3  13   8    8.10    2.60
   2 -13  -8   -0.10    2.20
   2 -13  -8   -0.80    1.40
  -2  13   8   -0.10    1.10
   1 -13  -8    7.10    3.20
   1 -13  -8   15.90    3.20
   0 -13  -8   35.20    5.60
   0 -13  -8   34.50    4.90
  -1 -13  -8    5.20    2.60
  -1 -13  -8    6.40    2.90
  -2 -13  -8   -0.40    2.10
   2  13   8   -0.80    1.60
   3 -14  -8    1.50    3.10
   3 -14  -8   -0.20    1.80
  -3  14   8    1.70    1.90
   2 -14  -8    4.60    3.40
   2 -14  -8    1.80    2.00
   1 -14  -8    4.40    3.20
   1 -14  -8    3.90    2.20
   0 -14  -8   15.60    3.50
   0 -14  -8   12.80    4.20
  -1 -14  -8    8.40    3.50
  -1 -14  -8    7.50    2.90
  -2 -14  -8   33.80    5.40
   2  14   8   32.40    5.10
   2 -15  -8    0.50    2.00
   2 -15  -8   -0.10    2.90
   1 -15  -8   35.80    5.30
   1 -15  -8   35.20    7.10
   0 -15  -8   18.30    4.20
   0 -15  -8   21.40    5.10
  -1 -15  -8    1.60    2.30
  -1 -15  -8    2.80    3.00
   1 -16  -8   24.70    5.80
   0 -16  -8    1.00    3.10
   0 -16  -8   -0.70    2.00
   0  20  -9   29.50    5.80
  -1  20  -9   20.10    5.70
   1 -20   9   26.80    4.50
   1  19  -9    6.80    3.40
  -1 -19   9    8.20    2.90
   0  19  -9    1.20    2.50
   0 -19   9    0.20    1.20
   0 -19   9    1.20    2.60
  -1  19  -9    5.20    3.00
   1 -19   9    5.10    2.00
  -2  19  -9   12.30    3.80
   2 -19   9    8.90    2.50
   2 -19   9    9.80    3.10
   2  18  -9    8.50    3.80
  -2 -18   9    7.70    2.10
  -2 -18   9    8.10    3.10
   1  18  -9    5.70    3.20
  -1 -18   9    9.20    2.00
  -1 -18   9    4.60    2.60
   0  18  -9   54.99    6.90
   0 -18   9   43.60    5.50
   0 -18   9   58.19    4.10
  -1  18  -9   32.40    5.30
   1 -18   9   22.00    4.00
   1 -18   9   27.90    3.50
  -2  18  -9   86.89    7.40
   2 -18   9   97.09    7.10
   2 -18   9   97.09    9.70
   3 -18   9    1.40    2.10
   3 -18   9    1.50    2.60
   3  17  -9    4.10    3.50
  -3 -17   9    4.80    2.80
  -3 -17   9    6.00    2.20
   2  17  -9   11.70    4.10
  -2 -17   9   16.50    3.80
   1  17  -9   82.19    8.70
  -1 -17   9   72.29    4.60
  -1 -17   9   81.99    6.50
   0  17  -9   26.80    5.00
   0 -17   9   29.20    3.30
   0 -17   9   33.30    4.90
  -1  17  -9    7.40    2.80
   1 -17   9   10.70    3.00
   1 -17   9    8.20    2.10
  -2  17  -9    0.80    1.90
   2 -17   9    0.90    1.70
   2 -17   9    3.70    1.90
   3 -17   9   26.40    4.40
   3 -17   9   30.60    5.30
   3 -17   9   23.90    3.90
   3  16  -9   33.90    6.40
  -3 -16   9   37.80    4.40
  -3 -16   9   45.40    5.80
   2  16  -9   -0.50    2.30
  -2 -16   9    0.40    1.20
  -2 -16   9    0.50    1.80
   1  16  -9   -0.20    2.00
  -1 -16   9    1.30    1.70
  -1 -16   9    1.80    1.30
   0  16  -9   68.19    7.50
   0 -16   9   65.39    4.40
   0 -16   9   60.39    6.30
  -1  16  -9   14.00    4.10
   1 -16   9   14.60    3.10
   1 -16   9   18.30    2.90
   2 -16   9   -0.40    1.50
   2 -16   9    1.40    1.40
   3 -16   9    5.80    2.90
   3 -16   9    3.20    1.80
   3 -16   9    6.40    2.40
   4 -16   9    1.60    2.20
   4 -16   9    0.50    1.90
   4 -16   9    5.50    3.00
   3  15  -9    1.70    2.70
  -3 -15   9    2.40    2.00
  -3 -15   9    3.40    1.80
   2  15  -9   -2.00    1.70
  -2 -15   9   -0.30    1.40
  -2 -15   9    1.20    1.20
   1  15  -9   71.89    7.80
  -1 -15   9   64.49    5.40
  -1 -15   9   62.09    4.30
   0  15  -9   44.50    5.90
   0 -15   9   33.00    4.40
   0 -15   9   34.80    3.70
  -1  15  -9   56.29    6.00
   1 -15   9   46.60    4.50
   1 -15   9   45.20    5.00
  -2  15  -9    7.80    2.50
   2 -15   9    5.30    1.90
   2 -15   9    8.40    2.60
   3 -15   9    0.40    1.60
   3 -15   9    0.00    1.60
   3 -15   9   -1.60    1.40
   4 -15   9    2.00    2.30
   4 -15   9    1.20    1.80
   4 -15   9    5.30    3.20
   4  14  -9   13.10    4.60
  -4 -14   9   12.20    3.00
  -4 -14   9   11.90    3.20
   3  14  -9    3.20    3.00
  -3 -14   9    5.50    2.00
  -3 -14   9    9.50    2.90
   2  14  -9   63.29    7.30
  -2 -14   9   53.19    5.40
  -2 -14   9   46.60    4.00
   1  14  -9  111.69    8.50
  -1 -14   9  118.09    5.80
  -1 -14   9  100.09    7.40
   0  14  -9   23.40    4.10
   0 -14   9   18.20    3.70
   0 -14   9   23.90    3.10
  -1  14  -9   95.99    6.60
   1 -14   9   97.59    5.50
  -2  14  -9   59.19    5.00
   2 -14   9   56.39    4.60
   2 -14   9   69.69    5.30
   3 -14   9    1.60    1.70
   3 -14   9    2.50    1.90
   3 -14   9    0.20    1.60
   4 -14   9   16.70    3.50
   4 -14   9   20.30    4.00
   4 -14   9   19.90    3.70
   4  13  -9    8.70    4.50
  -4 -13   9   13.80    3.20
  -4 -13   9    6.30    2.60
   3  13  -9    5.50    2.90
  -3 -13   9    7.10    2.40
  -3 -13   9    8.00    2.30
   2  13  -9    2.80    2.30
  -2 -13   9    2.90    1.80
  -2 -13   9    3.20    1.50
   1  13  -9   46.10    6.00
  -1 -13   9   51.49    5.20
  -1 -13   9   33.30    3.50
   0  13  -9    3.10    2.10
   0 -13   9    0.10    1.20
   0 -13   9    1.20    1.10
  -1  13  -9   12.00    2.80
   1 -13   9   12.50    2.50
   1 -13   9   12.50    2.70
  -2  13  -9    0.20    1.40
   2 -13   9    0.20    1.30
   2 -13   9    1.10    1.40
  -3  13  -9    7.00    2.80
   3 -13   9    7.80    2.50
   3 -13   9    6.30    2.50
   3 -13   9   10.00    2.70
   4 -13   9    1.50    1.80
   4 -13   9    0.10    1.50
   4 -13   9    0.50    1.80
   4  12  -9    1.90    2.90
  -4 -12   9    1.90    1.90
  -4 -12   9    1.50    1.70
   3  12  -9   67.99    7.90
  -3 -12   9   65.89    5.00
  -3 -12   9   62.79    5.00
   2  12  -9   51.09    6.60
  -2 -12   9   48.10    4.80
  -2 -12   9   34.90    3.80
   1  12  -9  207.38   10.50
  -1 -12   9  205.48    8.10
  -1 -12   9  198.78    8.80
   0  12  -9  109.89    6.50
   0  12  -9  113.79    7.10
   0 -12   9  122.29    5.90
   0 -12   9  123.59    6.60
  -1  12  -9  128.99    6.90
   1 -12   9  124.09    6.20
   1 -12   9  124.99    6.70
  -2  12  -9    8.10    2.20
  -2  12  -9    5.10    2.30
   2 -12   9    6.50    1.90
   2 -12   9    8.80    2.50
  -3  12  -9    0.20    1.70
   3 -12   9    0.00    1.40
   3 -12   9    0.20    2.10
   3 -12   9    2.20    1.60
  -4  12  -9   -1.00    1.80
   4 -12   9   -0.70    1.40
   4 -12   9   -0.20    1.70
  -5  12  -9   24.20    4.60
   5 -12   9   29.30    5.20
   4  11  -9   44.70    7.40
  -4 -11   9   47.60    5.60
  -4 -11   9   50.99    5.10
   3  11  -9   32.40    5.50
  -3 -11   9   52.29    5.30
  -3 -11   9   52.99    5.10
   2  11  -9   -0.10    2.00
  -2 -11   9    0.90    1.20
  -2 -11   9    0.30    1.10
   1  11  -9  162.58    9.10
   1  11  -9  166.98    8.00
  -1 -11   9  174.98    7.20
  -1 -11   9  175.98    7.80
   0  11  -9  105.49    6.50
   0  11  -9   99.39    5.30
   0 -11   9   93.49    5.50
   0 -11   9   99.49    5.20
  -1  11  -9   42.50    5.10
  -1  11  -9   40.80    4.30
   1 -11   9   27.10    3.80
   1 -11   9   30.40    3.50
  -2  11  -9  171.18    9.00
  -2  11  -9  191.78    8.40
   2 -11   9  175.38    8.10
   2 -11   9  171.78    9.10
  -3  11  -9    7.20    2.60
   3 -11   9   11.50    2.50
   3 -11   9   17.90    3.40
   3 -11   9   10.00    2.70
  -4  11  -9   35.30    4.90
   4 -11   9   36.50    4.30
   4 -11   9   28.70    4.50
  -5  11  -9    3.10    2.60
   5 -11   9    8.50    3.30
   5  10  -9    1.00    3.40
  -5 -10   9    0.70    1.80
  -5 -10   9   -0.90    1.80
   4  10  -9    9.20    3.80
  -4 -10   9   18.20    3.00
  -4 -10   9   15.70    3.40
   3  10  -9   75.69    8.00
  -3 -10   9   67.79    4.70
  -3 -10   9   70.89    5.20
   2  10  -9   23.40    4.20
  -2 -10   9   16.90    2.70
  -2 -10   9   17.80    2.70
   1  10  -9  280.57   12.10
   1  10  -9  289.27   10.10
  -1 -10   9  305.07   10.70
  -1 -10   9  309.57   10.20
   0  10  -9   25.60    3.70
   0  10  -9   28.00    3.30
   0 -10   9   28.90    3.20
   0 -10   9   21.40    3.50
   0 -10   9   28.50    3.70
  -1  10  -9    9.00    2.10
  -1  10  -9    6.20    2.40
   1 -10   9    5.90    1.90
   1 -10   9    8.00    1.90
  -2  10  -9   65.59    4.10
  -2  10  -9   53.29    5.70
   2 -10   9   55.49    4.10
   2 -10   9   69.39    4.80
  -3  10  -9   16.50    3.40
   3 -10   9   15.90    2.50
   3 -10   9   14.50    2.50
   3 -10   9   16.60    3.20
   4 -10   9   36.90    3.90
   4 -10   9   41.30    4.30
   4 -10   9   35.80    5.20
  -5  10  -9    5.40    2.70
   5 -10   9    5.30    4.30
   5   9  -9   -0.80    3.10
  -5  -9   9   -0.80    1.40
  -5  -9   9   -1.50    1.70
   4   9  -9   82.39    9.60
  -4  -9   9   73.59    6.00
  -4  -9   9   76.19    4.80
   3   9  -9   83.69    9.60
  -3  -9   9   91.49    5.20
  -3  -9   9  105.39    6.20
   2   9  -9   43.70    5.60
  -2  -9   9   54.89    3.90
  -2  -9   9   50.59    4.00
   1   9  -9   32.20    3.40
   1   9  -9   36.10    4.60
  -1  -9   9   38.80    3.30
  -1  -9   9   43.00    3.30
   0   9  -9   80.69    4.60
   0   9  -9   84.39    5.50
   0  -9   9   78.99    5.90
   0  -9   9   87.59    4.70
  -1   9  -9  306.17   10.80
  -1   9  -9  301.97   10.20
  -1   9  -9  310.27   11.80
   1  -9   9  285.77   10.40
   1  -9   9  304.17   10.50
  -2   9  -9  624.74   19.60
  -2   9  -9  627.14   16.90
   2  -9   9  600.84   17.30
   2  -9   9  650.53   18.80
  -3   9  -9   33.20    4.50
   3  -9   9   33.70    4.20
   3  -9   9   37.20    3.10
   3  -9   9   34.60    3.00
  -4   9  -9   74.59    6.10
   4  -9   9   70.49    4.30
   4  -9   9   69.59    4.40
   4  -9   9   79.09    6.40
  -5   9  -9   27.70    4.50
   5  -9   9   28.40    4.20
   5  -9   9   22.70    4.80
  -5  -8   9   14.80    2.50
  -5  -8   9   14.70    3.70
   4   8  -9   -0.60    2.20
  -4  -8   9    2.30    1.40
  -4  -8   9    7.40    2.50
   3   8  -9    0.90    2.00
  -3  -8   9    0.40    1.20
  -3  -8   9    2.80    1.30
  -3  -8   9    0.60    1.40
   2   8  -9    6.30    2.60
  -2  -8   9    4.00    1.70
  -2  -8   9    5.90    1.60
  -2  -8   9    1.70    1.30
   1   8  -9   18.40    2.50
   1   8  -9   23.70    3.80
  -1  -8   9   19.60    2.70
  -1  -8   9   15.70    2.30
  -1  -8   9   19.50    3.10
  -1  -8   9   17.30    3.20
   0   8  -9   45.00    3.40
   0   8  -9   49.00    3.90
   0   8  -9   57.89    4.50
   0  -8   9   54.69    3.70
   0  -8   9   43.10    3.80
   0  -8   9   58.59    4.40
  -1   8  -9   58.29    4.10
  -1   8  -9   64.09    4.70
  -1   8  -9   66.79    3.80
   1  -8   9   62.39    4.10
   1  -8   9   57.19    3.90
  -2   8  -9  335.27   12.50
   2  -8   9  347.37   10.10
   2  -8   9  325.87   10.30
   2  -8   9  331.87   11.80
  -3   8  -9   36.50    4.80
   3  -8   9   33.30    2.60
   3  -8   9   32.20    4.00
   3  -8   9   29.50    2.50
  -4   8  -9   13.50    3.20
   4  -8   9   12.50    3.20
   4  -8   9   15.50    2.10
   4  -8   9   15.30    2.20
  -5   8  -9   25.40    4.50
   5  -8   9   30.60    5.20
   5   7  -9   21.40    5.40
  -5  -7   9   20.30    4.20
  -5  -7   9   23.20    2.60
   4   7  -9    5.50    3.10
  -4  -7   9    5.50    1.90
  -4  -7   9    3.70    1.40
  -4  -7   9    6.40    2.60
   3   7  -9    0.70    2.20
  -3  -7   9    2.50    1.20
  -3  -7   9    0.30    1.30
  -3  -7   9    1.50    1.30
   2   7  -9   79.89    6.30
  -2  -7   9   74.09    4.70
  -2  -7   9   87.49    5.40
  -2  -7   9   84.29    4.40
   1   7  -9    6.60    1.60
   1   7  -9    9.30    2.50
   1   7  -9    7.70    1.90
  -1  -7   9    8.20    1.70
  -1  -7   9    9.00    2.50
  -1  -7   9    5.80    1.80
  -1  -7   9    6.80    1.50
   0   7  -9   38.00    3.30
   0   7  -9   34.60    2.90
   0   7  -9   49.20    4.70
   0  -7   9   39.90    4.00
   0  -7   9   34.70    3.00
   0  -7   9   45.10    4.30
  -1   7  -9  697.53   20.70
  -1   7  -9  721.03   20.00
  -1   7  -9  737.93   18.60
   1  -7   9  727.83   19.80
   1  -7   9  715.23   18.90
   1  -7   9  710.83   20.50
  -2   7  -9    5.80    2.00
   2  -7   9    5.80    1.20
   2  -7   9    3.50    1.60
   2  -7   9    4.20    1.10
  -3   7  -9  129.59    7.40
   3  -7   9  126.49    4.60
   3  -7   9  130.89    7.20
   3  -7   9  135.49    4.80
  -4   7  -9   87.09    6.30
   4  -7   9   72.39    4.20
   4  -7   9   76.79    3.50
   4  -7   9   80.49    6.40
  -5   7  -9    3.20    2.50
   5  -7   9   -1.10    1.90
   5   6  -9    0.60    2.70
  -5  -6   9    1.80    2.40
  -5  -6   9    2.10    1.00
   4   6  -9   51.69    7.00
  -4  -6   9   72.89    5.80
  -4  -6   9   62.29    3.50
  -4  -6   9   57.99    3.80
   3   6  -9   10.10    3.30
  -3  -6   9    7.30    1.70
  -3  -6   9   12.50    2.70
  -3  -6   9   13.40    1.90
   2   6  -9   83.19    6.30
  -2  -6   9   71.29    4.30
  -2  -6   9   72.89    3.90
  -2  -6   9   70.19    4.60
   1   6  -9   59.79    4.60
   1   6  -9   65.59    4.30
   1   6  -9   57.09    3.70
  -1  -6   9   58.49    4.00
  -1  -6   9   60.19    4.50
  -1  -6   9   68.69    4.10
   0   6  -9    4.90    1.30
   0   6  -9    5.70    1.70
   0  -6   9    4.00    1.40
  -1   6  -9   -0.70    1.00
  -1   6  -9    2.50    1.20
  -1   6  -9    1.60    0.80
   1  -6   9    1.20    1.00
   1  -6   9    1.20    1.20
   1  -6   9    2.80    1.70
  -2   6  -9  358.06   12.90
   2  -6   9  354.16    9.10
   2  -6   9  358.86   12.20
   2  -6   9  353.46    9.20
  -3   6  -9   70.19    5.40
   3  -6   9   66.99    5.10
  -4   6  -9    1.20    1.90
   4  -6   9    1.60    1.80
  -5   6  -9    7.10    2.70
   5  -6   9    3.90    2.70
   5   5  -9   -3.40    2.30
  -5  -5   9   -1.70    1.50
   4   5  -9   44.60    6.60
  -4  -5   9   39.20    5.20
  -4  -5   9   42.80    2.90
  -4  -5   9   46.90    2.70
   3   5  -9   25.20    4.70
  -3  -5   9   25.00    2.70
  -3  -5   9   25.50    3.70
  -3  -5   9   22.70    2.30
   2   5  -9    6.30    2.50
  -2  -5   9    3.00    1.00
  -2  -5   9    6.00    1.70
  -2  -5   9    3.80    1.30
   1   5  -9  275.87    9.60
   1   5  -9  297.97   11.00
   1   5  -9  294.57   10.00
  -1  -5   9  292.07    9.80
  -1  -5   9  303.07    9.90
  -1  -5   9  289.17   10.70
   0   5  -9  297.27    9.70
   0   5  -9  301.17   10.30
   0  -5   9  277.17    9.50
   0  -5   9  278.37    9.90
   0  -5   9  297.87   10.60
  -1   5  -9  320.47   10.90
  -1   5  -9  346.77    9.10
  -1   5  -9  338.17   11.70
   1  -5   9  329.37    9.20
   1  -5   9  332.37   10.90
   1  -5   9  317.67   11.20
  -2   5  -9    1.50    1.40
   2  -5   9    4.70    1.70
  -3   5  -9  331.37   12.80
   3  -5   9  336.37   12.50
  -4   5  -9   43.70    5.30
   4  -5   9   28.50    4.20
  -5   5  -9   18.70    3.80
   5  -5   9   10.80    3.40
   5   4  -9   19.80    5.10
  -5  -4   9   19.80    4.30
   4   4  -9    0.40    2.30
  -4  -4   9    3.60    1.20
  -4  -4   9    2.50    0.80
  -4  -4   9    4.50    2.10
   3   4  -9    1.00    1.90
  -3  -4   9    0.80    1.40
  -3  -4   9    1.20    0.90
  -3  -4   9    0.10    0.60
   2   4  -9  126.19    7.40
  -2  -4   9  130.29    7.20
  -2  -4   9  121.59    6.10
  -2  -4   9  131.49    4.90
  -2  -4   9  118.69    5.20
   1   4  -9   16.40    2.30
   1   4  -9   29.20    3.70
   1   4  -9   22.70    2.70
  -1  -4   9   18.50    2.90
  -1  -4   9   14.50    2.20
  -1  -4   9   20.30    2.60
   0   4  -9   59.29    3.70
   0   4  -9   57.39    4.00
   0   4  -9   62.29    3.70
   0  -4   9   59.49    4.20
   0  -4   9   58.59    3.90
   0  -4   9   62.79    3.60
  -1   4  -9  879.21   23.80
  -1   4  -9  928.41   21.10
  -1   4  -9  913.31   24.60
   1  -4   9  906.91   21.20
   1  -4   9  935.71   23.80
   1  -4   9  890.61   24.10
  -2   4  -9   24.00    3.40
   2  -4   9   28.10    3.40
  -3   4  -9  146.29    7.90
   3  -4   9  152.28    7.70
  -4   4  -9    0.90    1.80
   4  -4   9    1.10    1.80
  -5   4  -9   50.79    6.00
   5  -4   9   49.99    6.40
   5   3  -9    9.20    4.10
  -5  -3   9   12.10    3.60
   4   3  -9   58.79    7.30
  -4  -3   9   67.29    5.60
   3   3  -9   23.70    4.40
  -3  -3   9   19.10    3.30
  -3  -3   9   18.50    1.50
  -3  -3   9   16.90    1.80
   2   3  -9  117.19    7.00
   2   3  -9  108.79    4.80
  -2  -3   9  103.69    6.50
  -2  -3   9   99.19    5.50
  -2  -3   9  108.89    4.60
   1   3  -9    0.30    1.30
   1   3  -9    0.80    1.00
   1   3  -9    1.40    1.00
  -1  -3   9    0.10    0.80
  -1  -3   9    0.30    0.80
  -1  -3   9    1.50    1.20
   0   3  -9  168.98    6.90
   0   3  -9  147.99    6.20
   0   3  -9  162.38    6.20
   0  -3   9  162.58    6.20
   0  -3   9  152.38    6.40
   0  -3   9  168.68    6.50
  -1   3  -9  276.47    6.70
  -1   3  -9  262.07    9.60
  -1   3  -9  271.97   10.00
   1  -3   9  271.57    6.80
   1  -3   9  256.27    9.10
   1  -3   9  258.17    9.60
  -2   3  -9  335.87   12.00
   2  -3   9  315.27   11.10
  -3   3  -9  267.07   11.20
   3  -3   9  286.57   11.10
  -4   3  -9    3.70    2.20
   4  -3   9    6.70    2.30
  -5   3  -9    0.90    1.90
   5  -3   9    1.60    1.90
   5   2  -9   19.60    4.90
  -5  -2   9   20.50    4.40
   4   2  -9    1.60    2.40
  -4  -2   9    0.00    1.20
   3   2  -9   31.50    5.00
  -3  -2   9   30.90    3.80
  -3  -2   9   33.10    1.90
  -3  -2   9   32.50    1.70
   2   2  -9    7.20    1.40
   2   2  -9    7.90    2.60
  -2  -2   9    7.90    2.30
  -2  -2   9    5.60    1.20
  -2  -2   9   10.40    2.30
   1   2  -9   45.10    3.80
   1   2  -9   45.30    4.40
   1   2  -9   42.40    3.10
  -1  -2   9   49.99    3.30
  -1  -2   9   42.80    2.90
  -1  -2   9   42.70    3.50
   0   2  -9  842.92   21.10
   0   2  -9  774.92   21.10
   0   2  -9  864.91   22.00
   0  -2   9  818.42   21.20
   0  -2   9  814.62   20.70
   0  -2   9  806.22   21.50
  -1   2  -9   23.20    1.20
  -1   2  -9   24.50    3.10
  -1   2  -9   24.20    1.10
   1  -2   9   21.50    3.00
   1  -2   9   23.10    2.90
  -2   2  -9  800.02   22.30
   2  -2   9  776.12   21.20
   2  -2   9  734.43   21.70
  -3   2  -9   67.89    6.30
   3  -2   9   58.99    4.70
  -4   2  -9  171.38    9.10
   4  -2   9  170.98   10.40
  -5   2  -9   39.40    5.30
   5  -2   9   41.00    5.90
   5   1  -9    3.80    3.40
  -5  -1   9    4.30    2.60
   4   1  -9   -1.00    2.00
  -4  -1   9    2.80    2.00
   3   1  -9    2.70    2.40
  -3  -1   9   -0.20    1.20
  -3  -1   9    1.10    0.50
   2   1  -9   63.29    5.30
   2   1  -9   65.89    3.30
  -2  -1   9   57.39    3.00
  -2  -1   9   68.89    4.40
  -2  -1   9   67.49    5.10
   1   1  -9   11.50    1.80
   1   1  -9   12.20    2.30
  -1  -1   9   11.40    2.40
  -1  -1   9   11.80    1.80
  -1  -1   9   17.80    2.90
   0   1  -9  250.87    8.60
   0   1  -9  256.67    9.10
   0   1  -9  271.07    8.60
   0  -1   9  262.47    8.30
   0  -1   9  256.67    8.60
   0  -1   9  248.68    8.80
  -1   1  -9  280.17    7.20
  -1   1  -9  284.37    9.70
  -1   1  -9  314.87    8.10
  -1   1  -9  273.87   10.30
   1  -1   9  273.47   10.00
   1  -1   9  293.97   10.50
  -2   1  -9   27.00    3.80
   2  -1   9   30.60    4.00
   2  -1   9   37.20    4.00
  -3   1  -9  177.18    8.80
   3  -1   9  180.98    8.30
  -4   1  -9    5.80    2.50
  -5   1  -9    2.50    2.30
   5  -1   9    1.80    2.20
   5   0  -9    2.90    3.20
  -5   0   9    0.50    2.00
   4   0  -9   31.50    5.90
  -4   0   9   19.10    3.80
   2   0  -9   89.69    3.80
   2   0  -9   87.39    6.10
   2   0  -9   81.79    5.20
  -2   0   9   91.79    3.70
  -2   0   9   75.49    5.50
  -2   0   9   90.99    5.10
   1   0  -9    0.80    0.90
   1   0  -9   -1.80    0.80
   1   0  -9    0.40    0.80
  -1   0   9   -0.90    0.60
  -1   0   9    0.90    1.00
   0   0  -9  242.28    8.20
   0   0  -9  244.48    8.80
   0   0  -9  250.37    8.30
   0   0   9  241.68    8.50
   0   0   9  236.38    7.90
   0   0   9  230.58    8.10
  -1   0  -9  275.77    9.40
  -1   0  -9  280.27   10.30
  -1   0  -9  278.97    7.70
  -1   0  -9  275.77    7.40
   1   0   9  278.87    9.20
   1   0   9  278.77    9.90
  -2   0  -9  124.39    6.70
   2   0   9  120.49    5.80
   2   0   9  105.69    5.90
  -3   0  -9  272.87   11.40
   3   0   9  275.57   10.70
  -4   0  -9   20.60    3.80
   4   0   9   25.50    4.30
  -5   0  -9    3.40    2.30
   5   0   9    0.80    2.00
   5  -1  -9   10.90    4.50
  -5   1   9    4.70    2.90
   4  -1  -9    9.60    3.70
  -4   1   9   19.20    3.60
   3  -1  -9    7.80    3.20
  -3   1   9    5.40    2.10
   2  -1  -9    1.90    0.90
   2  -1  -9    0.80    1.20
   2  -1  -9    3.50    2.00
  -2   1   9    2.50    1.30
  -2   1   9    3.20    0.90
   1  -1  -9  160.48    6.50
   1  -1  -9  181.38    8.00
   1  -1  -9  174.78    6.60
  -1   1   9  155.08    7.10
  -1   1   9  175.88    6.30
   0  -1  -9  142.19    5.90
   0  -1  -9  167.38    6.80
   0  -1  -9  152.88    5.80
   0  -1  -9  143.99    6.20
   0   1   9  153.58    6.00
   0   1   9  141.09    6.10
  -1  -1  -9   19.00    1.70
  -1  -1  -9   22.00    3.10
  -1  -1  -9   15.30    2.30
  -1  -1  -9   17.70    1.60
   1   1   9   12.30    2.30
   1   1   9   12.60    2.00
  -2  -1  -9  258.37   10.40
   2   1   9  241.98    9.50
   2   1   9  268.17    9.40
  -3  -1  -9  327.17   12.70
   3   1   9  308.97   11.50
  -4  -1  -9    0.80    1.80
   4   1   9    0.60    1.60
  -5  -1  -9   -1.20    1.70
   5   1   9    2.60    2.10
   5  -2  -9    3.00    3.40
  -5   2   9    1.20    2.30
   4  -2  -9   -1.40    2.00
  -4   2   9   -0.20    1.50
   3  -2  -9  313.37   14.20
  -3   2   9  328.37   12.10
   2  -2  -9   17.60    3.50
   2  -2  -9   17.80    2.80
   2  -2  -9   20.10    2.10
  -2   2   9   20.30    2.90
  -2   2   9   20.00    1.90
   1  -2  -9   81.89    4.30
   1  -2  -9   93.09    5.70
   1  -2  -9   88.69    4.40
  -1   2   9   86.69    5.10
  -1   2   9   91.99    4.30
  -1   2   9   85.19    5.10
   0  -2  -9   65.79    3.70
   0  -2  -9   77.99    4.10
   0  -2  -9   68.39    4.50
   0  -2  -9   73.09    4.20
   0   2   9   73.29    4.20
   0   2   9   67.59    3.70
  -1  -2  -9    6.10    1.30
  -1  -2  -9    6.40    2.00
  -1  -2  -9    6.20    1.60
  -1  -2  -9    6.90    1.40
   1   2   9    6.90    1.50
   1   2   9    4.30    1.60
  -2  -2  -9   40.70    4.60
  -2  -2  -9   40.40    2.40
  -2  -2  -9   45.40    2.30
   2   2   9   48.50    4.60
   2   2   9   47.80    3.50
  -3  -2  -9    2.80    0.70
  -3  -2  -9    2.10    0.70
  -3  -2  -9    3.90    2.00
   3   2   9    5.50    1.80
  -4  -2  -9   17.30    3.80
  -4  -2  -9   19.20    1.40
   4   2   9   19.60    1.60
   4   2   9   16.20    3.10
  -5  -2  -9    2.90    2.30
   5   2   9    1.30    2.20
   5  -3  -9    1.60    3.10
  -5   3   9    1.20    2.30
   4  -3  -9    7.40    3.50
  -4   3   9    4.40    2.40
   3  -3  -9    4.80    2.70
  -3   3   9   10.40    2.50
   2  -3  -9   15.10    3.20
   2  -3  -9   15.60    1.90
  -2   3   9   13.60    1.60
  -2   3   9   22.40    3.10
   1  -3  -9  123.59    6.70
   1  -3  -9  124.39    6.20
   1  -3  -9  119.89    5.30
   1  -3  -9  124.29    5.50
  -1   3   9  119.09    6.20
  -1   3   9  118.09    5.10
  -1   3   9  114.49    5.40
   0  -3  -9   14.40    2.10
   0  -3  -9   13.30    2.10
   0  -3  -9   12.40    2.20
   0  -3  -9   19.60    2.80
   0   3   9   17.90    2.60
   0   3   9   15.60    2.00
  -1  -3  -9    1.80    1.40
  -1  -3  -9   -0.70    0.70
  -1  -3  -9   -0.30    0.80
  -1  -3  -9   -0.10    0.80
   1   3   9    1.10    0.90
  -2  -3  -9    0.10    0.80
  -2  -3  -9    1.60    1.60
  -2  -3  -9    1.10    0.90
   2   3   9    0.00    1.00
   2   3   9    0.20    1.10
  -3  -3  -9   10.30    3.00
   3   3   9    8.80    1.40
   3   3   9    8.20    2.00
  -4  -3  -9   47.80    3.30
  -4  -3  -9   45.30    5.80
   4   3   9   45.80    2.80
   4   3   9   58.99    5.00
  -5  -3  -9    5.00    2.80
   5   3   9    2.00    2.10
   5  -4  -9    0.80    3.40
  -5   4   9   -0.90    2.20
   4  -4  -9   35.20    6.00
  -4   4   9   40.90    5.10
   3  -4  -9   32.00    5.40
  -3   4   9   20.00    3.30
   2  -4  -9   15.20    2.00
   2  -4  -9   15.10    3.40
  -2   4   9   14.20    1.80
  -2   4   9   12.10    2.50
   1  -4  -9   36.00    2.80
   1  -4  -9   36.50    4.30
   1  -4  -9   37.80    4.10
   1  -4  -9   40.40    3.20
  -1   4   9   39.10    3.00
  -1   4   9   34.40    2.80
   0  -4  -9    4.30    1.60
   0  -4  -9    3.40    1.20
   0  -4  -9    3.00    1.40
   0  -4  -9    5.20    1.60
   0   4   9    4.60    1.30
   0   4   9    3.60    1.40
  -1  -4  -9    2.00    1.30
  -1  -4  -9    0.30    1.20
  -1  -4  -9    1.70    1.10
  -1  -4  -9    0.90    1.10
   1   4   9    0.90    0.90
  -2  -4  -9  343.37   12.90
  -2  -4  -9  308.97   10.30
  -2  -4  -9  328.47   10.10
   2   4   9  329.27   11.20
   2   4   9  354.86   10.90
  -3  -4  -9   33.40    4.60
  -3  -4  -9   43.70    3.20
   3   4   9   51.99    4.00
   3   4   9   47.50    3.00
  -4  -4  -9   -0.80    1.70
  -4  -4  -9   -0.20    1.10
   4   4   9   -0.70    0.90
   4   4   9    1.50    1.70
  -5  -4  -9   54.09    6.90
   5   4   9   54.49    6.00
   5  -5  -9    5.10    5.80
  -5   5   9    8.00    3.40
   4  -5  -9    0.10    2.10
  -4   5   9   -0.50    1.70
   3  -5  -9    3.70    2.50
  -3   5   9    4.80    2.00
   2  -5  -9   26.00    4.30
   2  -5  -9   30.80    2.90
  -2   5   9   25.90    3.20
  -2   5   9   23.80    2.30
   1  -5  -9  105.09    6.60
   1  -5  -9  107.39    4.90
  -1   5   9  105.59    5.10
  -1   5   9  110.09    5.10
   0  -5  -9   44.60    4.60
   0  -5  -9   34.40    2.60
   0  -5  -9   34.40    3.80
   0   5   9   34.60    3.60
   0   5   9   40.70    2.70
  -1  -5  -9    4.20    1.60
  -1  -5  -9    1.60    1.30
  -1  -5  -9    0.50    1.40
   1   5   9    3.60    1.40
   1   5   9    3.50    1.20
  -2  -5  -9   23.60    2.90
  -2  -5  -9   25.00    3.20
  -2  -5  -9   20.60    3.50
   2   5   9   26.40    2.90
   2   5   9   27.40    3.40
  -3  -5  -9    0.20    1.20
  -3  -5  -9   -1.60    1.40
   3   5   9   -0.40    1.00
   3   5   9   -0.10    0.80
  -4  -5  -9    1.80    2.20
   4   5   9    4.80    2.10
   4   5   9    3.60    1.50
   5   5   9   39.70    5.10
   5  -6  -9    1.00    3.10
  -5   6   9    4.90    3.30
   4  -6  -9   25.20    5.30
  -4   6   9   31.60    4.70
   3  -6  -9    5.20    1.00
   3  -6  -9    4.30    0.90
   3  -6  -9    6.10    3.40
  -3   6   9    3.60    1.70
   2  -6  -9   13.30    3.30
   2  -6  -9   14.30    2.20
  -2   6   9   14.60    2.50
  -2   6   9   12.70    1.90
   1  -6  -9   77.19    4.70
   1  -6  -9   78.79    4.10
   1  -6  -9   79.69    5.90
  -1   6   9   75.49    4.30
  -1   6   9   79.49    4.30
   0  -6  -9   70.59    4.90
   0  -6  -9   65.09    3.60
   0  -6  -9   57.69    4.50
   0  -6  -9   64.89    4.90
   0   6   9   68.59    3.50
  -1  -6  -9   91.49    6.00
  -1  -6  -9   72.09    5.60
   1   6   9   89.49    4.00
   1   6   9   78.09    4.30
  -2  -6  -9   20.10    3.20
  -2  -6  -9   20.30    3.80
   2   6   9   18.80    2.70
   2   6   9   24.60    2.70
   2   6   9   14.20    2.30
  -3  -6  -9    0.30    1.70
  -3  -6  -9    0.50    1.40
   3   6   9    1.80    1.30
  -4  -6  -9   -1.60    1.60
   4   6   9    2.20    1.60
   4   6   9    1.10    1.40
   5  -7  -9    3.00    3.60
  -5   7   9    4.80    3.10
   4  -7  -9    8.50    3.90
  -4   7   9    5.80    2.60
   3  -7  -9    5.30    1.20
   3  -7  -9    9.40    3.50
  -3   7   9    7.70    2.50
   2  -7  -9   26.90    4.70
   2  -7  -9   31.20    3.20
  -2   7   9   31.90    3.00
  -2   7   9   30.80    3.60
   1  -7  -9   32.80    4.60
   1  -7  -9   40.40    2.90
   1  -7  -9   42.50    4.30
  -1   7   9   44.10    3.50
  -1   7   9   44.00    3.10
   0  -7  -9  324.67   11.90
   0  -7  -9  302.27    9.50
   0  -7  -9  330.77   12.50
   0   7   9  320.07    9.40
  -1  -7  -9    8.20    2.30
  -1  -7  -9    4.70    1.90
  -1  -7  -9    6.60    2.20
   1   7   9    5.30    1.50
   1   7   9    3.50    1.10
  -2  -7  -9   54.59    4.70
   2   7   9   56.09    3.40
   2   7   9   62.39    4.40
   2   7   9   53.19    3.60
  -3  -7  -9   20.90    4.00
  -3  -7  -9   24.30    3.70
   3   7   9   29.20    3.30
   3   7   9   19.80    3.00
  -4  -7  -9    1.40    2.10
   4   7   9    0.90    1.40
   4   7   9    0.30    1.50
   4  -8  -9   -0.30    2.90
  -4   8   9    3.10    2.20
   3  -8  -9   -0.50    0.80
   3  -8  -9    1.30    2.30
   3  -8  -9   -0.80    0.90
  -3   8   9    1.40    1.50
   2  -8  -9   -0.10    2.20
   2  -8  -9    1.10    1.20
  -2   8   9   -0.30    1.00
  -2   8   9   -0.40    1.10
   1  -8  -9  152.28    7.30
   1  -8  -9  154.78    8.90
   1  -8  -9  144.59    5.80
  -1   8   9  146.39    6.00
   0  -8  -9   55.29    3.20
   0  -8  -9   48.60    5.30
   0  -8  -9   59.39    4.80
   0   8   9   58.79    3.10
  -1  -8  -9   32.90    4.50
  -1  -8  -9   37.00    4.90
   1   8   9   31.90    2.40
   1   8   9   34.70    2.20
  -2  -8  -9   14.30    3.20
   2   8   9   19.00    3.10
   2   8   9   22.60    2.40
   2   8   9   21.10    2.50
  -3  -8  -9    3.30    2.20
   3   8   9    2.00    1.50
   3   8   9   -0.30    1.00
   3   8   9    0.50    1.30
   4   8   9   26.10    3.60
   4   8   9   22.70    3.50
   4  -9  -9    2.20    3.10
  -4   9   9    0.80    2.10
   3  -9  -9   57.59    3.70
   3  -9  -9   60.89    7.70
   3  -9  -9   63.79    3.70
  -3   9   9   74.09    5.50
   2  -9  -9    2.90    2.30
   2  -9  -9    0.90    1.30
  -2   9   9    2.50    1.40
  -2   9   9    0.10    1.20
   1  -9  -9   19.60    2.40
   1  -9  -9   25.00    4.40
   1  -9  -9   26.50    3.60
  -1   9   9   22.80    2.60
   0  -9  -9  317.37    9.30
   0  -9  -9  324.27   13.40
   0  -9  -9  323.47   12.60
   0   9   9  331.17    9.20
  -1  -9  -9    0.20    1.50
   1   9   9    0.60    0.60
   1   9   9    0.70    0.70
  -2  -9  -9    0.70    1.90
   2   9   9    0.60    1.30
   2   9   9    0.80    0.80
   2   9   9   -0.20    0.80
  -3  -9  -9    4.60    2.90
   3   9   9    6.60    2.30
   3   9   9    9.60    2.00
  -4  -9  -9   51.49    6.70
   4   9   9   48.10    5.30
   4   9   9   53.69    4.20
   4 -10  -9   -1.20    2.60
  -4  10   9    2.40    2.20
   3 -10  -9    7.90    3.70
   3 -10  -9   10.60    2.00
  -3  10   9   16.20    3.20
   2 -10  -9   18.70    3.10
   2 -10  -9   10.20    2.20
   2 -10  -9   13.90    4.00
  -2  10   9   13.50    2.50
   1 -10  -9   13.80    2.00
   1 -10  -9   15.40    3.10
   1 -10  -9   15.40    4.90
  -1  10   9   15.60    2.10
   0 -10  -9   33.90    4.60
   0 -10  -9   31.00    5.00
   0  10   9   27.70    1.80
  -1 -10  -9    0.60    1.70
  -1 -10  -9   -0.20    1.60
  -2 -10  -9   62.39    6.80
   2  10   9   43.10    3.20
   2  10   9   54.49    5.80
   2  10   9   51.29    2.20
  -3 -10  -9    2.00    2.40
   3  10   9    1.00    1.00
   3  10   9    1.70    1.90
   4 -11  -9   -0.40    2.80
  -4  11   9    2.00    2.60
   3 -11  -9   -0.40    1.20
   3 -11  -9    0.80    2.40
  -3  11   9    1.60    1.80
   2 -11  -9   12.30    2.80
   2 -11  -9    9.10    3.60
   2 -11  -9    7.80    1.90
  -2  11   9    8.20    2.10
   1 -11  -9   57.29    5.80
   1 -11  -9   54.49    7.00
   1 -11  -9   61.49    3.20
  -1  11   9   54.69    3.20
   0 -11  -9   42.90    5.10
  -1 -11  -9   55.49    6.30
  -1 -11  -9   49.40    5.90
  -2 -11  -9    5.00    2.90
   2  11   9    3.00    2.60
  -3 -11  -9  162.58   10.60
   3  11   9  161.58    9.10
   3 -12  -9   12.60    2.60
  -3  12   9   11.80    2.90
   2 -12  -9   10.60    2.60
   2 -12  -9    8.60    3.60
  -2  12   9   11.50    2.20
   1 -12  -9  197.78   11.70
   1 -12  -9  197.68    9.80
  -1  12   9  199.28    6.00
   0 -12  -9    1.80    2.30
   0 -12  -9    1.50    2.10
  -1 -12  -9   24.40    4.70
  -1 -12  -9   22.70    4.20
  -2 -12  -9   24.40    4.90
  -2 -12  -9   19.40    4.20
   2  12   9   13.40    3.30
  -3 -12  -9   11.80    4.10
   3  12   9   11.50    3.30
   3 -13  -9   10.30    4.70
   3 -13  -9    9.40    2.50
  -3  13   9   13.30    3.00
   2 -13  -9    3.20    3.00
  -2  13   9    1.30    1.30
   1 -13  -9    2.50    2.20
   1 -13  -9    1.10    2.50
   0 -13  -9    3.80    2.70
   0 -13  -9    7.60    3.10
  -1 -13  -9    0.30    2.10
  -1 -13  -9    1.70    2.30
  -2 -13  -9   35.40    5.70
  -2 -13  -9   39.80    6.00
   2  13   9   38.10    5.60
   2 -14  -9    1.20    3.00
   2 -14  -9    2.70    2.20
   1 -14  -9   22.10    5.20
   1 -14  -9   19.90    4.20
   0 -14  -9    2.50    2.40
   0 -14  -9   -0.30    2.30
  -1 -14  -9   19.00    4.60
  -1 -14  -9    9.30    3.60
   1 -15  -9    5.60    4.10
   1 -15  -9    2.40    2.40
   0  20 -10    2.00    3.00
   0 -20  10    1.30    2.30
   1  19 -10   -1.10    2.20
  -1 -19  10    2.90    2.50
  -1 -19  10    1.20    1.50
   0  19 -10   25.10    5.30
   0 -19  10   20.20    4.00
   0 -19  10   29.00    3.60
  -1  19 -10    4.70    3.00
   1 -19  10    5.50    2.70
   1 -19  10    3.80    1.90
  -2  19 -10    5.40    3.00
   2 -19  10    6.20    2.50
   2 -19  10    7.70    3.00
   2  18 -10   39.60    6.90
  -2 -18  10   36.30    4.20
  -2 -18  10   36.70    5.60
   1  18 -10    2.40    2.70
  -1 -18  10    0.70    1.90
  -1 -18  10    1.30    1.40
   0  18 -10   15.90    4.10
   0 -18  10   29.40    3.60
   0 -18  10   21.20    4.10
  -1  18 -10    3.80    2.60
   1 -18  10    4.90    2.10
   1 -18  10    4.20    2.40
  -2  18 -10  120.99    8.50
   2 -18  10  111.39    7.90
   2 -18  10  108.89    6.70
   3 -18  10   10.80    3.60
   2  17 -10   23.10    5.30
  -2 -17  10   26.10    4.40
  -2 -17  10   23.30    3.40
   1  17 -10  107.09    8.70
  -1 -17  10   84.89    5.20
  -1 -17  10  100.19    7.10
   0  17 -10   -2.00    1.50
   0 -17  10   -0.90    1.00
   0 -17  10   -0.60    1.40
  -1  17 -10    8.20    3.00
   1 -17  10    7.40    2.10
   1 -17  10    5.40    2.40
  -2  17 -10   11.40    3.20
   2 -17  10   17.80    3.50
   2 -17  10   17.60    3.20
   3 -17  10    7.00    2.50
   3 -17  10    3.20    2.40
   3 -17  10   13.60    3.50
   3  16 -10   12.50    4.50
  -3 -16  10   12.70    2.90
  -3 -16  10   15.80    3.70
   2  16 -10   11.90    3.90
  -2 -16  10    8.40    2.70
  -2 -16  10    4.30    1.80
   1  16 -10   -0.90    2.20
  -1 -16  10    2.50    1.50
  -1 -16  10    3.30    2.10
   0  16 -10    1.50    2.20
   0 -16  10    2.60    1.50
   0 -16  10   -0.80    1.40
   1 -16  10   16.70    3.30
   1 -16  10   24.00    3.30
  -2  16 -10   90.49    6.70
   2 -16  10   98.29    6.90
   2 -16  10  100.09    7.00
   3 -16  10    0.60    1.70
   3 -16  10    0.10    1.80
   3 -16  10    2.20    2.30
   3  15 -10   -1.70    2.50
  -3 -15  10    1.60    1.60
  -3 -15  10   -0.70    1.60
   2  15 -10    3.40    2.90
  -2 -15  10    4.50    2.30
  -2 -15  10    2.80    1.60
   1  15 -10    0.60    2.30
  -1 -15  10   -0.10    1.10
  -1 -15  10   -0.30    1.30
   0  15 -10   98.59    7.30
   0 -15  10   82.89    6.20
   0 -15  10   82.09    5.10
  -1  15 -10    1.70    1.80
   1 -15  10    2.40    1.50
   1 -15  10    0.00    1.60
  -2  15 -10    2.20    1.80
   2 -15  10    2.90    1.90
   2 -15  10    5.80    2.30
   3 -15  10   -0.70    1.60
   3 -15  10    1.70    2.00
   3 -15  10   -0.60    1.50
   4 -15  10   24.40    4.40
   4 -15  10   19.90    3.90
   4 -15  10   28.70    4.60
   4  14 -10    8.50    4.60
  -4 -14  10   10.00    3.00
  -4 -14  10    8.30    2.80
   3  14 -10    1.40    2.50
  -3 -14  10    2.70    2.00
  -3 -14  10    0.30    1.70
   2  14 -10   19.30    4.70
  -2 -14  10    9.10    2.70
  -2 -14  10    9.80    2.30
  -1 -14  10    2.50    1.50
  -1 -14  10   -0.10    1.40
   0  14 -10   56.39    6.40
   0 -14  10   41.00    4.10
   0 -14  10   47.80    5.30
  -1  14 -10    3.40    2.00
   1 -14  10   -0.30    1.20
   1 -14  10    3.10    1.60
  -2  14 -10   16.70    3.20
   2 -14  10   17.30    3.10
   2 -14  10   17.80    3.20
   3 -14  10   13.50    3.10
   3 -14  10   12.00    2.90
   3 -14  10    8.90    2.70
   4 -14  10   -1.90    1.50
   4 -14  10    0.10    1.70
   4 -14  10    1.50    2.10
   4  13 -10   -1.50    2.60
  -4 -13  10   -1.10    1.50
  -4 -13  10    0.40    1.70
   3  13 -10   51.09    7.50
  -3 -13  10   47.90    5.30
   2  13 -10    4.60    2.90
  -2 -13  10    3.40    1.60
   1  13 -10  185.48   10.20
  -1 -13  10  201.08    8.20
  -1 -13  10  182.98    8.80
   0  13 -10    1.70    1.70
   0 -13  10    7.40    2.10
   0 -13  10    3.10    1.90
  -1  13 -10  233.08   10.10
   1 -13  10  214.58    9.00
   1 -13  10  214.58    9.60
  -2  13 -10   -0.40    1.50
  -2  13 -10    0.90    1.40
   2 -13  10    0.50    1.30
   2 -13  10   -1.50    1.20
  -3  13 -10   70.19    7.10
   3 -13  10   79.69    5.60
   3 -13  10   90.49    6.40
  -4  13 -10    0.10    2.00
   4 -13  10    1.70    1.90
   4 -13  10   -0.10    1.80
   4  12 -10    2.50    3.40
  -4 -12  10    1.70    1.90
  -4 -12  10    3.60    2.20
   3  12 -10    3.90    2.90
  -3 -12  10    0.70    1.40
  -3 -12  10    0.40    1.40
  -2 -12  10   31.00    4.00
  -2 -12  10   35.40    4.20
   1  12 -10  100.39    7.20
  -1 -12  10   89.89    5.30
  -1 -12  10   87.59    5.70
   0  12 -10   34.60    4.80
   0 -12  10   22.70    3.40
   0 -12  10   27.00    3.30
  -1  12 -10   31.40    4.10
  -1  12 -10   29.20    4.40
   1 -12  10   31.00    4.00
   1 -12  10   34.00    4.00
  -2  12 -10   80.19    6.40
  -2  12 -10   82.69    5.20
   2 -12  10   87.79    5.70
   2 -12  10   79.19    5.60
  -3  12 -10   -2.60    1.40
   3 -12  10    4.40    2.00
   3 -12  10    7.10    2.50
   3 -12  10   -0.40    1.20
  -4  12 -10   55.99    6.70
   4 -12  10   58.09    4.80
   4 -12  10   68.29    7.30
   4  11 -10   43.10    7.50
  -4 -11  10   41.50    4.60
  -4 -11  10   22.60    4.00
   3  11 -10  136.29    9.80
  -3 -11  10  121.29    7.10
  -3 -11  10  119.79    6.50
   2  11 -10  167.88   10.00
  -2 -11  10  174.48    7.90
  -2 -11  10  159.48    7.70
   1  11 -10  279.17   12.40
  -1 -11  10  308.17   10.60
  -1 -11  10  283.67   10.80
   0  11 -10  314.57   12.20
   0 -11  10  309.97   10.80
   0 -11  10  296.37   11.20
  -1  11 -10  258.57    9.90
  -1  11 -10  251.57   11.10
   1 -11  10  242.98   10.20
   1 -11  10  252.47    9.70
  -2  11 -10    0.50    1.70
  -2  11 -10   -0.50    0.90
   2 -11  10   -1.00    1.00
   2 -11  10   -0.60    1.20
  -3  11 -10    7.60    3.00
   3 -11  10    8.20    2.60
   3 -11  10    7.10    2.00
   3 -11  10    5.10    1.80
  -4  11 -10   -0.20    1.80
   4 -11  10    1.00    1.90
   4 -11  10   -0.30    1.50
  -5  11 -10   10.30    3.70
   5 -11  10    7.00    3.30
   5  10 -10   -0.70    3.10
  -5 -10  10    1.30    1.80
   4  10 -10   28.50    5.90
  -4 -10  10   25.30    3.40
  -4 -10  10   23.00    3.90
   3  10 -10   36.20    6.10
  -3 -10  10   33.20    3.70
  -3 -10  10   30.70    4.20
   2  10 -10   56.19    6.60
  -2 -10  10   47.00    3.90
  -2 -10  10   46.30    4.80
   1  10 -10 1288.17   35.10
  -1 -10  10 1308.97   32.50
  -1 -10  10 1250.97   32.70
   0  10 -10   81.99    5.80
   0  10 -10   86.49    5.60
   0 -10  10   82.59    5.10
   0 -10  10   75.99    4.70
   0 -10  10   74.19    5.50
  -1  10 -10   32.90    3.50
  -1  10 -10   26.40    4.20
   1 -10  10   34.90    4.10
   1 -10  10   37.30    4.00
  -2  10 -10  250.07   11.30
  -2  10 -10  280.97    9.30
   2 -10  10  268.37   10.70
   2 -10  10  257.57    9.60
  -3  10 -10   64.49    6.70
   3 -10  10   47.90    3.70
   3 -10  10   53.59    3.70
  -4  10 -10   28.00    4.50
   4 -10  10   36.90    5.40
   4 -10  10   34.40    3.10
  -5  10 -10   -1.00    2.00
   5 -10  10   -0.60    1.90
   5   9 -10   -0.60    3.40
  -5  -9  10   -3.60    2.50
  -5  -9  10    1.40    1.60
   4   9 -10   92.49    9.80
  -4  -9  10   89.19    5.20
  -4  -9  10   87.29    6.60
   3   9 -10   -0.10    2.20
  -3  -9  10    1.40    1.70
  -3  -9  10    2.30    1.40
   2   9 -10    3.50    2.50
  -2  -9  10    0.50    1.10
  -2  -9  10    0.70    1.30
   1   9 -10    4.60    2.00
  -1  -9  10    8.10    2.00
  -1  -9  10    5.60    1.80
   0   9 -10  279.27   11.10
   0   9 -10  275.07   11.70
   0  -9  10  278.07    9.90
  -1   9 -10   94.19    6.10
  -1   9 -10   90.89    4.90
   1  -9  10   99.49    5.50
   1  -9  10  106.79    5.70
  -2   9 -10   58.49    3.40
  -2   9 -10   47.30    5.10
   2  -9  10   53.59    3.60
   2  -9  10   57.99    4.60
  -3   9 -10   13.80    3.20
   3  -9  10   13.30    2.10
   3  -9  10   13.80    3.00
   3  -9  10   11.20    1.90
  -4   9 -10    9.40    2.80
   4  -9  10   10.80    1.80
   4  -9  10   10.40    1.70
   4  -9  10   18.40    3.90
  -5   9 -10    9.30    3.20
   5  -9  10    7.80    3.40
   5   8 -10    2.00    3.70
  -5  -8  10    3.50    1.80
  -5  -8  10    4.00    2.70
   4   8 -10   60.69    7.80
  -4  -8  10   71.29    4.40
  -4  -8  10   76.89    6.20
   3   8 -10  183.08   10.80
  -3  -8  10  163.98    6.90
  -3  -8  10  140.89    8.50
  -3  -8  10  169.58    8.30
   2   8 -10   14.00    3.40
  -2  -8  10   15.50    2.40
  -2  -8  10   12.50    2.60
  -2  -8  10   11.10    2.40
   1   8 -10   50.79    5.40
   1   8 -10   44.60    4.50
  -1  -8  10   35.40    4.50
  -1  -8  10   47.80    4.80
  -1  -8  10   42.60    3.50
  -1  -8  10   44.60    3.60
   0   8 -10   51.29    3.80
   0   8 -10   59.49    4.30
   0   8 -10   57.89    4.50
   0  -8  10   51.89    4.20
   0  -8  10   53.09    3.80
  -1   8 -10  184.98    6.90
  -1   8 -10  195.88    8.80
   1  -8  10  173.58    7.60
   1  -8  10  185.78    7.30
  -2   8 -10    6.10    2.20
   2  -8  10    5.00    1.40
   2  -8  10    6.80    1.40
   2  -8  10    2.60    1.50
  -3   8 -10    7.30    2.50
   3  -8  10    2.50    1.00
   3  -8  10    4.20    1.90
   3  -8  10    4.10    1.10
  -4   8 -10    7.20    3.10
   4  -8  10   13.00    3.10
  -5   8 -10    2.50    2.40
  -5  -7  10   -2.70    1.60
   4   7 -10   11.40    4.40
  -4  -7  10    5.10    1.90
  -4  -7  10    7.50    2.50
  -4  -7  10   11.00    2.20
   3   7 -10    9.40    3.50
  -3  -7  10    7.30    2.20
  -3  -7  10    9.50    1.90
  -3  -7  10    7.00    1.90
   2   7 -10   55.29    6.10
  -2  -7  10   47.00    3.40
  -2  -7  10   53.19    4.10
  -2  -7  10   46.70    3.80
   1   7 -10  111.89    6.00
   1   7 -10  108.79    6.50
  -1  -7  10  110.29    5.90
  -1  -7  10  101.69    5.40
  -1  -7  10   99.99    6.20
   0   7 -10  339.67   11.50
   0   7 -10  350.06   11.80
   0   7 -10  365.76   12.60
   0  -7  10  349.17   11.50
   0  -7  10  375.46   12.50
   0  -7  10  363.36   12.10
  -1   7 -10   52.69    3.10
  -1   7 -10   57.79    4.60
   1  -7  10   49.80    3.30
   1  -7  10   51.49    3.90
  -2   7 -10  257.27   10.70
   2  -7  10  236.58    9.70
   2  -7  10  254.67    7.30
   2  -7  10  248.68    7.20
  -3   7 -10   -0.50    1.20
   3  -7  10    0.30    1.30
   4  -7  10   32.70    4.80
  -5   7 -10    1.70    2.30
   5  -7  10    5.90    2.70
   5   6 -10   29.90    6.50
  -5  -6  10   31.50    5.40
   4   6 -10    6.60    3.50
  -4  -6  10    1.70    1.10
  -4  -6  10    6.00    2.40
  -4  -6  10    2.70    1.40
   3   6 -10   20.80    4.50
  -3  -6  10   15.10    2.10
  -3  -6  10   13.40    2.30
  -3  -6  10   14.70    3.00
   2   6 -10   58.39    6.20
  -2  -6  10   71.09    4.70
  -2  -6  10   67.79    3.90
  -2  -6  10   72.79    4.50
   1   6 -10   27.10    3.10
   1   6 -10   29.10    3.50
   1   6 -10   29.80    3.90
  -1  -6  10   36.30    4.40
  -1  -6  10   26.10    3.20
  -1  -6  10   26.80    3.10
   0   6 -10   50.09    3.70
   0   6 -10   41.80    3.30
   0   6 -10   49.60    4.00
   0  -6  10   48.10    3.50
   0  -6  10   43.50    3.60
   0  -6  10   45.90    3.50
  -1   6 -10    0.90    1.10
  -1   6 -10    1.00    0.80
   1  -6  10    0.00    0.90
  -2   6 -10    2.10    1.60
   2  -6  10   -1.40    1.00
  -3   6 -10   19.30    3.50
   3  -6  10   24.40    3.80
  -4   6 -10    0.10    1.80
   4  -6  10   -1.20    1.40
  -5   6 -10    5.50    2.70
   5  -6  10    1.10    2.20
   5   5 -10   -0.40    2.90
  -5  -5  10    0.30    2.20
   4   5 -10   67.69    8.10
  -4  -5  10   65.59    3.10
  -4  -5  10   55.79    6.10
  -4  -5  10   51.89    3.20
   3   5 -10   22.50    4.60
  -3  -5  10   14.40    2.90
  -3  -5  10   19.60    2.50
  -3  -5  10   20.10    2.20
   2   5 -10   -0.60    1.50
  -2  -5  10    6.50    1.70
  -2  -5  10    0.90    1.30
  -2  -5  10    4.70    1.30
   1   5 -10   65.19    5.00
   1   5 -10   72.19    4.50
   1   5 -10   65.59    4.10
  -1  -5  10   75.19    4.50
  -1  -5  10   73.69    5.00
  -1  -5  10   76.29    4.50
   0   5 -10   73.79    4.80
   0   5 -10   78.39    4.40
   0   5 -10   70.79    4.20
   0  -5  10   74.99    4.30
   0  -5  10   70.89    4.30
   0  -5  10   71.89    4.60
  -1   5 -10   79.89    4.80
  -1   5 -10   89.29    3.40
  -1   5 -10   78.89    5.20
   1  -5  10   86.39    4.80
   1  -5  10   83.49    3.50
   1  -5  10   77.29    4.90
  -2   5 -10  109.79    6.60
   2  -5  10  116.89    6.20
  -3   5 -10    3.40    2.00
   3  -5  10    1.70    1.50
  -4   5 -10   75.49    7.30
   4  -5  10   83.39    6.50
  -5   5 -10    2.00    2.30
   5  -5  10    1.30    2.20
   5   4 -10    3.50    3.50
  -5  -4  10    5.90    2.90
   4   4 -10   13.70    4.10
  -4  -4  10    3.70    0.80
  -4  -4  10    4.30    0.90
  -4  -4  10    4.60    2.20
   3   4 -10    4.20    2.70
  -3  -4  10    4.10    1.30
  -3  -4  10    2.90    0.90
  -3  -4  10    5.60    2.20
   2   4 -10   21.00    3.60
   2   4 -10   17.60    2.40
  -2  -4  10   19.90    2.20
  -2  -4  10   23.00    2.70
  -2  -4  10   25.80    3.50
   1   4 -10  969.20   25.60
   1   4 -10  998.40   25.80
   1   4 -10 1014.60   27.20
  -1  -4  10 1040.50   26.00
  -1  -4  10  994.80   25.60
  -1  -4  10  963.20   26.70
   0   4 -10  334.87   10.60
   0   4 -10  318.67   10.80
   0   4 -10  361.36   11.70
   0  -4  10  318.77   11.80
   0  -4  10  334.77   10.80
   0  -4  10  317.37   10.40
  -1   4 -10   71.99    4.90
  -1   4 -10   66.29    4.40
  -1   4 -10   78.09    2.90
   1  -4  10   80.69    3.00
   1  -4  10   77.29    4.60
   1  -4  10   74.69    4.80
  -2   4 -10   10.80    2.60
   2  -4  10    4.10    1.70
  -3   4 -10   21.60    3.70
   3  -4  10   23.30    3.60
  -4   4 -10    6.10    2.40
   4  -4  10    8.20    2.90
  -5   4 -10   71.29    7.50
   5  -4  10   58.29    6.80
   5   3 -10    8.40    4.10
  -5  -3  10    1.30    2.30
   4   3 -10   63.29    7.70
  -4  -3  10   54.39    5.90
   3   3 -10   12.70    3.60
  -3  -3  10   11.80    1.60
  -3  -3  10   13.00    2.70
  -3  -3  10   16.10    1.70
   2   3 -10    4.30    2.10
   2   3 -10    5.50    1.50
  -2  -3  10    5.40    1.70
  -2  -3  10    7.10    1.50
   1   3 -10   26.90    3.60
   1   3 -10   37.70    3.70
   1   3 -10   29.50    3.10
  -1  -3  10   32.40    3.80
  -1  -3  10   27.80    3.00
  -1  -3  10   41.20    3.90
   0   3 -10   46.00    3.40
   0   3 -10   45.40    3.20
   0  -3  10   40.70    2.90
   0  -3  10   43.50    3.30
   0  -3  10   37.20    4.10
  -1   3 -10   59.69    4.50
  -1   3 -10   71.29    4.40
   1  -3  10   58.19    4.20
   1  -3  10   62.59    4.00
   1  -3  10   61.79    2.30
  -2   3 -10  263.37   10.80
   2  -3  10  277.47   10.20
  -3   3 -10   26.50    4.20
   3  -3  10   25.90    3.80
   4  -3  10   14.90    3.50
  -5   3 -10    9.70    3.20
   5  -3  10    5.80    2.70
   5   2 -10    3.40    3.30
  -5  -2  10    4.30    2.90
   4   2 -10   11.50    4.00
  -4  -2  10   10.60    3.00
   3   2 -10    4.50    2.60
  -3  -2  10    3.50    1.10
  -3  -2  10    3.60    1.80
  -3  -2  10    3.90    0.80
   2   2 -10   -0.70    1.40
   2   2 -10   -0.40    0.80
  -2  -2  10   -0.30    1.00
  -2  -2  10    0.60    0.90
   1   2 -10   66.89    4.10
   1   2 -10   65.19    4.80
   1   2 -10   76.69    4.30
  -1  -2  10   72.79    4.00
  -1  -2  10   66.29    4.50
  -1  -2  10   66.09    4.10
   0   2 -10  257.17    8.90
   0   2 -10  253.37    8.60
   0  -2  10  253.87    9.10
   0  -2  10  256.87    8.80
   0  -2  10  230.48    8.10
  -1   2 -10   51.89    4.20
  -1   2 -10   59.39    2.50
  -1   2 -10   53.29    2.00
  -1   2 -10   51.89    3.80
   1  -2  10   53.59    4.00
   1  -2  10   53.19    3.70
  -2   2 -10  721.53   21.40
   2  -2  10  716.13   20.40
  -3   2 -10    8.80    2.60
   3  -2  10   13.30    2.90
  -4   2 -10   -1.90    1.50
   4  -2  10    1.00    1.90
  -5   2 -10   34.40    5.20
   5  -2  10   20.70    4.20
   5   1 -10    4.60    3.50
  -5  -1  10    0.10    2.20
   4   1 -10    7.30    3.50
  -4  -1  10    4.90    2.20
   3   1 -10  112.29    8.10
  -3  -1  10  113.09    3.50
  -3  -1  10  117.59    3.60
  -3  -1  10  125.29    6.90
   2   1 -10    1.20    0.90
   2   1 -10    0.90    1.70
  -2  -1  10    2.10    1.40
  -2  -1  10    0.60    0.80
   1   1 -10   -0.30    1.00
   1   1 -10    1.30    1.00
   1   1 -10   -0.20    0.80
  -1  -1  10    1.40    1.10
  -1  -1  10    0.20    0.80
  -1  -1  10    1.60    1.10
   0   1 -10   27.90    3.00
   0   1 -10   31.90    2.80
   0  -1  10   31.90    2.60
   0  -1  10   33.10    3.20
   0  -1  10   35.00    3.60
  -1   1 -10   37.80    3.20
  -1   1 -10   34.20    1.70
  -1   1 -10   36.30    3.90
  -1   1 -10   36.90    1.90
   1  -1  10   37.20    3.60
   1  -1  10   29.40    3.40
  -2   1 -10   10.30    2.60
   2  -1  10    8.10    2.10
  -3   1 -10    6.80    2.50
   3  -1  10    9.10    2.40
  -4   1 -10   29.40    4.50
   4  -1  10   21.80    3.70
  -5   1 -10   -2.00    2.00
   5  -1  10    0.30    2.00
   5   0 -10    1.20    3.10
  -5   0  10    5.60    2.70
   4   0 -10    3.30    2.80
  -4   0  10    4.00    2.10
   3   0 -10    8.10    3.00
  -3   0  10   14.30    3.00
   2   0 -10   65.59    5.60
   2   0 -10   64.09    3.50
  -2   0  10   65.89    3.30
  -2   0  10   66.49    4.50
   1   0 -10  214.28    7.80
   1   0 -10  196.18    7.60
   1   0 -10  217.18    9.10
  -1   0  10  204.98    8.40
  -1   0  10  211.48    7.90
  -1   0  10  185.98    7.10
   0   0 -10   53.99    4.20
   0   0 -10   58.09    3.90
   0   0 -10   57.29    3.70
   0   0  10   60.09    3.70
   0   0  10   56.89    3.50
  -1   0 -10   55.69    2.70
  -1   0 -10   56.29    2.60
  -1   0 -10   56.29    3.90
  -1   0 -10   57.89    4.40
   1   0  10   60.49    3.80
   1   0  10   58.49    4.20
  -2   0 -10   12.60    2.80
   2   0  10   11.30    2.20
  -3   0 -10    1.10    1.60
   3   0  10    0.00    1.10
  -4   0 -10   -0.60    1.60
   4   0  10   -0.90    1.40
  -5   0 -10    5.70    2.80
   5   0  10    6.20    2.80
   5  -1 -10   -0.50    2.70
  -5   1  10   -0.70    1.90
   4  -1 -10   22.50    4.90
  -4   1  10   18.00    3.60
   3  -1 -10    2.10    2.20
  -3   1  10   -0.50    1.40
   2  -1 -10    1.60    1.00
   2  -1 -10    3.90    2.10
  -2   1  10    2.50    1.00
  -2   1  10    4.50    1.60
   1  -1 -10   70.79    4.10
   1  -1 -10   75.09    4.30
  -1   1  10   74.29    5.40
  -1   1  10   73.09    4.30
  -1   1  10   64.69    3.80
   0  -1 -10  168.78    6.60
   0  -1 -10  182.18    7.70
   0  -1 -10  195.48    7.50
   0   1  10  177.78    7.30
   0   1  10  177.58    7.80
  -1  -1 -10    6.10    1.20
  -1  -1 -10    4.50    1.70
  -1  -1 -10    6.40    1.30
  -1  -1 -10    4.90    1.60
   1   1  10    3.90    1.30
  -2  -1 -10  163.68    8.30
   2   1  10  171.08    7.40
  -3  -1 -10   -0.40    1.40
   3   1  10    0.00    1.30
  -4  -1 -10   79.79    6.70
   4   1  10   87.79    6.30
  -5  -1 -10    0.20    2.10
   5   1  10   -2.20    1.60
   5  -2 -10    0.80    2.80
  -5   2  10    0.80    2.30
   4  -2 -10   56.89    7.60
  -4   2  10   54.59    6.00
   3  -2 -10   23.80    4.70
  -3   2  10   17.80    3.30
   2  -2 -10    2.10    1.90
   2  -2 -10    0.80    0.90
  -2   2  10    0.40    1.20
  -2   2  10    0.80    0.80
   1  -2 -10    2.90    1.60
   1  -2 -10   -0.60    0.80
   1  -2 -10   -1.00    0.70
  -1   2  10    0.40    0.90
  -1   2  10    0.60    0.90
  -1   2  10    0.40    1.10
   0  -2 -10    6.70    1.80
   0  -2 -10    8.30    1.80
   0  -2 -10    7.60    2.00
   0  -2 -10    5.30    1.80
   0   2  10    6.50    1.70
  -1  -2 -10  160.98    7.70
  -1  -2 -10  146.89    5.70
  -1  -2 -10  147.69    5.60
  -1  -2 -10  140.49    6.40
   1   2  10  151.88    6.30
  -2  -2 -10    9.70    2.70
  -2  -2 -10    6.00    1.10
  -2  -2 -10    7.20    1.20
   2   2  10    6.00    1.70
   2   2  10    8.10    2.40
  -3  -2 -10   89.39    6.60
   3   2  10   97.69    5.80
  -4  -2 -10   57.09    6.70
   4   2  10   54.09    5.60
  -5  -2 -10   -0.70    2.10
   5   2  10    0.50    2.00
   5  -3 -10    5.70    4.20
  -5   3  10    2.80    2.80
   4  -3 -10  150.18   10.70
  -4   3  10  160.08    9.00
   3  -3 -10   -2.40    1.70
  -3   3  10    0.70    1.50
   2  -3 -10   53.09    3.30
   2  -3 -10   63.19    6.70
  -2   3  10   69.99    4.60
  -2   3  10   55.09    3.00
   1  -3 -10    8.70    1.80
   1  -3 -10    9.80    2.30
   1  -3 -10    6.10    1.60
   1  -3 -10    8.20    2.30
  -1   3  10    9.60    1.90
  -1   3  10    8.40    1.80
  -1   3  10   10.60    2.30
   0  -3 -10    6.80    1.60
   0  -3 -10    5.50    1.60
   0  -3 -10    4.00    1.70
   0  -3 -10    7.40    2.00
   0   3  10    7.10    1.50
   0   3  10    6.40    1.80
  -1  -3 -10    0.40    0.90
  -1  -3 -10    0.90    1.40
  -1  -3 -10    2.20    1.20
   1   3  10    1.60    1.20
  -2  -3 -10   32.50    4.40
  -2  -3 -10   28.10    2.40
  -2  -3 -10   35.30    2.40
   2   3  10   30.00    3.50
   2   3  10   32.90    3.40
  -3  -3 -10   33.70    6.80
  -3  -3 -10   47.40    2.30
  -3  -3 -10   46.10    2.40
   3   3  10   48.80    4.10
  -4  -3 -10   15.20    3.60
   4   3  10   13.80    3.60
  -5  -3 -10  106.49    8.50
   5   3  10  104.89    7.60
   5  -4 -10    3.00    3.60
  -5   4  10    8.10    3.40
  -4   4  10  578.04   19.90
   3  -4 -10    3.30    2.70
  -3   4  10    7.60    2.30
   2  -4 -10    1.90    1.00
   2  -4 -10    1.40    1.80
  -2   4  10   -0.20    0.80
  -2   4  10   -1.10    1.00
   1  -4 -10   17.60    3.30
   1  -4 -10   16.30    2.40
   1  -4 -10   13.20    2.30
   1  -4 -10   12.00    3.10
  -1   4  10   13.40    2.20
   0  -4 -10  115.19    5.90
   0  -4 -10  128.09    6.60
   0  -4 -10  113.59    5.30
   0  -4 -10  124.09    6.50
   0   4  10  119.79    5.30
  -1  -4 -10  183.78    8.70
  -1  -4 -10  192.08    7.50
  -1  -4 -10  182.78    7.50
  -1  -4 -10  183.28    7.30
   1   4  10  203.48    8.00
  -2  -4 -10   13.30    2.20
  -2  -4 -10   14.70    3.20
  -2  -4 -10   12.70    2.00
   2   4  10    9.20    2.30
   2   4  10   13.90    2.30
  -3  -4 -10   14.80    2.10
  -3  -4 -10   15.60    2.00
  -3  -4 -10   15.10    3.40
   3   4  10   14.10    2.60
  -4  -4 -10   74.69    3.20
  -4  -4 -10   81.19    8.00
  -5  -4 -10   45.30    6.60
   5   4  10   38.60    5.30
   5  -5 -10    8.70    4.30
   4  -5 -10    2.00    2.90
  -4   5  10    6.00    2.60
   3  -5 -10   -0.30    0.50
   3  -5 -10    0.70    2.30
  -3   5  10    0.30    0.40
  -3   5  10   -0.20    1.30
   2  -5 -10   -1.20    1.40
   2  -5 -10   -0.80    0.90
  -2   5  10    3.00    1.50
  -2   5  10    0.80    0.90
   1  -5 -10  120.59    7.40
   1  -5 -10  123.59    5.60
   1  -5 -10  122.39    6.10
  -1   5  10  137.99    5.90
  -1   5  10  109.89    5.50
   0  -5 -10    0.00    1.20
   0  -5 -10    1.60    1.40
   0  -5 -10    0.00    1.30
   0  -5 -10    0.20    1.00
   0   5  10    0.30    0.70
  -1  -5 -10   70.09    5.30
  -1  -5 -10   64.99    4.50
  -1  -5 -10   60.69    4.30
   1   5  10   60.69    4.10
   1   5  10   64.29    3.70
  -2  -5 -10  147.49    8.30
  -2  -5 -10  141.29    6.50
  -2  -5 -10  154.08    6.50
   2   5  10  156.48    6.50
   2   5  10  133.89    6.60
  -3  -5 -10    3.30    1.40
  -3  -5 -10    0.80    1.30
  -3  -5 -10    0.40    1.80
   3   5  10    2.70    1.60
  -4  -5 -10    9.30    3.20
   4   5  10   11.10    1.80
   4   5  10    9.80    2.90
   5  -6 -10   -1.20    2.80
  -5   6  10    5.40    3.60
   4  -6 -10   28.90    5.90
  -4   6  10   21.80    4.00
   3  -6 -10   -2.90    1.80
   3  -6 -10    0.30    0.70
  -3   6  10    0.70    1.50
  -3   6  10    1.70    0.70
   2  -6 -10   40.60    5.60
   2  -6 -10   35.10    3.50
  -2   6  10   29.30    3.50
  -2   6  10   32.70    2.60
   1  -6 -10    7.10    2.10
   1  -6 -10    5.00    1.50
   1  -6 -10    1.00    1.70
  -1   6  10    5.30    1.60
  -1   6  10    5.40    1.50
   0  -6 -10    1.50    1.70
   0  -6 -10    2.30    1.70
   0  -6 -10    1.40    1.60
   0  -6 -10    5.90    1.50
   0   6  10    1.90    1.10
  -1  -6 -10    6.80    2.10
  -1  -6 -10    5.30    2.00
  -1  -6 -10    6.00    2.30
   1   6  10    5.80    1.40
   1   6  10    5.00    1.60
  -2  -6 -10   17.10    4.30
  -2  -6 -10   18.20    2.80
  -2  -6 -10   18.60    3.00
   2   6  10   17.40    2.70
   2   6  10   23.40    2.80
  -3  -6 -10    4.50    1.60
  -3  -6 -10    1.40    1.60
  -3  -6 -10    3.30    2.20
   3   6  10    5.10    1.70
   3   6  10    1.70    1.40
  -4  -6 -10    5.70    3.00
   4   6  10    4.30    1.90
   4  -7 -10    9.60    3.80
  -4   7  10   15.60    3.60
   3  -7 -10   -0.70    0.70
   3  -7 -10   -2.20    2.10
  -3   7  10   -0.70    1.20
  -3   7  10    0.30    0.70
   2  -7 -10   42.50    4.00
   2  -7 -10   40.90    5.60
  -2   7  10   42.20    4.20
  -2   7  10   41.90    3.50
   1  -7 -10   42.10    4.40
   1  -7 -10   48.60    5.80
   1  -7 -10   37.90    3.00
  -1   7  10   42.00    3.20
   0  -7 -10    0.90    1.50
   0  -7 -10    2.20    1.10
   0  -7 -10    0.70    1.60
   0   7  10    1.30    0.90
  -1  -7 -10  317.07   12.90
  -1  -7 -10  326.27   12.10
  -1  -7 -10  322.97   14.00
   1   7  10  309.17   10.20
   1   7  10  329.57    9.80
  -2  -7 -10   -0.20    1.60
  -2  -7 -10    0.80    1.70
  -2  -7 -10    1.00    1.30
  -3  -7 -10   69.39    5.30
  -3  -7 -10   64.19    6.90
   3   7  10   76.39    4.90
   3   7  10   65.29    4.40
   4   7  10   55.59    4.70
   4   7  10   49.70    4.10
   4  -8 -10    2.90    3.20
  -4   8  10    5.30    2.70
   3  -8 -10    1.60    1.10
   3  -8 -10    1.50    2.80
  -3   8  10   -0.50    1.40
  -3   8  10    1.30    0.90
   2  -8 -10    0.20    2.00
   2  -8 -10    5.10    1.70
  -2   8  10    1.20    1.40
  -2   8  10    3.90    1.60
   1  -8 -10   -1.20    1.80
   1  -8 -10   -0.40    1.20
  -1   8  10   -0.20    1.20
   0  -8 -10    0.30    1.50
   0  -8 -10    0.30    1.80
   0  -8 -10    1.00    1.00
   0   8  10    1.50    1.00
  -1  -8 -10   45.80    5.10
   1   8  10   35.50    2.50
   1   8  10   33.50    2.80
  -2  -8 -10   10.70    3.00
  -2  -8 -10   10.40    2.60
   2   8  10    8.20    1.90
   2   8  10   14.60    2.00
  -3  -8 -10    4.10    2.80
   3   8  10    7.30    1.90
   3   8  10    7.70    2.30
  -4  -8 -10    5.70    3.10
   4   8  10    8.60    2.30
   4  -9 -10    3.90    3.60
  -4   9  10    3.00    2.40
   3  -9 -10   13.80    2.20
   3  -9 -10   17.80    4.70
  -3   9  10   16.20    3.10
   2  -9 -10   -0.90    2.10
   2  -9 -10    0.30    1.40
  -2   9  10    1.10    1.40
   1  -9 -10  110.49    7.90
   1  -9 -10   94.99    4.70
   1  -9 -10   95.49    6.20
  -1   9  10   87.49    4.60
   0  -9 -10   65.79    6.40
   0  -9 -10   61.69    3.50
   0  -9 -10   57.39    6.30
   0   9  10   65.89    3.30
  -1  -9 -10    1.20    1.80
  -1  -9 -10   -1.50    1.40
   1   9  10    1.00    0.90
   1   9  10    0.90    0.80
  -2  -9 -10    3.60    2.60
  -2  -9 -10    5.90    2.30
   2   9  10    5.30    1.30
   2   9  10    5.20    1.50
  -3  -9 -10   41.40    5.80
   3   9  10   46.50    4.90
   3   9  10   42.40    3.20
   4 -10 -10   16.70    5.50
  -4  10  10   18.60    4.10
   3 -10 -10    3.30    3.20
   3 -10 -10    1.40    2.10
  -3  10  10    2.60    1.90
   2 -10 -10   16.50    3.00
   2 -10 -10   17.50    4.50
  -2  10  10   21.30    3.10
   1 -10 -10   -0.70    1.40
   1 -10 -10   -0.50    0.90
   1 -10 -10   -1.30    1.90
  -1  10  10   -0.70    0.80
   0 -10 -10   17.00    3.60
   0 -10 -10   13.00    3.30
   0  10  10   11.20    1.70
   0  10  10   12.60    1.50
  -1 -10 -10   34.50    4.80
  -1 -10 -10   26.60    4.50
   1  10  10   29.30    1.80
   1  10  10   31.90    1.70
  -2 -10 -10  106.69    7.20
  -2 -10 -10  126.89    8.70
   2  10  10  112.69    3.90
  -3 -10 -10    2.60    2.60
  -3 -10 -10    1.00    2.10
   3  10  10   -0.50    1.50
   3 -11 -10    4.30    1.90
   3 -11 -10    1.30    3.20
  -3  11  10    1.30    1.90
   2 -11 -10    1.50    1.70
   2 -11 -10    1.10    2.60
  -2  11  10    0.00    1.30
   1 -11 -10   42.30    6.90
   1 -11 -10   54.49    5.30
   1 -11 -10   42.00    6.30
  -1  11  10   46.70    3.10
   0 -11 -10    1.30    1.90
   0 -11 -10    1.70    2.10
  -1 -11 -10   23.20    4.90
  -1 -11 -10   20.40    4.10
  -2 -11 -10   -1.10    1.90
  -3 -11 -10   49.99    6.00
  -3 -11 -10   34.60    5.70
   3  11  10   46.80    5.40
   3 -12 -10   10.30    3.80
   3 -12 -10   10.10    4.20
  -3  12  10    2.80    2.10
   2 -12 -10    3.10    3.10
   2 -12 -10    2.90    2.00
  -2  12  10    5.40    1.80
   1 -12 -10   91.39    8.10
   1 -12 -10   72.29    6.10
  -1  12  10   69.19    3.30
   0 -12 -10   -1.10    2.10
   0 -12 -10    6.20    2.80
  -1 -12 -10    0.30    2.10
  -1 -12 -10    0.00    2.00
  -2 -12 -10    0.00    2.20
  -2 -12 -10   -1.10    2.10
   2 -13 -10   17.80    3.50
   1 -13 -10    1.10    2.80
   1 -13 -10    1.30    2.10
   0 -13 -10   -0.60    1.90
   0 -13 -10   -2.80    2.00
  -1 -13 -10   -0.10    2.50
  -1 -13 -10    2.50    2.60
  -2 -13 -10   -2.60    2.00
   1 -14 -10   -0.10    2.00
   0 -14 -10    5.30    2.90
   0 -14 -10    9.10    3.90
  -1 -14 -10   -3.10    2.10
  -1 -14 -10    0.20    2.30
   1  19 -11   24.90    5.60
  -1 -19  11   23.80    3.40
  -1 -19  11   21.60    4.40
   0  19 -11   66.49    7.70
   0 -19  11   63.69    4.80
   0 -19  11   56.99    6.40
  -1  19 -11    1.40    2.40
   1 -19  11    4.40    2.50
   1 -19  11    4.00    2.00
   2  18 -11    2.20    3.30
  -2 -18  11   -1.90    1.90
   1  18 -11  157.88   10.90
  -1 -18  11  151.18    7.40
   0  18 -11    0.70    2.40
   0 -18  11    9.50    3.20
   0 -18  11    6.10    2.10
  -1  18 -11   51.19    6.60
   1 -18  11   49.20    5.10
   1 -18  11   43.10    5.50
  -2  18 -11    6.00    2.90
   2 -18  11    6.50    3.20
   2 -18  11    7.10    2.50
  -2 -17  11    0.20    2.00
   1  17 -11    9.90    3.60
  -1 -17  11   12.50    2.70
  -1 -17  11   16.50    3.80
   0  17 -11    2.00    2.30
   0 -17  11    1.80    1.50
   0 -17  11   -1.90    1.40
  -1  17 -11   12.40    3.30
   1 -17  11   16.40    3.80
   1 -17  11   15.60    3.50
  -2  17 -11    9.60    3.20
   2 -17  11    7.20    2.80
   2 -17  11    9.30    2.60
   3 -17  11   -3.00    3.20
   3 -17  11    0.60    2.20
   3 -17  11    0.80    2.00
   3  16 -11    8.00    3.90
  -3 -16  11    6.10    2.40
  -3 -16  11    0.80    2.20
   2  16 -11   42.10    6.70
  -2 -16  11   31.20    4.70
  -2 -16  11   26.50    3.90
   1  16 -11   -1.70    1.80
  -1 -16  11    1.80    1.90
  -1 -16  11    2.30    1.60
   0  16 -11   15.70    3.80
   0 -16  11   17.90    3.70
   0 -16  11   17.80    3.00
   1 -16  11   41.90    4.60
   1 -16  11   44.60    5.60
  -2  16 -11    5.70    2.40
   2 -16  11    4.60    2.10
   2 -16  11    8.80    3.00
   3 -16  11    2.90    2.20
   3 -16  11    7.20    3.20
   3 -16  11    3.20    2.20
   3  15 -11    0.90    3.90
  -3 -15  11    2.60    2.10
  -3 -15  11    1.90    1.90
   2  15 -11    1.10    2.50
  -2 -15  11    1.20    1.40
  -2 -15  11   -1.80    1.30
   1  15 -11    4.10    2.60
  -1 -15  11    1.70    1.50
  -1 -15  11   -1.70    1.40
   0  15 -11  133.49    9.40
   0 -15  11  129.09    6.70
   0 -15  11  122.69    7.50
  -1  15 -11    2.30    1.90
   1 -15  11   -0.90    1.50
   1 -15  11    0.30    1.30
  -2  15 -11    0.50    1.60
   2 -15  11    0.30    1.50
   2 -15  11    1.90    1.70
   3 -15  11   77.49    6.30
   3 -15  11   75.59    6.00
   3 -15  11   83.79    6.40
   4 -15  11   71.89    7.60
   4 -15  11   63.09    6.50
   4 -15  11   67.69    7.00
   3  14 -11    5.50    3.40
  -3 -14  11    5.40    2.30
  -3 -14  11    2.50    1.90
   2  14 -11   25.30    5.30
  -2 -14  11   21.40    3.30
  -2 -14  11   23.00    3.90
   1  14 -11  110.59    8.40
  -1 -14  11  124.19    7.30
  -1 -14  11  132.39    6.70
   0  14 -11   21.20    4.20
   0 -14  11   19.00    3.20
   0 -14  11   16.30    3.10
  -1  14 -11   63.09    5.50
   1 -14  11   76.99    5.80
   1 -14  11   76.79    5.30
  -2  14 -11    2.30    1.70
   2 -14  11    1.10    1.60
   2 -14  11    0.50    1.60
  -3  14 -11    1.80    2.10
   3 -14  11    5.40    2.20
   3 -14  11    5.80    2.40
   3 -14  11    2.60    2.00
  -4  14 -11   27.70    5.00
   4 -14  11   21.90    4.00
   4 -14  11   20.00    3.70
   4 -14  11   19.00    4.60
   4  13 -11    6.20    3.80
  -4 -13  11    1.20    1.80
  -4 -13  11    4.30    2.40
   3  13 -11    8.70    3.70
  -3 -13  11    2.90    2.00
  -3 -13  11    3.00    1.90
   2  13 -11   -2.00    1.80
  -2 -13  11    0.10    1.20
  -2 -13  11    0.10    1.50
   1  13 -11   11.20    3.30
  -1 -13  11   16.70    4.10
  -1 -13  11   15.80    2.80
   0  13 -11   -0.10    1.60
   0 -13  11   -1.50    1.00
   0 -13  11    0.50    1.50
  -1  13 -11    5.80    2.10
   1 -13  11    5.40    1.90
   1 -13  11    1.60    1.70
  -2  13 -11    6.00    2.00
  -2  13 -11    5.00    2.60
   2 -13  11    1.30    1.60
  -3  13 -11   19.90    4.10
   3 -13  11   21.30    3.90
   3 -13  11   15.00    3.60
   3 -13  11   26.40    3.70
  -4  13 -11   18.30    4.10
   4 -13  11    7.90    2.40
   4 -13  11   14.00    3.50
   4  12 -11   -0.40    2.90
  -4 -12  11    1.10    1.90
  -4 -12  11    2.50    2.10
   3  12 -11   -0.80    2.50
  -3 -12  11   -0.20    1.40
  -3 -12  11   -0.50    1.30
   2  12 -11  125.39    8.90
  -2 -12  11  123.99    6.80
  -2 -12  11  118.69    6.80
   1  12 -11  394.16   15.60
  -1 -12  11  390.86   13.10
  -1 -12  11  368.06   13.40
   0  12 -11  368.56   13.90
   0 -12  11  363.56   12.50
   0 -12  11  362.06   13.10
  -1  12 -11   29.20    4.70
  -1  12 -11   35.60    4.20
   1 -12  11   32.80    3.90
  -2  12 -11   19.80    2.90
  -2  12 -11   20.60    4.90
   2 -12  11   19.70    3.30
   2 -12  11   18.00    3.10
  -3  12 -11   14.00    3.70
   3 -12  11    7.80    2.60
   3 -12  11   15.90    2.80
  -4  12 -11   10.50    3.60
   4 -12  11   14.80    3.30
   4 -12  11    6.70    2.90
   4  11 -11   -0.40    2.90
  -4 -11  11   -0.40    1.40
  -4 -11  11   -0.60    1.40
   3  11 -11   33.40    6.00
  -3 -11  11   27.00    3.60
  -3 -11  11   33.00    4.40
   2  11 -11   84.79    7.30
  -2 -11  11   78.99    5.30
  -2 -11  11   72.59    5.20
   1  11 -11    3.00    2.00
  -1 -11  11    7.60    2.10
  -1 -11  11    3.30    1.70
   0  11 -11  107.49    7.00
   0  11 -11   99.79    6.50
   0 -11  11  111.59    6.30
   0 -11  11  118.19    6.20
  -1  11 -11   40.70    5.20
  -1  11 -11   33.60    3.80
   1 -11  11   32.20    4.10
   1 -11  11   38.70    4.20
  -2  11 -11    1.00    1.10
  -2  11 -11    2.00    1.90
   2 -11  11    0.40    1.30
   2 -11  11    1.50    1.60
  -3  11 -11   43.10    5.60
   3 -11  11   34.90    3.70
   3 -11  11   52.79    5.90
   3 -11  11   48.30    3.60
  -4  11 -11   34.60    5.50
   4 -11  11   25.30    2.90
   4 -11  11   24.40    4.80
   4  10 -11   10.30    4.30
  -4 -10  11   12.90    3.20
  -4 -10  11    7.10    2.10
   3  10 -11    1.30    2.50
  -3 -10  11    6.90    2.10
  -3 -10  11    8.10    2.90
   2  10 -11   14.50    3.70
  -2 -10  11   17.70    3.30
  -2 -10  11   19.00    3.00
   1  10 -11  300.57   12.50
  -1 -10  11  275.17   10.50
  -1 -10  11  290.77   10.70
   0  10 -11   67.49    5.50
   0  10 -11   84.79    5.60
   0 -10  11   65.29    5.20
   0 -10  11   78.09    4.90
  -1  10 -11    0.10    1.60
  -1  10 -11    2.10    1.40
   1 -10  11    2.70    1.60
   1 -10  11    2.40    1.40
  -2  10 -11   44.80    3.20
  -2  10 -11   45.10    5.30
   2 -10  11   46.90    4.80
   2 -10  11   43.50    3.60
  -3  10 -11   40.50    6.30
   3 -10  11   39.20    4.80
   3 -10  11   42.70    3.20
   3 -10  11   40.10    3.00
  -4  10 -11   18.30    4.00
   4 -10  11   25.40    2.10
   4 -10  11   36.50    5.60
  -5  10 -11    0.80    2.40
   5 -10  11    1.30    2.40
   5   9 -11   36.40    7.00
  -5  -9  11   25.20    4.80
   4   9 -11   49.70    7.70
  -4  -9  11   48.10    6.00
  -4  -9  11   46.20    4.40
   3   9 -11    5.10    3.00
  -3  -9  11    8.20    2.10
   2   9 -11  106.29    7.90
  -2  -9  11  104.29    6.10
  -2  -9  11  109.89    5.80
   1   9 -11    9.30    2.80
  -1  -9  11    8.20    2.00
  -1  -9  11   11.20    2.40
   0   9 -11   40.90    4.30
   0   9 -11   53.19    5.70
   0  -9  11   34.60    4.20
   0  -9  11   35.30    3.80
  -1   9 -11   17.30    2.50
  -1   9 -11   17.20    3.50
   1  -9  11   20.40    3.10
   1  -9  11   19.90    2.90
  -2   9 -11    0.80    1.70
   2  -9  11    0.50    1.30
   2  -9  11    0.50    1.00
  -3   9 -11   30.10    4.60
   3  -9  11   23.70    2.20
   3  -9  11   20.40    3.50
   3  -9  11   23.00    1.90
  -4   9 -11    1.20    1.90
   4  -9  11    0.10    1.60
  -5   9 -11    7.40    3.30
   5  -9  11    5.50    3.00
   5   8 -11    0.80    3.40
  -5  -8  11    1.30    2.50
   4   8 -11   20.40    5.20
  -4  -8  11   14.50    2.40
  -4  -8  11   14.20    3.50
   3   8 -11   24.90    5.10
  -3  -8  11   23.20    2.90
  -3  -8  11   20.50    3.50
   2   8 -11   61.29    6.70
  -2  -8  11   51.99    3.80
  -2  -8  11   44.10    4.50
   1   8 -11    6.10    2.00
   1   8 -11    7.60    2.50
  -1  -8  11    6.40    2.00
   0   8 -11  102.59    5.80
   0   8 -11  105.89    6.40
   0  -8  11  100.99    5.50
   0  -8  11  104.49    5.90
  -1   8 -11  295.67    9.60
  -1   8 -11  299.57   11.90
   1  -8  11  313.47   11.10
   1  -8  11  308.87   10.20
  -2   8 -11  207.98   10.00
   2  -8  11  214.48    7.20
   2  -8  11  226.88    9.60
   2  -8  11  209.78    6.70
  -3   8 -11  106.69    7.30
   3  -8  11  115.39    8.00
  -4   8 -11   81.19    6.70
   4  -8  11   80.39    6.60
  -5   8 -11    0.10    2.20
   5  -8  11    1.30    2.20
   5   7 -11    4.00    3.80
  -5  -7  11    1.70    2.80
   4   7 -11   11.20    4.00
  -4  -7  11    6.00    2.60
  -4  -7  11    3.10    1.80
  -4  -7  11    5.90    1.80
   3   7 -11   11.50    4.20
  -3  -7  11   10.70    1.90
  -3  -7  11   11.70    2.50
  -3  -7  11   12.50    3.00
   2   7 -11   69.79    6.20
  -2  -7  11   77.59    4.40
  -2  -7  11   60.59    4.50
  -2  -7  11   65.29    4.80
   1   7 -11  150.08    7.90
   1   7 -11  149.59    7.30
  -1  -7  11  138.69    7.00
  -1  -7  11  146.29    6.90
  -1  -7  11  152.18    7.90
   0   7 -11    4.20    1.60
   0   7 -11    4.40    2.00
   0  -7  11    3.70    1.60
   0  -7  11    5.20    1.80
  -1   7 -11  236.68   10.10
  -1   7 -11  244.08    7.80
   1  -7  11  232.28    9.20
   1  -7  11  221.88    7.90
  -2   7 -11  118.39    7.20
   2  -7  11  121.39    6.70
   2  -7  11  116.99    3.70
  -3   7 -11   73.79    6.00
   3  -7  11   99.69    6.90
  -4   7 -11   -1.80    1.50
   4  -7  11   -2.00    1.60
  -5   7 -11   16.90    3.90
   5  -7  11   20.50    4.50
   5   6 -11    3.50    3.50
   4   6 -11    1.20    2.80
  -4  -6  11    6.80    1.60
  -4  -6  11    5.80    1.70
  -4  -6  11    5.90    2.50
   3   6 -11    1.50    2.50
  -3  -6  11    7.60    2.10
  -3  -6  11   10.20    2.80
  -3  -6  11    7.20    1.60
   2   6 -11    2.20    2.20
  -2  -6  11    3.30    1.60
  -2  -6  11    1.30    1.30
  -2  -6  11    3.10    1.30
   1   6 -11    0.40    1.20
   1   6 -11    0.40    1.40
  -1  -6  11   -0.20    1.00
  -1  -6  11    1.00    1.20
  -1  -6  11    1.30    1.40
   0   6 -11   41.00    4.30
   0   6 -11   39.60    3.50
   0  -6  11   43.70    3.50
   0  -6  11   35.80    4.50
   0  -6  11   48.60    3.70
  -1   6 -11   24.40    3.60
  -1   6 -11   24.20    2.00
   1  -6  11   22.80    3.60
   1  -6  11   19.40    2.80
  -2   6 -11   10.30    2.70
   2  -6  11   11.80    2.60
  -3   6 -11   16.70    3.50
   3  -6  11   14.90    3.00
  -4   6 -11   -0.90    1.70
   4  -6  11   -1.00    1.30
  -5   6 -11    1.40    2.40
   5  -6  11   -0.90    2.60
   5   5 -11    2.50    5.80
  -5  -5  11    0.40    2.60
   4   5 -11   41.30    6.60
  -4  -5  11   42.70    5.70
  -4  -5  11   39.60    2.40
  -4  -5  11   36.80    2.60
   3   5 -11   63.59    7.10
  -3  -5  11   70.09    3.60
  -3  -5  11   65.09    4.00
  -3  -5  11   70.99    5.30
   2   5 -11   18.50    3.90
   2   5 -11   22.60    3.70
  -2  -5  11   18.30    2.40
  -2  -5  11   17.70    3.10
  -2  -5  11   13.00    2.20
   1   5 -11  195.38    8.30
   1   5 -11  210.18    9.30
  -1  -5  11  212.68    8.40
  -1  -5  11  201.58    8.90
  -1  -5  11  206.18    8.30
   0   5 -11  254.37    9.00
   0   5 -11  248.78    9.80
   0  -5  11  252.67    9.20
   0  -5  11  230.08    9.30
   0  -5  11  242.48    8.80
  -1   5 -11  183.68    8.50
  -1   5 -11  185.18    5.80
   1  -5  11  183.68    7.80
   1  -5  11  184.78    5.90
  -2   5 -11  558.54   18.50
   2  -5  11  581.94   17.80
  -3   5 -11   23.00    3.90
   3  -5  11   24.60    3.70
  -4   5 -11    2.30    2.20
   4  -5  11    4.50    2.40
  -5   5 -11   20.80    4.20
   5  -5  11   28.00    6.70
   5   4 -11    0.50    4.10
  -5  -4  11    0.30    2.40
   4   4 -11   32.10    6.00
  -4  -4  11   31.10    1.60
  -4  -4  11   32.20    1.70
  -4  -4  11   28.00    4.50
   3   4 -11    1.70    2.30
  -3  -4  11    1.00    0.90
  -3  -4  11    1.30    1.10
  -3  -4  11    1.30    1.60
   2   4 -11   19.50    2.70
   2   4 -11   20.00    3.70
  -2  -4  11   20.90    3.40
  -2  -4  11   13.00    2.20
   1   4 -11  139.19    8.40
   1   4 -11  139.89    7.20
  -1  -4  11  128.19    6.30
   0   4 -11    1.30    1.20
   0   4 -11    0.50    1.10
   0  -4  11    1.00    1.00
   0  -4  11    1.60    1.10
   0  -4  11    0.50    1.00
  -1   4 -11   16.80    1.40
  -1   4 -11   15.10    2.80
   1  -4  11   15.50    1.30
   1  -4  11   14.60    2.50
  -2   4 -11   -1.60    1.30
   2  -4  11    4.30    1.70
  -3   4 -11   14.90    3.40
   3  -4  11   13.00    2.80
  -4   4 -11   64.09    6.70
   4  -4  11   85.89    6.60
  -5   4 -11   -0.10    2.30
   5  -4  11    5.60    2.80
   5   3 -11    5.50    3.80
  -5  -3  11    7.30    2.90
   4   3 -11   12.00    4.00
  -4  -3  11    8.10    2.70
   3   3 -11    2.40    2.60
  -3  -3  11    0.50    0.80
  -3  -3  11    2.60    1.70
  -3  -3  11    0.70    0.90
   2   3 -11   -0.30    1.70
   2   3 -11    1.80    1.10
  -2  -3  11   -0.30    1.10
  -2  -3  11    1.90    1.10
   1   3 -11  296.87   10.50
  -1  -3  11  296.67   10.50
  -1  -3  11  310.67   10.20
  -1  -3  11  290.97   12.00
   0   3 -11    1.00    1.00
   0   3 -11    3.30    1.60
   0   3 -11    5.20    1.50
   0  -3  11    5.90    1.70
   0  -3  11    3.50    1.50
   0  -3  11    2.90    1.20
  -1   3 -11   -0.10    0.40
  -1   3 -11   -0.10    1.30
  -1   3 -11    0.30    0.70
   1  -3  11   -1.30    0.70
   1  -3  11    0.40    0.50
  -2   3 -11   67.79    5.40
   2  -3  11   67.29    4.80
  -3   3 -11   32.30    4.70
   3  -3  11   40.70    4.90
  -4   3 -11    6.00    2.80
   4  -3  11    7.00    2.70
  -5   3 -11   40.20    5.70
   5  -3  11   45.70    6.10
   5   2 -11   -0.80    2.70
  -5  -2  11    1.00    2.30
   4   2 -11    0.80    2.50
  -4  -2  11    2.20    1.80
   3   2 -11   -0.50    1.90
  -3  -2  11    0.10    0.60
  -3  -2  11    0.00    1.30
  -3  -2  11   -0.10    0.70
   2   2 -11    0.60    1.00
   2   2 -11    2.60    2.00
  -2  -2  11    1.40    1.00
  -2  -2  11    0.20    1.30
   1   2 -11   47.90    3.70
  -1  -2  11   56.49    3.90
  -1  -2  11   41.70    3.30
  -1  -2  11   52.19    5.40
   0   2 -11   90.29    5.40
   0   2 -11   95.69    4.90
   0   2 -11   83.69    4.90
   0  -2  11   91.09    5.10
   0  -2  11   92.89    5.00
   0  -2  11   93.79    4.60
  -1   2 -11   -0.50    0.40
  -1   2 -11   -0.80    1.10
  -1   2 -11   -1.10    0.50
   1  -2  11   -0.10    1.00
  -2   2 -11  167.48    8.50
   2  -2  11  165.98    7.70
  -3   2 -11   25.30    4.30
   3  -2  11   18.70    3.20
  -4   2 -11   26.20    4.50
   4  -2  11   27.30    4.30
  -5   2 -11   26.40    4.80
   5  -2  11   27.10    4.70
   5   1 -11    0.50    3.10
  -5  -1  11    2.70    2.50
   4   1 -11    0.00    2.60
  -4  -1  11    2.40    1.90
   3   1 -11    3.00    2.50
  -3  -1  11    0.70    0.70
  -3  -1  11    1.50    0.70
  -3  -1  11    0.60    1.40
   2   1 -11   16.00    2.20
   2   1 -11   14.60    3.10
  -2  -1  11   14.50    2.60
  -2  -1  11   12.20    1.90
   1   1 -11    1.00    1.10
   1   1 -11    1.60    1.70
  -1  -1  11    0.50    1.10
  -1  -1  11    0.90    1.10
   0   1 -11   64.89    4.00
   0   1 -11   55.79    3.90
   0   1 -11   58.89    4.30
   0  -1  11   65.49    4.10
   0  -1  11   58.19    4.10
   0  -1  11   61.29    3.70
  -1   1 -11  790.42   22.70
  -1   1 -11  759.32   18.50
  -1   1 -11  766.82   18.20
   1  -1  11  798.82   21.30
  -2   1 -11  137.49    7.80
   2  -1  11  149.19    7.10
  -3   1 -11   26.30    4.20
   3  -1  11   31.20    4.20
  -4   1 -11    2.40    2.30
   4  -1  11    4.80    2.30
  -5   1 -11   23.40    4.80
   5  -1  11   18.80    4.30
   5   0 -11    3.50    4.30
  -5   0  11   -2.20    1.90
   4   0 -11    2.30    2.90
  -4   0  11    4.80    2.50
   3   0 -11   15.50    4.20
  -3   0  11   13.00    1.20
  -3   0  11   12.60    2.90
  -3   0  11   12.20    1.00
   2   0 -11   80.79    4.30
   2   0 -11   90.39    6.60
  -2   0  11   81.29    4.00
  -2   0  11   93.89    5.50
   1   0 -11  327.17   12.10
   1   0 -11  310.17   10.60
  -1   0  11  311.67   10.20
  -1   0  11  280.47   11.00
  -1   0  11  330.57   10.90
   0   0 -11   21.80    2.80
   0   0 -11   27.90    3.30
   0   0 -11   30.40    3.60
   0   0  11   36.30    2.90
   0   0  11   39.50    3.20
   0   0  11   38.00    3.80
  -1   0 -11  173.88    5.60
  -1   0 -11  186.28    6.00
  -1   0 -11  181.78    7.70
  -1   0 -11  198.08    8.80
   1   0  11  176.58    7.40
  -2   0 -11  246.38   10.90
   2   0  11  263.57    9.80
  -3   0 -11   33.60    4.80
   3   0  11   32.00    4.10
  -4   0 -11   34.90    5.40
   4   0  11   40.60    5.10
  -5   0 -11   21.40    4.70
   5   0  11   11.70    3.40
  -5   1  11   -2.60    2.50
   4  -1 -11   45.70    7.30
  -4   1  11   36.00    4.80
   3  -1 -11    0.80    2.10
  -3   1  11    1.90    1.60
   2  -1 -11    0.00    0.90
   2  -1 -11    2.30    1.80
  -2   1  11    0.60    1.20
  -2   1  11    1.90    1.10
   1  -1 -11   70.99    5.30
   1  -1 -11   93.19    5.00
  -1   1  11   78.29    5.20
  -1   1  11   89.59    5.00
  -1   1  11   78.59    4.40
   0  -1 -11    2.80    1.20
   0  -1 -11    3.60    1.50
   0  -1 -11    7.20    1.70
   0  -1 -11    4.70    1.70
   0   1  11    4.40    1.40
   0   1  11    1.80    1.30
  -1  -1 -11   -0.10    1.10
  -1  -1 -11    1.70    1.30
  -1  -1 -11    1.50    0.90
  -1  -1 -11    0.90    0.80
   1   1  11    0.60    1.10
  -2  -1 -11  352.96   13.70
   2   1  11  373.36   12.40
   3   1  11    6.00    2.10
  -4  -1 -11    0.40    1.80
   4   1  11    1.90    2.00
  -5  -1 -11    0.10    2.20
   5   1  11   -1.10    2.00
   5  -2 -11    0.40    2.80
   4  -2 -11  248.18   14.10
  -4   2  11  246.38   11.80
   3  -2 -11   22.10    4.50
  -3   2  11   14.70    3.30
   2  -2 -11    9.20    1.80
   2  -2 -11    7.20    2.60
  -2   2  11    7.90    2.10
  -2   2  11    9.90    1.60
   1  -2 -11  261.37   11.00
   1  -2 -11  263.97   10.40
  -1   2  11  268.57    9.50
  -1   2  11  238.38    9.90
   0  -2 -11   18.20    2.50
   0  -2 -11   14.70    2.30
   0  -2 -11   13.30    2.50
   0  -2 -11   11.60    2.40
   0   2  11   20.50    2.70
   0   2  11   18.70    3.20
  -1  -2 -11  417.56   13.40
  -1  -2 -11  420.86   12.40
  -1  -2 -11  464.35   15.20
  -1  -2 -11  418.76   12.20
   1   2  11  441.76   13.30
  -2  -2 -11   50.09    5.50
  -2  -2 -11   57.79    2.50
  -2  -2 -11   52.19    2.40
   2   2  11   56.29    4.10
  -3  -2 -11   -1.90    1.40
   3   2  11   -1.00    1.30
  -4  -2 -11    6.90    3.00
   4   2  11    4.70    2.30
  -5  -2 -11   19.60    5.50
   5   2  11   18.80    4.20
   5  -3 -11    3.40    3.40
  -5   3  11    1.90    2.70
   4  -3 -11    5.80    3.60
  -4   3  11    2.80    2.20
  -3   3  11   30.20    4.20
   2  -3 -11   65.29    6.90
   2  -3 -11   60.99    3.70
  -2   3  11   57.79    3.30
  -2   3  11   55.59    4.40
   1  -3 -11  122.69    6.50
   1  -3 -11  123.39    7.30
   1  -3 -11  127.89    6.20
  -1   3  11  116.79    5.60
  -1   3  11  121.59    5.90
   0  -3 -11    2.90    1.80
   0  -3 -11    4.10    1.80
   0  -3 -11    8.30    1.90
   0  -3 -11    5.10    1.70
   0   3  11    6.50    1.60
  -1  -3 -11  585.54   18.80
  -1  -3 -11  589.34   17.10
  -1  -3 -11  599.24   16.60
  -1  -3 -11  575.64   16.20
   1   3  11  592.24   16.60
  -2  -3 -11  135.59    7.90
  -2  -3 -11  128.99    5.20
  -2  -3 -11  113.19    4.70
   2   3  11  137.69    6.30
  -3  -3 -11   65.79    6.70
   3   3  11   75.59    5.20
  -4  -3 -11    2.50    2.40
   4   3  11    0.30    1.70
   5  -4 -11   -2.40    3.10
  -5   4  11    3.50    2.70
   4  -4 -11   28.30    5.70
  -4   4  11   26.80    4.50
   3  -4 -11    4.60    2.70
   3  -4 -11    2.30    0.70
  -3   4  11    1.60    1.80
  -3   4  11    3.00    0.60
   2  -4 -11    8.70    1.90
   2  -4 -11    7.20    2.90
  -2   4  11    7.90    2.10
  -2   4  11    4.70    1.40
   1  -4 -11   39.70    4.10
   1  -4 -11   46.00    5.30
   1  -4 -11   37.20    4.00
  -1   4  11   38.80    3.70
  -1   4  11   37.70    3.70
   0  -4 -11    5.60    1.70
   0  -4 -11    7.20    2.20
   0  -4 -11    6.90    2.10
   0  -4 -11   10.00    2.30
   0   4  11    6.50    1.60
  -1  -4 -11    1.30    1.20
  -1  -4 -11    0.50    1.50
  -1  -4 -11    0.00    1.20
  -1  -4 -11    3.90    1.50
   1   4  11    1.70    1.10
  -2  -4 -11    2.60    1.90
  -2  -4 -11    1.10    1.00
  -2  -4 -11   -1.00    1.00
   2   4  11    1.20    1.10
  -3  -4 -11    0.00    0.70
  -3  -4 -11    0.90    1.80
   3   4  11   -0.50    1.10
  -4  -4 -11    2.50    2.40
   4   4  11    6.10    2.30
   5  -5 -11   -1.60    2.80
  -5   5  11   -0.60    2.40
   4  -5 -11   18.20    5.10
  -4   5  11   16.90    3.90
   3  -5 -11    0.90    0.70
   3  -5 -11    0.70    2.20
  -3   5  11    1.10    0.60
  -3   5  11    0.60    1.60
   2  -5 -11   23.40    2.80
   2  -5 -11   20.40    4.50
  -2   5  11   18.70    2.30
  -2   5  11   24.10    3.50
   1  -5 -11   33.50    4.10
   1  -5 -11   24.70    3.00
   1  -5 -11   25.30    4.00
  -1   5  11   28.70    3.30
  -1   5  11   29.00    3.80
   0  -5 -11  233.98    8.70
   0  -5 -11  254.37   10.40
   0  -5 -11  244.38    9.90
   0  -5 -11  249.18   10.40
   0   5  11  248.08    8.60
  -1  -5 -11   41.90    3.70
  -1  -5 -11   38.50    3.70
  -1  -5 -11   38.70    4.90
  -1  -5 -11   43.30    4.30
   1   5  11   41.50    3.20
   1   5  11   43.40    4.30
  -2  -5 -11   31.90    4.70
  -2  -5 -11   34.50    3.50
  -2  -5 -11   26.10    3.20
   2   5  11   27.90    3.20
  -3  -5 -11   65.89    7.00
  -3  -5 -11   51.49    3.60
  -3  -5 -11   59.59    3.50
   3   5  11   63.69    4.60
  -4  -5 -11   -0.50    1.90
   4   5  11    0.00    1.60
   4  -6 -11    3.40    3.00
  -4   6  11    3.70    2.50
   3  -6 -11    1.60    1.00
   3  -6 -11   -0.40    2.50
  -3   6  11    1.20    1.00
  -3   6  11    3.00    1.90
   2  -6 -11   12.20    2.30
   2  -6 -11   14.60    3.70
  -2   6  11    8.40    2.00
  -2   6  11   12.20    2.50
   1  -6 -11   -0.40    1.30
   1  -6 -11    0.80    1.10
   1  -6 -11    0.40    1.70
  -1   6  11    0.60    1.00
   0  -6 -11   -2.20    1.20
   0  -6 -11   -0.40    1.30
   0  -6 -11    0.40    1.00
   0   6  11   -0.40    0.80
  -1  -6 -11  480.45   15.60
  -1  -6 -11  504.05   17.30
  -1  -6 -11  470.05   15.40
   1   6  11  500.55   14.00
   1   6  11  467.15   14.60
  -2  -6 -11    1.30    1.80
   2   6  11    1.30    1.30
   2   6  11    0.20    1.10
  -3  -6 -11    1.10    1.20
  -3  -6 -11    0.50    1.40
  -3  -6 -11    1.30    2.10
   3   6  11   -0.60    1.10
  -4  -6 -11   40.30    7.30
   4   6  11   47.00    5.00
   4  -7 -11    6.20    3.70
  -4   7  11    4.60    2.80
   3  -7 -11   -0.10    0.90
   3  -7 -11   -0.50    2.20
  -3   7  11    1.90    1.80
  -3   7  11    1.70    0.90
   2  -7 -11    4.20    2.60
   2  -7 -11    2.00    1.40
  -2   7  11    3.30    1.50
  -2   7  11    4.40    1.80
   1  -7 -11   25.90    4.60
   1  -7 -11   25.20    3.70
   1  -7 -11   24.10    3.00
  -1   7  11   27.20    3.10
   0  -7 -11   30.30    4.50
   0  -7 -11   21.90    3.60
   0  -7 -11   23.70    3.60
  -1  -7 -11    6.40    2.10
  -1  -7 -11    2.30    3.50
   1   7  11    2.80    1.20
   1   7  11    0.60    1.20
  -2  -7 -11    0.60    1.80
  -2  -7 -11    1.00    1.80
  -2  -7 -11    0.70    1.50
   2   7  11    1.30    1.40
   2   7  11    2.40    1.20
  -3  -7 -11   15.50    2.70
  -3  -7 -11   13.00    3.70
   3   7  11   18.60    2.90
  -4  -7 -11    6.40    3.40
   4   7  11    5.90    2.90
   4  -8 -11   10.30    4.40
  -4   8  11    8.60    3.30
   3  -8 -11    0.80    1.10
   3  -8 -11   -0.90    2.20
  -3   8  11    0.80    2.00
   2  -8 -11   35.00    4.00
   2  -8 -11   26.00    4.80
  -2   8  11   35.10    3.90
   1  -8 -11    7.20    2.70
   1  -8 -11    9.80    2.60
   1  -8 -11    7.20    1.90
  -1   8  11    7.60    1.80
   0  -8 -11   14.40    3.40
   0  -8 -11   18.10    2.50
   0  -8 -11   16.00    3.40
   0   8  11   16.60    2.20
  -1  -8 -11   27.50    4.40
  -1  -8 -11   24.90    4.00
   1   8  11   26.00    2.60
   1   8  11   22.30    2.70
  -2  -8 -11    0.30    1.70
  -2  -8 -11    2.70    1.90
   2   8  11    1.60    1.10
   2   8  11    1.00    1.40
  -3  -8 -11    0.00    2.40
  -3  -8 -11    2.90    1.70
   3   8  11    1.20    1.40
   4  -9 -11    0.20    3.00
  -4   9  11    0.70    2.40
   3  -9 -11    4.50    1.60
   3  -9 -11    6.50    3.60
   2  -9 -11   29.90    5.50
   2  -9 -11   29.00    3.90
  -2   9  11   32.70    3.80
   1  -9 -11  150.38    9.60
   1  -9 -11  133.69    7.60
   1  -9 -11  134.79    6.00
  -1   9  11  133.69    6.00
   0  -9 -11   -0.30    1.90
   0  -9 -11    0.00    1.00
   0  -9 -11    2.00    1.80
   0   9  11    1.70    1.10
  -1  -9 -11   37.20    5.00
  -1  -9 -11   46.00    5.80
   1   9  11   37.10    2.60
   1   9  11   42.40    3.00
  -2  -9 -11    3.00    2.30
  -2  -9 -11    5.40    2.40
   2   9  11    6.60    1.50
  -3  -9 -11    0.00    2.30
  -3  -9 -11    0.60    1.70
   3   9  11   -1.20    1.00
   3 -10 -11    1.70    1.50
   3 -10 -11    5.80    3.80
   2 -10 -11   16.80    3.20
   2 -10 -11   28.90    5.60
  -2  10  11   25.30    3.40
   1 -10 -11   88.79    7.70
   1 -10 -11   88.69    6.40
   0 -10 -11   51.99    7.40
   0 -10 -11   42.20    5.30
   0  10  11   49.80    2.90
   0  10  11   52.89    3.20
  -1 -10 -11    3.40    2.30
  -1 -10 -11    6.90    2.90
   1  10  11    3.60    0.90
   1  10  11    5.80    1.60
  -2 -10 -11   29.30    5.10
  -2 -10 -11   30.80    4.70
   2  10  11   29.70    2.10
  -3 -10 -11   23.80    4.90
  -3 -10 -11   24.70    4.30
   3 -11 -11    0.40    2.80
   2 -11 -11    6.20    2.30
   2 -11 -11    1.40    3.00
  -2  11  11    1.40    1.40
   1 -11 -11   26.90    4.40
   1 -11 -11   35.00    5.70
  -1  11  11   29.90    2.90
   0 -11 -11    0.30    2.00
   0 -11 -11    1.10    2.40
  -1 -11 -11   14.20    3.90
  -1 -11 -11   12.40    3.70
  -2 -11 -11   15.20    4.20
  -2 -11 -11   14.70    3.70
   2 -12 -11    0.90    3.30
   2 -12 -11   -0.30    1.80
  -2  12  11    0.70    1.40
   1 -12 -11   17.00    4.40
   1 -12 -11   12.90    3.50
   0 -12 -11    0.70    2.00
   0 -12 -11    1.90    2.50
  -1 -12 -11   19.60    4.50
  -1 -12 -11   15.30    4.20
  -2 -12 -11   10.70    3.60
  -2 -12 -11   12.40    3.90
   2 -13 -11   13.70    4.80
   2 -13 -11   11.40    3.20
   1 -13 -11   21.40    4.00
   1 -13 -11   27.40    5.60
   0 -13 -11    6.10    3.00
   0 -13 -11    4.60    3.40
  -1 -13 -11   -0.70    2.20
  -1 -13 -11   -0.40    2.40
   0  19 -12    6.50    3.50
   0 -19  12    3.10    2.50
   0 -19  12    2.40    2.00
  -1  19 -12   39.50    5.90
   1 -19  12   38.10    4.70
   1 -19  12   21.80    4.40
   1  18 -12   38.40    6.40
  -1 -18  12   43.70    4.80
  -1 -18  12   43.50    5.70
   0  18 -12   16.10    4.30
   0 -18  12   15.30    2.90
  -1  18 -12   61.79    7.20
   1 -18  12   61.99    5.20
   1 -18  12   37.70    5.90
  -2  18 -12   11.80    3.30
   2 -18  12   18.00    4.00
   2 -18  12   19.10    3.70
   2  17 -12   28.30    5.90
  -2 -17  12   42.00    7.20
  -2 -17  12   33.60    4.50
   1  17 -12   -1.10    2.20
  -1 -17  12   -0.60    1.40
  -1 -17  12   -0.20    1.80
   0  17 -12   54.29    6.80
   0 -17  12   66.29    7.00
  -1  17 -12    2.30    2.40
   1 -17  12    1.50    2.10
   1 -17  12    2.00    1.80
  -2  17 -12   31.20    4.80
   2 -17  12   29.20    4.80
   2 -17  12   36.50    4.60
   3 -17  12    1.80    2.10
   3 -17  12    0.70    2.10
   3 -17  12   -1.00    1.80
   3  16 -12   17.80    5.20
  -3 -16  12   14.10    3.80
   2  16 -12    1.50    2.80
  -2 -16  12    2.80    2.30
  -2 -16  12    3.90    1.90
   1  16 -12    0.20    2.40
  -1 -16  12    2.10    1.90
  -1 -16  12    1.10    1.80
   0  16 -12    7.00    3.10
   0 -16  12   14.60    3.30
   0 -16  12   13.50    2.80
   1 -16  12   64.99    5.20
   1 -16  12   75.99    6.20
  -2  16 -12    2.50    2.00
   2 -16  12    8.10    2.70
   2 -16  12    4.90    2.50
   3 -16  12   18.80    3.70
   3 -16  12   17.30    3.80
   3 -16  12   15.20    3.90
   3  15 -12    0.80    2.90
  -3 -15  12    1.90    2.10
  -3 -15  12    0.80    1.70
   2  15 -12    1.60    2.70
  -2 -15  12    0.00    1.50
  -2 -15  12    1.60    1.90
   1  15 -12   36.00    5.50
  -1 -15  12   31.00    4.10
  -1 -15  12   25.80    4.30
   0 -15  12    8.50    2.70
   0 -15  12    9.20    2.40
  -1  15 -12    2.60    1.90
   1 -15  12   -2.00    1.20
  -2  15 -12   -0.20    1.50
   2 -15  12   -0.70    1.50
   2 -15  12   -0.30    1.50
   3 -15  12   31.00    4.70
   3 -15  12   25.70    4.20
   3 -15  12   30.00    4.30
   3  14 -12    3.60    3.30
  -3 -14  12    5.60    2.50
  -3 -14  12   10.80    3.00
   2  14 -12   10.00    4.10
  -2 -14  12    5.20    2.10
  -2 -14  12    4.30    2.00
   1  14 -12   78.39    7.00
  -1 -14  12   69.39    5.20
  -1 -14  12   73.19    5.80
   0  14 -12    2.60    2.20
   0 -14  12    0.20    1.60
   0 -14  12   -0.10    1.30
  -1  14 -12   -0.20    1.60
   1 -14  12    2.60    1.90
   1 -14  12    4.00    2.00
  -2  14 -12   14.50    3.60
  -2  14 -12   15.40    2.90
   2 -14  12   19.30    3.60
   2 -14  12   24.30    3.90
  -3  14 -12    0.60    2.50
   3 -14  12    0.60    1.60
   3 -14  12    1.90    2.10
  -4  14 -12   76.69    8.30
   4 -14  12   90.19    7.60
   4  13 -12   -0.20    2.90
  -4 -13  12    1.30    2.00
  -4 -13  12    1.50    2.20
   3  13 -12    5.60    3.30
  -3 -13  12    3.20    2.00
  -3 -13  12    3.50    2.10
   2  13 -12    0.30    2.30
  -2 -13  12   -0.80    1.30
   1  13 -12   14.20    3.70
  -1 -13  12   13.20    2.70
  -1 -13  12   13.90    3.00
   0  13 -12    2.00    2.20
   0 -13  12    4.10    2.00
   0 -13  12    4.70    2.00
  -1  13 -12    6.10    2.20
  -1  13 -12    6.00    2.60
   1 -13  12    5.00    2.00
   1 -13  12    3.20    1.80
  -2  13 -12   13.90    3.60
  -2  13 -12   20.90    3.00
   2 -13  12   17.30    3.20
  -3  13 -12   13.90    3.90
   3 -13  12    9.60    2.40
   3 -13  12    6.60    2.60
  -4  13 -12    3.40    2.80
   4  12 -12   14.30    4.90
  -4 -12  12   16.90    3.30
  -4 -12  12   14.30    3.70
   3  12 -12    1.00    2.70
  -3 -12  12    0.20    1.60
  -3 -12  12   -1.20    1.40
   2  12 -12   96.69    8.10
  -2 -12  12  101.19    6.40
  -2 -12  12   95.39    6.20
   1  12 -12    2.70    2.20
  -1 -12  12    0.20    1.20
  -1 -12  12    1.10    1.60
   0  12 -12   32.00    4.40
   0 -12  12   32.50    4.20
   0 -12  12   41.70    4.50
  -1  12 -12   15.00    5.40
  -1  12 -12   13.60    2.70
   1 -12  12    6.40    2.10
  -2  12 -12    5.60    1.80
  -2  12 -12    4.00    2.50
   2 -12  12    1.30    1.50
   2 -12  12    3.30    2.00
  -3  12 -12   -0.20    1.80
   3 -12  12   -1.80    1.50
   3 -12  12    0.90    1.30
   3 -12  12    0.70    1.80
  -4  12 -12   26.50    5.10
   4 -12  12   30.00    5.10
   4  11 -12   33.60    9.90
  -4 -11  12   30.00    4.80
  -4 -11  12   23.40    3.60
   3  11 -12    1.60    2.70
  -3 -11  12    1.90    1.80
  -3 -11  12    2.00    1.70
  -2 -11  12    7.90    2.40
  -2 -11  12    8.60    2.30
   1  11 -12   82.09    6.60
  -1 -11  12   80.69    5.30
  -1 -11  12   82.99    5.50
   0  11 -12   15.80    3.50
   0  11 -12   21.30    3.50
   0 -11  12   12.20    2.60
   0 -11  12   11.10    2.40
  -1  11 -12   99.29    5.60
  -1  11 -12   98.39    7.00
   1 -11  12  101.89    6.10
   1 -11  12   96.69    6.10
  -2  11 -12  112.79    7.80
  -2  11 -12  117.49    5.50
   2 -11  12  120.29    8.10
   2 -11  12  111.09    6.00
  -3  11 -12   61.99    6.90
   3 -11  12   40.30    3.10
   3 -11  12   32.40    4.60
   3 -11  12   43.50    3.40
  -4  11 -12   45.50    6.30
   4 -11  12   44.10    6.20
   4  10 -12   14.30    5.10
  -4 -10  12    5.80    2.00
  -4 -10  12    3.20    2.40
   3  10 -12    5.00    3.20
  -3 -10  12    6.20    2.50
  -3 -10  12    2.70    1.60
   2  10 -12  165.58   10.20
  -2 -10  12  174.28    7.80
  -2 -10  12  163.58    8.20
   1  10 -12   18.70    3.80
  -1 -10  12   16.00    2.80
  -1 -10  12   24.30    3.50
   0  10 -12    2.70    1.90
   0  10 -12    0.70    1.60
   0 -10  12    3.20    1.60
   0 -10  12    0.80    1.60
  -1  10 -12   39.60    3.40
  -1  10 -12   33.40    4.80
   1 -10  12   30.00    3.80
   1 -10  12   28.20    3.70
  -2  10 -12    2.70    1.20
  -2  10 -12    1.10    1.90
   2 -10  12    0.30    1.40
   2 -10  12    1.80    1.30
  -3  10 -12    4.00    2.20
   3 -10  12    1.80    1.00
   3 -10  12    2.70    1.00
   3 -10  12    3.80    2.00
  -4  10 -12    0.90    2.30
   4 -10  12   -1.40    1.60
   4   9 -12   52.99    7.70
  -4  -9  12   64.29    4.50
  -4  -9  12   55.99    6.20
   3   9 -12    1.70    2.40
  -3  -9  12   -0.90    1.00
  -3  -9  12    0.10    1.60
   2   9 -12  153.28    9.60
  -2  -9  12  146.19    7.70
  -2  -9  12  179.78    7.60
   1   9 -12   14.70    2.90
   1   9 -12   21.30    3.90
  -1  -9  12   14.30    2.70
  -1  -9  12   17.80    2.80
   0   9 -12  274.27   10.90
   0   9 -12  285.07   11.70
   0  -9  12  279.67   11.10
   0  -9  12  283.67   10.70
  -1   9 -12  292.77   12.20
  -1   9 -12  286.77    9.70
   1  -9  12  281.07   10.20
   1  -9  12  284.87   11.00
  -2   9 -12   70.59    6.90
   2  -9  12   73.79    3.90
   2  -9  12   89.59    5.80
   2  -9  12   71.49    3.60
  -3   9 -12   49.40    6.10
   3  -9  12   51.39    5.90
  -4   9 -12   31.70    5.20
   4  -9  12   30.30    4.70
  -5   9 -12   -1.60    2.20
   5  -9  12   -0.80    2.00
   4   8 -12    8.00    3.80
  -4  -8  12    5.90    1.70
  -4  -8  12    5.00    2.30
   3   8 -12   11.00    3.70
  -3  -8  12   17.60    2.70
  -3  -8  12   19.70    3.70
   2   8 -12   61.79    6.70
  -2  -8  12   74.99    5.30
  -2  -8  12   70.49    4.60
   1   8 -12  110.59    6.60
   1   8 -12  115.49    7.20
  -1  -8  12  102.99    6.00
   0   8 -12    5.10    1.90
   0   8 -12    5.60    2.10
   0  -8  12    5.00    1.80
   0  -8  12    3.80    1.80
  -1   8 -12  578.44   18.60
  -1   8 -12  557.34   15.30
   1  -8  12  540.35   15.80
   1  -8  12  557.44   17.30
  -2   8 -12    1.60    1.70
   2  -8  12    1.40    0.80
   2  -8  12    1.80    1.50
   2  -8  12    0.20    0.60
  -3   8 -12  102.39    7.30
   3  -8  12  100.09    6.80
  -4   8 -12   36.80    5.40
   4  -8  12   29.10    4.70
  -5   8 -12   36.40    5.90
   5  -8  12   46.40    6.40
   5   7 -12   12.20    4.70
  -5  -7  12   17.50    4.30
   4   7 -12    3.50    3.30
  -4  -7  12    1.70    2.20
  -4  -7  12   -0.10    1.00
   3   7 -12    3.40    2.90
  -3  -7  12    5.20    1.60
  -3  -7  12    2.70    1.70
  -3  -7  12    3.60    2.00
   2   7 -12   33.10    5.00
  -2  -7  12   29.20    3.80
  -2  -7  12   29.20    3.20
   1   7 -12  257.17   10.50
   1   7 -12  263.27   11.10
  -1  -7  12  261.27   10.10
  -1  -7  12  241.88   12.00
   0   7 -12  167.08    8.10
   0   7 -12  149.09    7.00
   0  -7  12  145.19    7.00
   0  -7  12  145.29    7.00
  -1   7 -12   97.49    4.40
  -1   7 -12   99.69    6.40
   1  -7  12  101.49    5.90
   1  -7  12   92.39    4.50
  -2   7 -12    0.80    1.50
   2  -7  12    1.80    1.50
  -3   7 -12   85.59   12.60
   3  -7  12   60.99    6.20
  -4   7 -12   17.80    3.90
   4  -7  12   14.90    3.50
  -5   7 -12   -1.80    2.00
   5  -7  12    3.00    2.70
   5   6 -12   20.00    5.70
  -5  -6  12   21.70    4.70
   4   6 -12   14.60    4.90
  -4  -6  12   20.70    4.30
  -4  -6  12   17.30    2.10
  -4  -6  12   10.90    2.00
   3   6 -12   50.49   10.90
  -3  -6  12   36.30    2.90
  -3  -6  12   36.20    4.50
  -3  -6  12   31.60    3.50
   2   6 -12   17.30    3.90
  -2  -6  12   19.00    2.60
  -2  -6  12   19.60    3.30
  -2  -6  12   15.20    2.60
   1   6 -12   10.50    2.40
   1   6 -12   21.10    3.60
  -1  -6  12    9.70    2.60
  -1  -6  12   13.90    2.60
   0   6 -12   12.70    2.50
   0   6 -12   15.90    3.00
   0  -6  12   11.70    2.30
   0  -6  12   12.50    2.30
  -1   6 -12  316.57    9.20
  -1   6 -12  320.37   12.60
   1  -6  12  328.47   11.70
   1  -6  12  322.67   10.90
  -2   6 -12   43.10    5.40
   2  -6  12   34.20    4.20
   3  -6  12    3.70    1.90
  -4   6 -12    3.10    2.20
   4  -6  12    0.60    1.80
  -5   6 -12   31.50    5.20
   5  -6  12   42.60    5.90
   5   5 -12   -0.10    3.20
  -5  -5  12   -1.20    1.90
   4   5 -12   10.00    4.00
  -4  -5  12    6.40    2.60
  -4  -5  12    9.20    1.40
  -4  -5  12    9.00    1.60
   3   5 -12    2.80    3.00
  -3  -5  12    0.60    1.40
  -3  -5  12    1.00    1.00
  -3  -5  12    2.20    1.40
   2   5 -12  184.68    7.80
   2   5 -12  196.88   10.20
  -2  -5  12  192.78    8.60
  -2  -5  12  173.08    7.50
   1   5 -12    1.60    1.30
   1   5 -12    1.40    1.70
  -1  -5  12    3.40    1.40
  -1  -5  12    0.70    1.60
  -1  -5  12    3.60    1.60
   0   5 -12  213.58    8.20
   0   5 -12  206.38    9.10
   0  -5  12  199.98    8.00
   0  -5  12  204.28    8.40
  -1   5 -12  168.28    5.40
  -1   5 -12  170.58    8.50
   1  -5  12  165.58    7.60
   1  -5  12  167.18    5.50
  -2   5 -12  278.87   12.00
   2  -5  12  296.77   11.30
  -3   5 -12   -1.80    1.40
   3  -5  12   -1.90    1.20
  -4   5 -12   15.10    3.80
   4  -5  12   22.00    4.40
  -5   5 -12   38.30    6.00
   5  -5  12   35.50    5.30
   5   4 -12   -0.70    3.10
  -5  -4  12   -0.50    2.00
   4   4 -12   12.00    4.20
  -4  -4  12   14.00    3.60
   3   4 -12   87.79    7.60
  -3  -4  12   86.09    4.00
  -3  -4  12   74.19    4.10
   2   4 -12   83.79    6.50
  -2  -4  12   70.39    4.40
  -2  -4  12   71.99    5.10
   1   4 -12    0.30    1.50
   1   4 -12    2.30    1.50
  -1  -4  12    0.70    1.30
  -1  -4  12    1.60    1.40
  -1  -4  12    0.00    1.00
   0   4 -12  479.75   14.30
   0   4 -12  484.15   15.50
   0  -4  12  462.85   14.60
   0  -4  12  447.16   13.80
  -1   4 -12   34.00    1.90
  -1   4 -12   41.90    4.80
   1  -4  12   29.10    1.80
   1  -4  12   30.70    3.70
  -2   4 -12   70.29    5.70
   2  -4  12   61.39    4.70
  -3   4 -12   22.30    4.40
  -4   4 -12   44.60    6.20
   4  -4  12   29.90    4.60
  -5   4 -12   -1.50    2.00
   5  -4  12    0.10    2.20
   5   3 -12   33.30    6.50
  -5  -3  12   28.10    5.20
   4   3 -12    0.00    2.50
  -4  -3  12   -1.10    1.40
   3   3 -12   18.00    4.10
  -3  -3  12   17.70    2.20
  -3  -3  12   20.30    2.00
   2   3 -12   29.50    4.70
   2   3 -12   22.50    3.00
  -2  -3  12   20.40    2.70
  -2  -3  12   21.70    3.20
   1   3 -12   53.89    4.70
   1   3 -12   65.79    4.50
  -1  -3  12   58.39    4.60
  -1  -3  12   55.99    4.20
  -1  -3  12   50.99    3.90
   0   3 -12   34.40    4.00
   0   3 -12   38.70    3.30
   0  -3  12   39.70    4.00
   0  -3  12   36.10    3.00
  -1   3 -12  128.69    7.20
  -1   3 -12  122.19    4.00
  -1   3 -12  120.29    3.80
   1  -3  12  124.29    6.30
  -2   3 -12   92.59    6.50
   2  -3  12  103.19    6.00
   3  -3  12   17.30    3.10
  -4   3 -12   -0.70    1.80
   4  -3  12   -0.40    1.80
  -5   3 -12  121.29    9.10
   5   2 -12    2.40    3.20
  -5  -2  12    3.80    2.50
   4   2 -12    5.90    3.60
  -4  -2  12    1.60    2.00
   3   2 -12   -1.30    1.90
  -3  -2  12    0.10    0.70
  -3  -2  12   -0.30    0.70
   2   2 -12  205.58    8.00
   2   2 -12  241.48   11.40
  -2  -2  12  230.78    9.50
  -2  -2  12  217.08    7.80
   1   2 -12   24.00    3.30
   1   2 -12   37.90    4.70
  -1  -2  12   21.00    2.90
  -1  -2  12   23.20    3.00
  -1  -2  12   26.70    3.60
   0   2 -12   53.99    3.90
   0   2 -12   57.89    4.60
   0  -2  12   58.39    3.70
   0  -2  12   55.59    4.10
  -1   2 -12  151.88    4.80
  -1   2 -12  158.28    8.00
  -1   2 -12  155.48    4.60
   1  -2  12  157.68    7.20
  -2   2 -12    4.40    2.20
   2  -2  12    2.20    1.50
  -3   2 -12   94.99    9.80
   3  -2  12  102.69    6.60
  -4   2 -12  150.58    9.40
   4  -2  12  143.59    8.60
  -5   2 -12    5.30    3.00
   5  -2  12    5.80    3.10
   5   1 -12    3.00    3.30
  -5  -1  12    2.10    2.70
   4   1 -12   -0.40    2.60
  -4  -1  12    2.00    2.10
   3   1 -12   47.50    6.50
  -3  -1  12   51.39    2.60
  -3  -1  12   51.59    2.50
   2   1 -12    1.90    2.00
   2   1 -12    0.30    1.00
  -2  -1  12   -0.60    0.90
  -2  -1  12    0.00    1.30
   1   1 -12   78.99    4.90
   1   1 -12   75.39    5.50
  -1  -1  12   72.69    4.40
  -1  -1  12   69.59    4.70
  -1  -1  12   81.59    5.30
   0   1 -12  229.58    9.50
   0   1 -12  236.48    8.80
   0  -1  12  220.58    8.80
   0  -1  12  232.28    8.30
  -1   1 -12  100.89    6.40
  -1   1 -12  102.49    3.90
  -1   1 -12  104.59    3.70
   1  -1  12  114.99    5.90
  -2   1 -12   90.49    6.50
   2  -1  12   95.49    5.70
  -3   1 -12    3.20    2.20
   3  -1  12    0.00    1.40
  -4   1 -12    0.00    2.00
   4  -1  12    1.30    2.00
  -5   1 -12    3.60    3.50
   5  -1  12    4.80    3.40
   5   0 -12    0.00    3.30
  -5   0  12    1.20    2.20
   4   0 -12    6.50    3.60
  -4   0  12    4.40    2.40
   3   0 -12   20.20    4.80
  -3   0  12   17.10    1.90
  -3   0  12   17.80    1.40
   2   0 -12   -0.10    0.90
   2   0 -12    0.40    1.80
  -2   0  12    1.30    1.00
  -2   0  12   -1.00    1.00
   1   0 -12    1.80    1.40
   1   0 -12    1.10    1.40
  -1   0  12    2.40    1.40
  -1   0  12    1.20    1.30
  -1   0  12   -0.20    1.30
   0   0 -12   54.09    4.40
   0   0 -12   55.29    3.50
   0   0 -12   53.59    4.00
   0   0  12   53.69    3.90
   0   0  12   47.60    3.50
  -1   0 -12   31.40    2.10
  -1   0 -12   33.90    2.30
  -1   0 -12   34.60    4.50
   1   0  12   38.00    3.90
  -2   0 -12   93.59    6.70
   2   0  12   91.39    5.50
  -3   0 -12   13.10    3.30
   3   0  12   18.30    3.30
  -4   0 -12    0.40    2.00
   4   0  12   -1.60    1.40
  -5   0 -12   67.49    8.00
   5  -1 -12   -2.40    2.90
  -5   1  12    1.90    2.70
   4  -1 -12   16.30    4.50
  -4   1  12   12.70    3.20
   3  -1 -12    0.80    3.90
  -3   1  12    0.00    0.50
  -3   1  12   -0.20    0.50
   2  -1 -12   18.40    4.10
   2  -1 -12   12.90    2.20
  -2   1  12   16.00    2.80
  -2   1  12   12.90    2.00
   1  -1 -12    6.10    2.30
   1  -1 -12    6.80    1.80
  -1   1  12    5.60    1.70
  -1   1  12    5.80    1.70
  -1   1  12    7.20    2.20
   0  -1 -12   10.90    2.70
   0  -1 -12   11.50    2.20
   0  -1 -12    6.40    1.90
   0   1  12    9.20    2.00
  -1  -1 -12   64.59    3.60
  -1  -1 -12   70.89    3.50
  -1  -1 -12   67.39    5.40
   1   1  12   69.49    4.50
  -2  -1 -12   45.90    5.60
   2   1  12   54.49    4.20
  -3  -1 -12    0.00    1.70
   3   1  12    0.00    1.20
  -4  -1 -12    6.60    2.90
   4   1  12   14.30    3.30
   5  -2 -12    2.80    3.80
  -5   2  12    1.70    2.50
   4  -2 -12   82.49    9.30
  -4   2  12   88.79    7.00
   3  -2 -12   28.50    1.90
   3  -2 -12   41.60    6.40
  -3   2  12   27.50    1.50
   2  -2 -12   36.80    5.40
   2  -2 -12   31.80    3.30
  -2   2  12   31.70    2.70
  -2   2  12   41.20    4.40
   1  -2 -12   87.39    6.10
   1  -2 -12   89.89    5.30
  -1   2  12   84.19    5.10
  -1   2  12   82.19    4.80
   0  -2 -12   17.80    2.70
   0  -2 -12   13.30    2.60
   0  -2 -12   14.20    2.70
   0   2  12   19.00    2.90
  -1  -2 -12    5.70    1.40
  -1  -2 -12    5.80    2.30
  -1  -2 -12    5.00    1.50
   1   2  12    4.70    1.60
  -2  -2 -12    5.30    2.30
   2   2  12    3.10    1.60
  -3  -2 -12    6.30    2.70
   3   2  12    6.00    2.10
  -4  -2 -12   17.40    4.20
   4   2  12   12.00    3.00
   5  -3 -12   -2.50    3.10
  -5   3  12    1.70    2.50
   4  -3 -12    2.80    3.20
  -4   3  12    8.00    2.90
   3  -3 -12    3.80    0.90
   3  -3 -12    3.10    2.70
  -3   3  12   11.50    3.30
  -3   3  12    5.70    0.90
   2  -3 -12   53.69    3.70
   2  -3 -12   46.90    6.00
  -2   3  12   50.29    3.30
  -2   3  12   51.59    4.40
   1  -3 -12   42.30    4.20
   1  -3 -12   34.70    4.70
  -1   3  12   40.80    4.00
  -1   3  12   48.80    3.90
   0  -3 -12    1.80    1.60
   0  -3 -12    3.20    1.50
   0  -3 -12    1.10    1.40
   0   3  12    1.60    1.30
  -1  -3 -12   43.30    5.10
  -1  -3 -12   37.80    3.10
  -1  -3 -12   38.60    3.20
   1   3  12   34.60    3.50
  -2  -3 -12    8.90    3.20
  -2  -3 -12   11.80    1.70
   2   3  12   15.80    2.70
  -3  -3 -12  102.19    7.50
   3   3  12   88.99    5.80
  -4  -3 -12    1.70    2.30
   4   3  12    0.50    1.70
   4  -4 -12    0.20    2.70
  -4   4  12   -0.20    1.80
   3  -4 -12   10.90    3.70
   3  -4 -12    3.10    1.00
  -3   4  12    3.20    1.90
  -3   4  12    4.40    0.90
   2  -4 -12   11.00    3.30
  -2   4  12   11.80    2.50
  -2   4  12    5.70    1.60
   1  -4 -12   -0.10    1.20
   1  -4 -12    0.10    1.50
  -1   4  12    0.50    1.10
   0  -4 -12   37.90    4.50
   0  -4 -12   42.00    4.50
   0  -4 -12   50.19    4.20
   0   4  12   50.99    3.70
  -1  -4 -12   22.30    4.00
  -1  -4 -12   20.10    2.90
  -1  -4 -12   22.40    3.10
   1   4  12   15.10    2.40
  -2  -4 -12    0.40    1.10
  -2  -4 -12    0.20    1.70
  -2  -4 -12   -0.30    0.90
   2   4  12    1.20    1.40
  -3  -4 -12   -0.60    1.80
   3   4  12    0.40    1.40
  -4  -4 -12   10.60    3.70
   4   4  12   26.90    4.20
   4  -5 -12    5.60    3.70
  -4   5  12    2.30    2.50
   3  -5 -12   14.50    4.20
   3  -5 -12    9.10    1.50
  -3   5  12    9.30    2.80
   2  -5 -12   28.00    3.30
   2  -5 -12   22.30    4.40
  -2   5  12   29.30    3.10
  -2   5  12   23.90    3.40
   1  -5 -12   19.90    3.80
   1  -5 -12   21.20    3.40
  -1   5  12   23.00    3.10
   0  -5 -12   -0.90    1.40
   0  -5 -12    2.40    1.80
   0  -5 -12    2.20    1.40
   0   5  12    1.50    1.20
  -1  -5 -12   11.90    3.10
  -1  -5 -12   13.10    2.80
  -1  -5 -12    9.20    2.20
  -1  -5 -12   17.10    2.90
   1   5  12   12.70    3.10
   1   5  12   11.90    2.10
  -2  -5 -12   24.10    4.50
  -2  -5 -12   17.00    2.60
  -2  -5 -12   16.60    2.60
   2   5  12   17.50    2.70
  -3  -5 -12   50.49    6.60
  -3  -5 -12   42.40    2.80
   3   5  12   52.59    4.30
   4   5  12   95.39    6.50
   4  -6 -12   -2.00    4.40
  -4   6  12   -2.20    1.70
   3  -6 -12    0.60    2.30
   3  -6 -12    1.00    1.00
  -3   6  12    1.70    1.90
  -3   6  12    1.10    0.90
   2  -6 -12    9.50    3.20
   2  -6 -12   13.80    2.60
  -2   6  12   16.60    3.00
  -2   6  12   13.70    2.30
   1  -6 -12    1.70    1.90
   1  -6 -12    1.00    1.60
  -1   6  12    0.90    1.10
   0  -6 -12  154.48    8.40
   0  -6 -12  152.18    8.20
   0  -6 -12  145.19    6.60
   0   6  12  154.38    6.60
  -1  -6 -12   15.60    3.60
  -1  -6 -12   12.40    2.80
  -1  -6 -12   12.50    2.70
   1   6  12   13.80    2.20
   1   6  12   13.40    2.70
  -2  -6 -12   17.40    4.00
   2   6  12   11.50    2.10
  -3  -6 -12    5.10    1.60
  -3  -6 -12    5.60    2.80
   3   6  12    4.20    1.90
  -4  -6 -12    5.70    3.00
   4   6  12    1.40    1.90
   4  -7 -12   -4.00    2.20
  -4   7  12    1.00    2.20
   3  -7 -12    1.30    1.10
   3  -7 -12   -1.90    2.40
  -3   7  12    1.40    1.80
   2  -7 -12    1.10    1.40
   2  -7 -12   -1.00    1.90
  -2   7  12    1.70    1.50
   1  -7 -12   25.00    3.80
   1  -7 -12   35.60    5.10
  -1   7  12   31.40    3.50
   0  -7 -12    6.10    1.80
   0  -7 -12    5.80    2.10
   0  -7 -12    3.80    2.20
   0   7  12    7.00    1.70
  -1  -7 -12    3.90    2.30
  -1  -7 -12   12.60    3.00
   1   7  12    6.70    2.00
   1   7  12    5.80    1.60
  -2  -7 -12   40.70    4.60
  -2  -7 -12   29.50    5.00
  -2  -7 -12   40.10    5.10
   2   7  12   39.50    3.30
  -3  -7 -12    2.60    2.50
   3   7  12    2.00    1.60
   4  -8 -12   -1.20    2.90
  -4   8  12    1.70    2.40
   3  -8 -12    2.60    2.80
   3  -8 -12    1.70    1.30
  -3   8  12    0.20    1.70
   2  -8 -12   21.50    3.40
   2  -8 -12   13.20    4.00
  -2   8  12   20.30    3.10
   1  -8 -12    6.90    2.50
  -1   8  12    4.90    1.70
   0  -8 -12    3.60    1.60
   0  -8 -12    2.60    2.20
   0  -8 -12   -0.10    1.60
   0   8  12    3.40    1.40
  -1  -8 -12   -0.90    1.60
  -1  -8 -12    0.80    1.80
   1   8  12    0.00    1.00
   1   8  12    0.70    1.60
  -2  -8 -12    4.40    2.50
  -2  -8 -12    2.80    2.00
   2   8  12    3.70    1.40
  -3  -8 -12    0.70    2.10
  -3  -8 -12   -0.10    1.50
   3   8  12    0.50    1.40
   3  -9 -12    1.80    3.00
  -3   9  12    1.50    2.00
   2  -9 -12    0.90    1.60
   2  -9 -12   -0.70    2.10
  -2   9  12   -0.80    1.20
   1  -9 -12   92.49    7.90
   1  -9 -12   95.49    6.60
  -1   9  12  101.19    5.30
   0  -9 -12   32.80    4.80
   0  -9 -12   27.40    4.80
   0  -9 -12   21.40    3.60
   0   9  12   25.80    3.00
  -1  -9 -12    4.30    2.40
  -1  -9 -12    2.10    2.30
   1   9  12    4.60    1.30
  -2  -9 -12   -0.50    2.10
  -2  -9 -12   -1.30    1.60
  -3  -9 -12   66.69    8.10
  -3  -9 -12   89.69    6.20
   3 -10 -12    6.30    3.90
  -3  10  12    3.40    2.50
   2 -10 -12   -3.50    1.90
   2 -10 -12    0.80    1.70
  -2  10  12    1.30    1.60
   1 -10 -12    0.50    1.80
   1 -10 -12    0.60    2.20
  -1  10  12   -0.30    1.10
   0 -10 -12    1.50    2.00
   0 -10 -12   -0.20    1.90
   0  10  12   -0.40    0.90
  -1 -10 -12   17.20    4.20
   1  10  12   19.20    1.90
  -2 -10 -12    1.20    2.20
  -2 -10 -12    0.70    2.20
   2 -11 -12   41.50    7.40
  -2  11  12   36.50    4.10
   1 -11 -12   10.70    3.20
   1 -11 -12    5.70    3.40
   0 -11 -12    6.20    2.80
   0 -11 -12    6.00    3.20
  -1 -11 -12    1.80    2.50
  -1 -11 -12    1.60    2.30
  -2 -11 -12  107.69    8.00
  -2 -11 -12   99.89   10.00
   2 -12 -12   15.40    3.50
   2 -12 -12   25.30    5.90
   1 -12 -12    3.40    3.20
   1 -12 -12    6.90    2.90
   0 -12 -12    4.60    3.30
   0 -12 -12    2.90    2.70
  -1 -12 -12   23.20    5.00
  -1 -12 -12   13.00    3.90
   0 -19  13    3.80    2.60
  -1 -18  13    5.30    2.20
  -1 -18  13   -0.30    2.00
   0  18 -13    9.10    3.40
   0 -18  13    6.70    2.80
   0 -18  13    6.90    2.40
  -1  18 -13   85.39    7.40
   1 -18  13   80.09    6.10
   1 -18  13   86.19    7.20
  -2  18 -13   46.50    5.90
   2 -18  13   45.40    5.80
   2 -18  13   55.39    6.00
   2  17 -13  133.39   10.70
  -2 -17  13  121.79    8.80
  -2 -17  13  116.79    7.40
   1  17 -13   17.60    4.50
  -1 -17  13   19.70    3.60
  -1 -17  13   14.40    3.40
   0  17 -13   15.20    4.00
   0 -17  13   12.50    2.90
   0 -17  13   12.30    3.20
  -1  17 -13   39.50    5.40
   1 -17  13   33.30    4.80
   1 -17  13   43.50    5.00
  -2  17 -13    8.90    2.90
   2 -17  13   12.20    3.10
   2 -17  13   17.50    4.00
   2  16 -13   44.80    7.10
  -2 -16  13   30.90    4.30
  -2 -16  13   34.20    4.80
   1  16 -13   13.70    4.00
  -1 -16  13   10.70    3.10
  -1 -16  13   10.10    2.70
   0  16 -13    1.00    2.10
   0 -16  13    1.10    2.00
   0 -16  13   -1.20    1.30
  -1  16 -13  105.69   12.10
   1 -16  13  127.39    7.40
   1 -16  13  130.69    8.30
  -2  16 -13   59.19    5.30
   2 -16  13   64.39    6.50
   2 -16  13   67.99    7.20
   3 -16  13   38.20    5.60
   3 -16  13   38.50    5.30
   3 -16  13   33.10    4.70
   3  15 -13    2.30    3.20
  -3 -15  13    0.80    2.20
  -3 -15  13    1.30    1.90
   2  15 -13    5.40    3.20
  -2 -15  13    2.60    1.90
  -2 -15  13    2.40    2.00
   1  15 -13   17.90    4.40
  -1 -15  13   16.70    3.60
  -1 -15  13   23.00    3.70
   0  15 -13    4.90    2.50
   0 -15  13    2.20    2.00
   0 -15  13    3.20    1.90
  -1  15 -13    0.30    1.70
   1 -15  13    1.30    1.90
   1 -15  13    2.50    1.80
  -2  15 -13    9.00    2.50
   2 -15  13    5.50    2.40
   2 -15  13    7.40    2.80
   3 -15  13   14.20    3.70
   3 -15  13   10.40    2.80
   3 -15  13    5.90    2.80
  -3 -14  13    1.40    2.10
  -3 -14  13    1.00    1.80
   2  14 -13    6.70    3.20
  -2 -14  13    8.40    2.60
  -2 -14  13    5.10    2.40
   1  14 -13   19.70    4.20
  -1 -14  13   15.80    3.10
  -1 -14  13   18.40    3.70
   0  14 -13   -1.10    1.40
   0 -14  13   -0.50    1.40
  -1  14 -13    2.50    2.00
   1 -14  13    4.40    2.30
   1 -14  13    3.80    1.90
  -2  14 -13   43.50    4.50
  -2  14 -13   33.10    5.50
   2 -14  13   59.79    6.20
  -3  14 -13   -1.60    2.10
   3 -14  13    2.00    2.10
   3 -14  13   -1.10    1.30
   3  13 -13    2.40    2.90
  -3 -13  13    2.30    1.90
  -3 -13  13    1.50    1.80
   2  13 -13   33.90    5.90
  -2 -13  13   49.90    5.40
  -2 -13  13   49.40    5.30
  -1 -13  13   63.99    7.10
  -1 -13  13   55.19    5.70
   0  13 -13   88.19    6.70
   0 -13  13   94.19    6.10
   0 -13  13  104.49    6.70
  -1  13 -13   19.00    3.30
  -1  13 -13   22.80    4.40
   1 -13  13   19.90    3.60
  -2  13 -13    0.30    1.20
  -2  13 -13    2.50    2.50
   2 -13  13    4.00    2.10
   2 -13  13    1.30    1.90
  -3  13 -13   69.99    7.60
   3 -13  13   62.99    6.70
  -4  13 -13   14.90    6.20
   4 -13  13    4.00    2.70
   4  12 -13    4.30    3.80
  -4 -12  13   -1.20    1.80
  -4 -12  13    1.50    2.00
   3  12 -13   39.60    6.80
  -3 -12  13   22.10    3.60
  -3 -12  13   31.90    4.80
   2  12 -13   10.50    3.70
  -2 -12  13    2.80    1.90
  -2 -12  13    4.60    2.10
   1  12 -13   35.00    5.40
  -1 -12  13   42.50    4.60
   0  12 -13    1.80    2.00
   0  12 -13    0.70    1.60
   0 -12  13    1.00    1.50
   0 -12  13    1.00    1.60
  -1  12 -13   47.90    4.20
  -1  12 -13   57.39    6.30
   1 -12  13   60.09    5.90
  -2  12 -13    0.10    1.10
  -2  12 -13    2.90    2.50
   2 -12  13    0.80    1.60
   2 -12  13   -1.20    2.30
  -3  12 -13   35.30    5.50
   3 -12  13   38.80    3.10
   3 -12  13   43.70    5.40
  -4  12 -13   23.60    4.90
   4 -12  13   22.20    4.40
   4  11 -13    3.70    4.00
  -4 -11  13   10.20    2.90
  -4 -11  13    6.10    2.90
   3  11 -13   60.19    7.90
  -3 -11  13   73.69    7.30
  -3 -11  13   68.79    5.10
   2  11 -13   97.39    8.10
  -2 -11  13   95.59    6.10
  -2 -11  13   99.09    6.50
   1  11 -13  115.89    7.90
  -1 -11  13  126.79    6.90
  -1 -11  13  116.09    6.70
   0  11 -13   76.79    6.20
   0  11 -13   76.89    5.70
   0 -11  13   69.99    5.20
  -1  11 -13   37.10    5.60
  -1  11 -13   36.00    3.90
   1 -11  13   37.60    4.30
   1 -11  13   32.40    4.10
  -2  11 -13    4.20    1.40
  -2  11 -13    5.20    2.70
   2 -11  13    3.20    1.60
   2 -11  13    3.50    2.00
  -3  11 -13    5.50    2.90
   3 -11  13   14.80    3.40
   3 -11  13    4.00    1.90
   3 -11  13    4.80    1.20
  -4  11 -13   56.89    7.20
   4 -11  13   62.59   10.20
  -4 -10  13    1.30    2.10
  -4 -10  13   -0.80    1.40
   3  10 -13    1.70    2.80
  -3 -10  13    2.40    1.70
  -3 -10  13    0.40    1.60
   2  10 -13  726.03   27.00
  -2 -10  13  723.93   21.20
  -2 -10  13  746.63   29.00
   1  10 -13   31.40    4.80
  -1 -10  13   29.10    4.10
  -1 -10  13   19.20    3.10
   0  10 -13    5.50    2.40
   0  10 -13    3.50    1.90
   0 -10  13    8.00    2.40
  -1  10 -13   10.40    2.10
  -1  10 -13    8.80    2.70
   1 -10  13    7.30    2.30
   1 -10  13    7.50    2.30
  -2  10 -13   15.10    3.50
   2 -10  13   27.30    4.00
   2 -10  13   30.20    3.10
  -3  10 -13   -0.40    1.80
   3 -10  13    1.00    1.70
  -4  10 -13    0.00    2.10
   4 -10  13    1.60    2.20
   4   9 -13   13.70    5.20
  -4  -9  13   12.00    3.40
  -4  -9  13   13.40    2.50
   3   9 -13   24.60    5.10
  -3  -9  13   16.70    3.40
  -3  -9  13   24.50    3.30
   2   9 -13   -2.70    1.80
  -2  -9  13    1.60    1.40
  -2  -9  13   -1.70    1.20
   1   9 -13   -1.00    1.60
   1   9 -13    1.90    2.10
  -1  -9  13    3.60    1.80
   0   9 -13  146.39    8.20
   0   9 -13  136.89    7.30
   0  -9  13  140.19    7.20
   0  -9  13  137.99    7.40
  -1   9 -13    7.40    2.50
  -1   9 -13    9.40    1.90
   1  -9  13    6.40    2.10
   1  -9  13    6.10    1.90
  -2   9 -13   -0.40    1.70
   2  -9  13    0.50    0.70
   2  -9  13    0.60    1.60
   2  -9  13    0.60    0.80
  -3   9 -13   81.69    6.90
   3  -9  13   81.59    6.40
  -4   9 -13    4.00    2.60
   4  -9  13    2.60    2.30
   4   8 -13   27.40    6.50
  -4  -8  13   28.90    3.20
  -4  -8  13   31.90    5.30
   3   8 -13    2.20    2.70
  -3  -8  13    0.30    1.70
  -3  -8  13   -0.70    1.10
   2   8 -13   53.49    6.80
  -2  -8  13   50.99    5.50
  -2  -8  13   56.39    4.20
   1   8 -13   39.30    4.90
   1   8 -13   28.90    4.20
  -1  -8  13   33.40    4.20
   0   8 -13  109.29    6.90
   0   8 -13   92.89    5.80
   0  -8  13   91.19    6.40
   0  -8  13  103.39    6.10
  -1   8 -13   27.50    2.80
  -1   8 -13   27.00    4.20
   1  -8  13   31.80    3.30
   1  -8  13   27.20    3.70
  -2   8 -13    0.50    1.80
   2  -8  13    0.60    1.50
  -3   8 -13    2.10    2.00
   3  -8  13    4.90    2.30
  -4   8 -13    0.40    2.10
   4  -8  13    3.40    2.30
   4   7 -13    0.40    3.50
  -4  -7  13    0.60    1.90
  -4  -7  13    2.70    1.40
   3   7 -13   -0.10    2.30
  -3  -7  13   -2.40    1.10
  -3  -7  13    1.30    1.30
   2   7 -13    0.30    2.10
  -2  -7  13   -1.30    0.90
  -2  -7  13    0.90    1.60
   1   7 -13   27.80    4.10
   1   7 -13   24.80    3.60
  -1  -7  13   30.00    3.90
   0   7 -13    2.60    1.60
   0   7 -13    2.90    1.90
   0  -7  13    1.70    1.40
   0  -7  13    1.80    1.40
  -1   7 -13   30.90    4.50
  -1   7 -13   38.50    2.70
   1  -7  13   31.40    3.10
   1  -7  13   44.30    4.90
  -2   7 -13   45.70    5.50
   2  -7  13   60.79    5.00
  -3   7 -13   32.50    5.20
   3  -7  13   16.00    3.20
  -4   7 -13   40.50    6.00
   4  -7  13   53.59    6.40
   4   6 -13    0.60    3.10
  -4  -6  13    0.50    1.00
  -4  -6  13    0.90    2.10
   3   6 -13    0.10    2.40
  -3  -6  13    1.10    1.80
  -3  -6  13    0.50    1.00
  -3  -6  13    0.90    1.40
   2   6 -13    1.40    1.40
   2   6 -13    0.40    2.00
  -2  -6  13   -0.40    1.20
  -2  -6  13    0.10    1.10
   1   6 -13   -0.70    1.50
   1   6 -13   -0.20    1.20
  -1  -6  13   -0.30    1.10
   0   6 -13  137.29    6.70
   0   6 -13  134.89    7.40
   0  -6  13  138.09    7.00
   0  -6  13  124.99    6.40
  -1   6 -13   51.99    2.80
  -1   6 -13   45.30    5.20
   1  -6  13   57.49    5.40
  -2   6 -13    2.90    2.10
   2  -6  13    5.00    2.10
  -3   6 -13   65.89    7.20
   3  -6  13   46.60    5.50
  -4   6 -13   20.90    4.30
   4  -6  13   15.00    3.60
   5   5 -13   10.80    4.90
  -5  -5  13   15.80    4.00
   4   5 -13    4.40    3.40
  -4  -5  13    2.70    1.00
  -4  -5  13    3.00    2.40
   3   5 -13    7.40    3.30
  -3  -5  13   12.10    2.90
   2   5 -13   59.99    4.40
   2   5 -13   55.79    6.50
  -2  -5  13   61.39    4.90
  -2  -5  13   48.80    3.90
   1   5 -13   23.80    3.80
   1   5 -13   22.00    3.40
  -1  -5  13   16.10    3.30
  -1  -5  13   21.70    3.30
   0   5 -13    3.40    1.60
   0   5 -13    1.70    1.50
   0  -5  13    1.60    1.30
   0  -5  13    0.20    1.10
  -1   5 -13  123.19    4.50
  -1   5 -13  127.29    7.50
   1  -5  13  142.09    7.10
   1  -5  13  135.69    4.70
  -2   5 -13   -0.60    1.40
   2  -5  13    1.10    1.40
  -3   5 -13   71.39    7.40
   3  -5  13   65.79    5.60
  -4   5 -13   -1.20    1.90
   4  -5  13   -0.40    1.60
   5  -5  13    6.20    3.00
   5   4 -13    0.30    3.70
  -5  -4  13   -0.10    2.20
   4   4 -13    1.60    3.00
  -4  -4  13    0.60    1.80
   3   4 -13    2.50    2.60
  -3  -4  13    1.50    1.70
  -3  -4  13    0.70    0.90
  -3  -4  13    0.20    1.10
   2   4 -13   85.29    6.80
   2   4 -13   80.39    5.00
  -2  -4  13   80.99    4.90
  -2  -4  13   94.99    6.00
   1   4 -13  141.89    7.80
   1   4 -13  143.39    7.20
  -1  -4  13  142.69    7.10
  -1  -4  13  149.09    7.60
   0   4 -13    0.00    1.30
   0   4 -13    0.60    1.20
   0  -4  13    1.60    1.10
   0  -4  13   -1.30    1.10
  -1   4 -13   84.49    3.20
  -1   4 -13   78.29    5.90
   1  -4  13   82.49    3.20
   1  -4  13   86.59    5.40
  -2   4 -13    5.40    2.40
   2  -4  13    1.80    1.40
  -3   4 -13   52.29    6.10
   3  -4  13   56.09    6.20
  -4   4 -13    3.80    2.70
   4  -4  13    6.60    2.70
  -5   4 -13   16.10    5.00
   5  -4  13   16.60    4.00
   5   3 -13   41.10    8.20
  -5  -3  13   22.00    4.80
   4   3 -13   14.10    4.60
  -4  -3  13    8.10    3.00
   3   3 -13    2.90    2.50
  -3  -3  13    2.20    1.20
  -3  -3  13    2.90    1.10
  -3  -3  13    1.30    1.80
   2   3 -13   74.79    6.40
   2   3 -13   64.69    4.40
  -2  -3  13   70.79    5.20
  -2  -3  13   67.69    4.30
   1   3 -13    0.00    1.40
   1   3 -13    0.60    1.30
  -1  -3  13    0.20    1.20
  -1  -3  13    0.30    1.10
  -1  -3  13   -0.30    1.20
   0   3 -13   32.80    3.50
   0   3 -13   25.70    3.60
   0  -3  13   33.30    3.00
   0  -3  13   42.30    4.20
  -1   3 -13  359.86   13.50
  -1   3 -13  338.87    8.60
  -1   3 -13  341.57    8.80
   1  -3  13  316.47   11.80
  -2   3 -13   15.10    3.40
   2  -3  13   13.20    2.70
  -3   3 -13   20.50    4.20
   3  -3  13   17.00    3.40
  -4   3 -13   53.19    6.80
   4  -3  13   53.89    6.00
   5   2 -13    7.70    4.40
  -5  -2  13    4.20    2.90
   4   2 -13   -1.50    2.60
  -4  -2  13   -1.00    1.50
   3   2 -13    0.70    2.30
  -3  -2  13    0.90    1.80
  -3  -2  13   -0.30    0.70
  -3  -2  13    0.90    1.00
   2   2 -13   62.29    7.00
   2   2 -13   53.69    4.20
  -2  -2  13   55.49    5.60
  -2  -2  13   46.30    4.70
   1   2 -13   47.90    5.20
   1   2 -13   50.09    4.20
  -1  -2  13   40.10    4.60
  -1  -2  13   59.49    4.40
  -1  -2  13   48.50    3.90
   0   2 -13   73.89    4.60
   0   2 -13   74.79    5.40
   0  -2  13   68.69    4.70
   0  -2  13   70.39    4.20
  -1   2 -13  330.77    8.50
  -1   2 -13  316.37    8.70
  -1   2 -13  338.37   13.10
   1  -2  13  339.27   11.90
  -2   2 -13   59.69    6.20
   2  -2  13   61.89    4.80
  -3   2 -13   22.20    4.20
   3  -2  13   14.80    3.10
  -4   2 -13   44.90    6.10
   4  -2  13   50.09    5.80
   5   1 -13    0.60    3.10
  -5  -1  13    0.40    2.30
   4   1 -13   11.80    4.30
  -4  -1  13    6.80    2.80
   3   1 -13    4.90    3.00
  -3  -1  13    8.40    2.70
  -3  -1  13    2.00    1.00
  -3  -1  13    4.60    1.10
   2   1 -13   24.80    4.60
  -2  -1  13   21.30    2.70
  -2  -1  13   25.90    3.80
   1   1 -13   40.20    5.00
   1   1 -13   32.60    3.90
  -1  -1  13   33.30    4.00
  -1  -1  13   38.90    3.90
  -1  -1  13   43.60    4.30
   0   1 -13   22.40    3.10
   0   1 -13   19.20    3.50
   0  -1  13   26.30    3.40
   0  -1  13   24.40    2.90
  -1   1 -13    3.10    1.00
  -1   1 -13    2.80    1.90
  -1   1 -13    5.40    1.00
   1  -1  13    3.40    1.70
  -2   1 -13    2.30    2.20
   2  -1  13    5.90    2.00
  -3   1 -13   24.30    4.20
   3  -1  13   30.40    4.30
  -4   1 -13    2.70    2.30
   4  -1  13   10.20    3.10
   5   0 -13   -2.50    3.20
  -5   0  13    1.00    2.50
   4   0 -13   -2.80    2.30
  -4   0  13    0.60    2.00
   3   0 -13   -2.40    1.70
  -3   0  13   -0.60    1.60
  -3   0  13    0.20    0.80
  -3   0  13    0.90    0.70
   2   0 -13    5.10    2.00
   2   0 -13    4.90    2.50
  -2   0  13    7.20    2.30
  -2   0  13    5.70    1.60
   1   0 -13    1.10    1.60
   1   0 -13    0.40    1.20
  -1   0  13    0.20    1.10
  -1   0  13   -0.70    1.20
   0   0 -13   37.30    4.10
   0   0 -13   31.00    4.00
   0   0 -13   32.90    2.90
   0   0  13   29.70    3.60
  -1   0 -13  109.29    4.60
  -1   0 -13  114.39    7.20
   1   0  13  104.29    5.90
  -2   0 -13   -0.80    1.50
   2   0  13    1.70    1.60
  -3   0 -13    1.00    1.80
   3   0  13   -0.70    1.30
  -4   0 -13   -2.30    1.80
   4   0  13   -0.50    1.60
   4  -1 -13   -0.30    2.60
  -4   1  13    1.30    2.10
   3  -1 -13    8.40    3.50
   3  -1 -13    3.80    1.10
  -3   1  13    4.70    1.20
  -3   1  13    5.30    2.30
   2  -1 -13    6.30    2.80
  -2   1  13    4.90    1.50
  -2   1  13    7.60    2.20
   1  -1 -13   29.60    4.30
   1  -1 -13   29.20    3.80
  -1   1  13   28.40    3.50
   0  -1 -13   86.49    5.40
   0  -1 -13   86.69    5.90
   0  -1 -13   84.19    4.80
   0   1  13   84.59    5.10
  -1  -1 -13   44.60    3.10
  -1  -1 -13   44.80    2.80
  -1  -1 -13   38.30    4.90
   1   1  13   45.40    3.80
  -2  -1 -13   -2.00    1.30
   2   1  13   -1.40    1.00
  -3  -1 -13   53.59    6.50
   3   1  13   48.40    7.90
  -4  -1 -13   -0.30    2.10
   4   1  13    1.70    2.00
   4  -2 -13   12.00    4.80
  -4   2  13    8.70    2.90
   3  -2 -13    8.70    1.40
   3  -2 -13    5.80    3.20
  -3   2  13   11.60    3.00
   2  -2 -13    6.40    1.80
   2  -2 -13    8.50    3.20
  -2   2  13    6.30    2.30
  -2   2  13    4.20    2.50
   1  -2 -13    9.40    2.80
   1  -2 -13    9.10    2.40
  -1   2  13    6.70    2.00
   0  -2 -13   11.20    2.70
   0  -2 -13   12.90    2.80
   0   2  13    7.30    2.00
  -1  -2 -13   31.70    2.90
  -1  -2 -13   38.50    5.00
  -1  -2 -13   31.60    2.70
   1   2  13   33.50    3.50
  -2  -2 -13   19.40    3.90
   2   2  13   17.60    3.00
  -3  -2 -13   37.10    5.40
  -4  -2 -13   10.80    3.60
   4   2  13    6.50    2.50
   4  -3 -13    0.30    2.90
  -4   3  13    3.80    2.40
   3  -3 -13    2.10    0.90
   3  -3 -13    1.40    2.90
  -3   3  13   -0.50    1.60
   2  -3 -13   -0.50    1.70
   2  -3 -13    1.20    1.20
  -2   3  13    0.70    1.20
  -2   3  13   -0.10    1.30
   1  -3 -13   -0.50    1.10
   1  -3 -13   -0.60    1.60
  -1   3  13   -0.30    1.20
   0  -3 -13   24.60    3.80
   0  -3 -13   21.30    3.10
   0  -3 -13   19.40    3.60
   0   3  13   22.30    3.20
  -1  -3 -13  114.39    5.50
  -1  -3 -13  120.39    5.90
  -1  -3 -13  131.69    7.90
   1   3  13  119.99    6.10
  -2  -3 -13   10.10    1.50
  -2  -3 -13   18.50    4.00
  -2  -3 -13   11.70    1.50
   2   3  13    8.20    2.20
  -3  -3 -13    2.50    2.40
   3   3  13    2.60    1.90
  -4  -3 -13   43.60    7.70
   4   3  13   38.10    4.80
   4  -4 -13   -2.00    2.80
  -4   4  13    1.80    2.20
   3  -4 -13    0.30    0.90
   3  -4 -13   -2.30    1.70
  -3   4  13    0.30    1.50
  -3   4  13    0.50    0.80
   2  -4 -13    9.20    2.10
   2  -4 -13    5.00    2.70
  -2   4  13    8.60    1.90
  -2   4  13   13.20    2.90
   1  -4 -13   38.80    5.30
   1  -4 -13   40.50    4.50
  -1   4  13   43.20    4.40
   0  -4 -13   -0.90    1.20
   0  -4 -13   -0.90    1.30
   0   4  13    0.90    1.20
  -1  -4 -13    4.80    1.80
  -1  -4 -13    4.00    1.80
   1   4  13    6.00    1.80
  -2  -4 -13   13.80    3.60
  -2  -4 -13   13.20    1.90
  -2  -4 -13   13.60    2.10
   2   4  13   15.80    2.70
  -3  -4 -13   34.80    5.40
   3   4  13   49.80    5.00
  -4  -4 -13   50.09    7.00
   4   4  13   37.80    4.80
   4  -5 -13    9.00    5.20
  -4   5  13    1.50    2.20
   3  -5 -13    2.60    1.10
   3  -5 -13    2.60    2.90
  -3   5  13    4.00    2.10
  -3   5  13    3.00    1.70
   2  -5 -13   54.99    4.20
   2  -5 -13   64.09    7.50
  -2   5  13   50.49    5.10
  -2   5  13   45.60    3.60
   1  -5 -13    1.80    1.60
   1  -5 -13   -1.00    1.60
  -1   5  13    0.00    1.20
   0  -5 -13  136.49    7.80
   0  -5 -13  123.49    7.60
   0   5  13  139.09    6.40
  -1  -5 -13    0.80    1.40
  -1  -5 -13    2.70    1.60
  -1  -5 -13    3.20    2.40
   1   5  13    2.10    1.30
  -2  -5 -13   11.80    2.40
  -2  -5 -13   22.80    2.90
  -2  -5 -13   20.40    4.20
   2   5  13   20.80    3.00
  -3  -5 -13   -1.30    1.80
   3   5  13   -0.30    1.30
   4  -6 -13   -1.90    2.70
  -4   6  13    1.30    2.20
   3  -6 -13    9.90    4.10
   3  -6 -13    8.20    1.60
  -3   6  13    7.50    2.60
   2  -6 -13   20.30    4.60
   2  -6 -13   24.50    3.40
  -2   6  13   22.50    3.60
   1  -6 -13    3.00    2.30
   1  -6 -13    6.50    2.40
  -1   6  13    5.50    1.90
   0  -6 -13   -0.10    1.50
   0  -6 -13   -1.10    1.50
   0   6  13    0.60    1.10
  -1  -6 -13    5.90    3.00
  -1  -6 -13    1.90    1.80
   1   6  13    2.60    1.40
  -2  -6 -13    1.40    2.10
   2   6  13    1.80    1.40
  -3  -6 -13    0.50    3.30
   3   6  13    2.50    1.70
   4  -7 -13    0.00    3.10
   3  -7 -13    0.40    1.20
   3  -7 -13    3.70    3.50
  -3   7  13    1.30    1.80
   2  -7 -13    7.20    3.50
   2  -7 -13    8.60    2.40
  -2   7  13    8.60    2.40
   1  -7 -13   27.20    6.40
   1  -7 -13   22.10    3.70
  -1   7  13   19.00    3.00
   0  -7 -13  130.49    8.10
   0  -7 -13  127.59    8.30
   0   7  13  140.59    6.30
  -1  -7 -13    2.40    2.10
  -1  -7 -13    1.20    1.70
   1   7  13    2.50    1.30
  -2  -7 -13   52.99    6.60
  -2  -7 -13   59.09    4.70
   2   7  13   56.79    4.00
  -3  -7 -13    6.20    3.20
   3   7  13    5.90    2.00
   3  -8 -13    1.60    2.90
  -3   8  13   -1.20    1.60
   2  -8 -13    1.90    2.70
   2  -8 -13    1.40    1.70
  -2   8  13    2.60    1.90
   1  -8 -13    1.20    1.90
   1  -8 -13    3.60    2.60
  -1   8  13    1.50    1.40
   0  -8 -13  156.58    9.00
   0  -8 -13  144.69    9.00
   0   8  13  144.89    6.40
  -1  -8 -13    2.60    2.20
  -1  -8 -13    0.00    1.90
   1   8  13   -0.40    0.90
  -2  -8 -13    0.10    1.60
  -2  -8 -13   -1.50    1.90
   2   8  13    0.50    1.10
  -3  -8 -13   -0.90    2.30
   3   8  13   -0.40    1.30
   3  -9 -13    0.20    3.10
  -3   9  13   -1.30    1.70
   2  -9 -13   28.10    4.10
   2  -9 -13   21.00    4.90
  -2   9  13   29.10    3.90
   1  -9 -13   60.59    6.20
   1  -9 -13   63.99    7.70
  -1   9  13   62.09    4.40
   0  -9 -13    0.00    2.10
   0  -9 -13    1.20    2.00
   0   9  13    0.90    1.20
  -1  -9 -13    2.50    2.40
  -1  -9 -13    1.40    2.00
  -2  -9 -13    1.50    2.60
  -2  -9 -13    3.50    2.40
   2   9  13    0.10    1.10
   2 -10 -13    1.00    3.00
   2 -10 -13   -0.70    1.70
  -2  10  13    0.20    1.70
   1 -10 -13    6.30    2.50
   1 -10 -13    2.00    3.10
  -1  10  13    8.20    2.00
   0 -10 -13   23.50    4.60
   0 -10 -13   42.70    6.00
   0  10  13   34.40    3.20
  -1 -10 -13   44.10    5.90
  -1 -10 -13   38.50    5.60
  -2 -10 -13    2.30    2.60
  -2 -10 -13   -0.60    3.50
   2 -11 -13   28.90    4.40
   2 -11 -13   36.40    6.60
  -2  11  13   34.40    4.10
   1 -11 -13    3.00    2.50
   1 -11 -13    2.30    3.30
   0 -11 -13   -1.70    2.10
   0 -11 -13    1.00    2.20
  -1 -11 -13    1.60    2.50
  -1 -11 -13    3.60    2.80
  -1 -18  14    2.00    2.50
   0  18 -14   56.39    6.90
   0 -18  14   46.50    5.40
   0 -18  14   40.50    5.70
  -1  18 -14    2.20    2.50
   1 -18  14    2.30    2.40
   1 -18  14    4.10    2.70
   1  17 -14    1.70    2.60
  -1 -17  14   -2.10    1.80
  -1 -17  14   -1.10    1.50
   0  17 -14   -1.70    2.00
   0 -17  14    2.50    2.00
  -1  17 -14    3.30    2.40
   1 -17  14    1.00    1.90
   1 -17  14    2.50    2.20
  -2  17 -14   27.60    4.50
   2 -17  14   30.70    4.70
   2 -17  14   35.80    5.60
  -2 -16  14    9.30    3.00
  -2 -16  14   10.50    2.90
   1  16 -14   50.29    6.80
  -1 -16  14   41.00    5.30
  -1 -16  14   34.40    4.70
   0  16 -14  104.19    8.00
   0 -16  14   97.99    7.30
   0 -16  14  100.29    6.80
  -1  16 -14    3.20    2.70
   1 -16  14    4.50    2.30
   1 -16  14   -0.60    1.70
  -2  16 -14    3.30    2.10
   2 -16  14    1.70    2.70
   2 -16  14    3.00    2.30
   2  15 -14    0.20    2.40
  -2 -15  14    2.90    2.10
  -2 -15  14    0.70    1.80
   1  15 -14    8.20    3.40
  -1 -15  14    8.50    2.60
  -1 -15  14    6.60    2.70
   0  15 -14    2.90    2.30
   0 -15  14    4.60    2.40
   0 -15  14    2.70    2.00
  -1  15 -14   15.50    3.30
   1 -15  14   13.80    3.50
   1 -15  14   22.30    3.80
  -2  15 -14   90.39    5.90
   2 -15  14   92.39    7.20
   2 -15  14   86.39    6.70
  -3  15 -14   37.50    6.10
   3 -15  14   47.40    6.00
   3  14 -14    2.20    3.40
  -3 -14  14    1.10    2.00
  -3 -14  14    1.60    2.30
   2  14 -14   18.50    4.40
  -2 -14  14   18.90    3.60
  -2 -14  14   19.20    3.70
   1  14 -14    1.30    2.20
  -1 -14  14   -0.50    1.80
  -1 -14  14   -0.70    1.60
   0  14 -14    3.20    2.40
   0 -14  14    5.30    2.30
   0 -14  14    7.40    2.70
  -1  14 -14   24.20    3.80
   1 -14  14   35.10    5.20
   1 -14  14   26.30    4.00
  -2  14 -14   -0.50    1.20
  -2  14 -14   -1.00    2.00
   2 -14  14    1.30    1.90
  -3  14 -14   90.49    9.20
   3 -14  14   96.19    7.40
   3  13 -14    3.60    3.60
  -3 -13  14    2.60    2.10
  -3 -13  14    6.70    2.50
   2  13 -14    6.80    3.20
  -2 -13  14    4.40    2.20
  -2 -13  14    0.20    1.60
   1  13 -14   24.60    4.50
  -1 -13  14   20.30    3.80
  -1 -13  14   24.10    3.80
   0  13 -14   -0.60    1.70
   0 -13  14    1.40    1.70
   0 -13  14    0.00    1.60
  -1  13 -14    6.00    2.80
  -1  13 -14    8.70    2.50
   1 -13  14    5.70    2.20
  -2  13 -14    0.60    1.20
  -2  13 -14   -1.50    1.90
   2 -13  14    1.20    1.70
  -3  13 -14   65.09    7.80
   3 -13  14   64.09    6.80
   3 -13  14   68.89    5.10
   3  12 -14   29.50    6.10
  -3 -12  14   22.70    3.80
  -3 -12  14   14.90    3.50
   2  12 -14   11.60    4.00
  -2 -12  14    9.70    2.60
  -2 -12  14   12.90    3.20
   1  12 -14  136.19    9.00
  -1 -12  14  148.89    7.90
  -1 -12  14  135.49    7.60
   0  12 -14   38.80    4.90
   0  12 -14   49.80    6.10
   0 -12  14   55.99    5.60
   0 -12  14   53.99    5.90
  -1  12 -14    7.30    2.90
  -1  12 -14    7.70    2.20
   1 -12  14    5.20    2.20
  -2  12 -14   35.30    3.00
  -2  12 -14   29.50    4.90
   2 -12  14   44.20    5.40
   2 -12  14   27.00    3.50
  -3  12 -14    0.30    2.10
   3 -12  14    0.50    1.70
  -4  12 -14   15.20    4.40
   4 -12  14   18.20    4.20
   4  11 -14   10.10    4.70
  -4 -11  14   11.30    3.70
  -4 -11  14    8.50    3.00
   3  11 -14   13.00    4.40
  -3 -11  14    9.40    3.30
   2  11 -14    2.80    2.70
  -2 -11  14   -0.60    1.60
  -2 -11  14    1.40    1.90
   1  11 -14   17.90    3.80
  -1 -11  14   30.10    6.30
  -1 -11  14   31.60    4.40
   0  11 -14    0.60    1.90
   0  11 -14    2.80    2.00
  -1  11 -14    5.60    2.70
  -1  11 -14    6.30    1.80
   1 -11  14    7.10    2.40
   1 -11  14    6.40    2.20
  -2  11 -14   28.80    5.20
   2 -11  14   51.19    6.00
   2 -11  14   33.60    3.40
  -3  11 -14   -0.20    2.10
   3 -11  14    1.90    1.80
  -4  11 -14   67.49    8.70
   4 -11  14   85.79    8.60
   4  10 -14    7.70    4.30
  -4 -10  14    3.70    2.00
  -4 -10  14   -0.30    3.70
   3  10 -14   26.80    5.70
  -3 -10  14   27.30    4.30
  -3 -10  14   24.90    3.60
   2  10 -14  121.59    9.10
  -2 -10  14  133.49    7.10
  -2 -10  14  131.39    7.70
   1  10 -14   56.39    6.30
   1  10 -14   42.70    5.20
  -1 -10  14   60.19    4.90
   0  10 -14    1.40    1.60
   0  10 -14    2.60    2.10
   0 -10  14    2.40    1.70
  -1  10 -14    2.70    2.20
  -1  10 -14    3.80    1.50
   1 -10  14    4.70    2.40
   1 -10  14    2.70    1.60
  -2  10 -14   60.39    6.90
   2 -10  14   51.09    2.90
   2 -10  14   50.09    3.10
   2 -10  14   64.09    5.40
  -3  10 -14   89.89    7.60
   3 -10  14   95.89    7.10
  -4  10 -14    5.70    3.20
   4 -10  14    8.50    3.00
   4   9 -14   -1.90    3.50
  -4  -9  14    0.50    2.40
  -4  -9  14   -0.60    1.30
   3   9 -14   49.90    7.40
  -3  -9  14   62.19    6.80
  -3  -9  14   47.80    4.60
   2   9 -14    3.60    2.90
  -2  -9  14    4.40    1.80
  -2  -9  14    2.00    2.00
   1   9 -14   24.00    4.10
   1   9 -14   27.40    4.50
  -1  -9  14   17.30    3.10
   0   9 -14   31.00    4.60
   0   9 -14   40.40    4.50
   0  -9  14   40.20    4.80
   0  -9  14   34.50    4.20
  -1   9 -14    5.10    1.50
   1  -9  14    4.20    2.10
   1  -9  14    3.70    1.50
  -2   9 -14   -0.30    1.50
   2  -9  14    0.60    1.60
  -3   9 -14    0.00    1.80
   3  -9  14    0.40    1.60
  -4   9 -14    1.30    2.20
   4  -9  14    1.90    3.60
   4   8 -14   -0.30    3.10
  -4  -8  14    6.40    1.90
  -4  -8  14    7.50    3.30
   3   8 -14   77.29    8.60
  -3  -8  14   77.49    4.90
  -3  -8  14   76.49    6.40
   2   8 -14   10.40    3.50
  -2  -8  14    3.40    1.60
  -2  -8  14    3.40    1.80
   1   8 -14   35.70    4.70
   1   8 -14   39.70    5.30
  -1  -8  14   38.90    4.70
   0   8 -14  103.69    7.00
   0   8 -14  109.59    6.20
   0  -8  14   91.19    5.80
   0  -8  14  104.59    6.30
  -1   8 -14   72.59    6.10
  -1   8 -14   89.79    4.30
   1  -8  14   82.69    4.50
   1  -8  14   87.29    5.90
  -2   8 -14   63.79    7.00
   2  -8  14   63.49    5.30
  -3   8 -14   36.30    5.50
   3  -8  14   54.59    6.20
  -4   8 -14    1.10    2.40
   4  -8  14    0.50    1.90
   4   7 -14    2.30    3.60
  -4  -7  14    4.80    1.60
  -4  -7  14   -1.60    1.90
   3   7 -14   -1.60    2.30
  -3  -7  14   -1.40    1.00
  -3  -7  14    1.10    1.80
   2   7 -14   48.30    6.30
  -2  -7  14   31.20    3.50
  -2  -7  14   33.00    4.30
   1   7 -14   38.40    4.80
   1   7 -14   32.00    4.50
  -1  -7  14   40.90    4.90
   0   7 -14  381.26   13.40
   0   7 -14  363.46   13.80
   0  -7  14  330.67   12.60
   0  -7  14  334.17   13.50
  -1   7 -14   13.50    3.10
  -1   7 -14   21.00    2.20
   1  -7  14   15.50    2.10
   1  -7  14   18.80    3.20
  -2   7 -14  173.58    9.70
   2  -7  14  158.78    8.50
  -3   7 -14   34.40    5.60
   3  -7  14   16.90    3.40
  -4   7 -14   22.10    4.70
   4  -7  14   23.20    4.50
   4   6 -14   -1.00    2.90
  -4  -6  14    0.30    1.00
  -4  -6  14    1.50    2.40
   3   6 -14   -0.50    2.50
  -3  -6  14    1.00    1.20
  -3  -6  14    0.60    1.60
  -3  -6  14   -0.40    1.30
   2   6 -14    1.90    2.30
   2   6 -14    0.20    1.50
  -2  -6  14    7.40    2.50
   1   6 -14    4.60    2.30
   1   6 -14    1.60    1.60
  -1  -6  14    3.30    1.70
   0   6 -14  126.69    7.40
   0   6 -14  121.29    6.40
   0  -6  14  118.19    6.70
   0  -6  14  113.79    6.10
  -1   6 -14    3.60    1.00
  -1   6 -14    4.30    2.20
   1  -6  14    4.20    1.90
  -2   6 -14    2.30    2.00
   2  -6  14    1.40    1.60
  -3   6 -14   15.30    3.70
   3  -6  14   10.40    2.90
  -4   6 -14    6.40    3.00
   4  -6  14    3.80    2.60
   4   5 -14    6.20    3.90
  -4  -5  14    8.70    1.40
  -4  -5  14    8.70    3.20
   3   5 -14    0.70    2.50
  -3  -5  14    3.50    1.40
  -3  -5  14    3.90    1.70
  -3  -5  14    3.70    2.10
   2   5 -14    2.40    1.60
   2   5 -14    4.10    2.80
  -2  -5  14    1.40    2.80
   1   5 -14  194.48    9.00
   1   5 -14  205.98    9.90
  -1  -5  14  207.98    9.10
   0   5 -14   33.70    4.40
   0   5 -14   28.90    3.50
   0  -5  14   34.60    4.30
   0  -5  14   34.60    3.80
  -1   5 -14  203.98    6.10
  -1   5 -14  207.48   10.10
   1  -5  14  193.68    6.10
   1  -5  14  198.78    9.00
  -2   5 -14   85.59    8.40
  -3   5 -14    1.50    2.00
   3  -5  14   -2.60    1.20
  -4   5 -14    0.30    2.20
   4  -5  14   -0.20    1.80
   4   4 -14    6.00    3.70
  -4  -4  14   -0.10    1.80
   3   4 -14   22.80    4.90
  -3  -4  14   20.20    3.90
  -3  -4  14   17.90    2.60
  -3  -4  14   23.30    2.50
   2   4 -14   16.80    2.80
   2   4 -14   20.80    4.30
  -2  -4  14   17.90    2.90
   1   4 -14   12.20    2.90
   1   4 -14   11.40    2.90
  -1  -4  14    8.40    2.30
   0   4 -14   41.00    3.70
   0   4 -14   39.80    4.70
   0  -4  14   40.90    3.40
   0  -4  14   42.60    4.60
  -1   4 -14   70.29    2.70
  -1   4 -14   73.39    2.90
  -1   4 -14   86.69    6.40
   1  -4  14   74.89    5.30
  -2   4 -14    0.90    1.80
   2  -4  14   -0.20    1.40
  -3   4 -14   38.20    5.90
   3  -4  14   32.20    4.70
  -4   4 -14   44.00    6.50
   4  -4  14   48.80    6.00
   4   3 -14    2.10    3.00
  -4  -3  14    0.70    1.80
   3   3 -14   10.70    3.80
  -3  -3  14   12.20    1.80
  -3  -3  14   10.40    2.00
  -3  -3  14    5.90    2.60
   2   3 -14   41.80    4.10
   2   3 -14   43.40    6.10
  -2  -3  14   38.00    3.90
  -2  -3  14   38.10    6.00
   1   3 -14   11.60    2.90
   1   3 -14   17.60    3.10
  -1  -3  14    8.80    2.40
   0   3 -14   33.30    3.70
   0   3 -14   32.10    4.30
   0  -3  14   40.10    4.50
   0  -3  14   39.10    3.30
  -1   3 -14  196.28    9.90
  -1   3 -14  207.08    5.80
  -1   3 -14  197.48    5.60
   1  -3  14  197.78    8.90
  -2   3 -14   13.50    3.50
   2  -3  14   15.50    3.20
  -3   3 -14    5.70    3.00
   3  -3  14    6.30    2.40
  -4   3 -14    4.70    2.80
   4  -3  14    9.00    3.00
   4   2 -14   19.10    5.10
  -4  -2  14   18.30    4.20
   3   2 -14    8.40    3.30
  -3  -2  14    9.40    1.60
  -3  -2  14    9.20    1.70
  -3  -2  14    9.40    2.90
   2   2 -14   32.00    3.50
   2   2 -14   30.00    4.90
  -2  -2  14   30.10    4.60
  -2  -2  14   20.90    2.80
   1   2 -14  131.09    7.60
   1   2 -14  112.59    6.50
  -1  -2  14  114.69    6.50
   0   2 -14    0.20    1.50
   0   2 -14   -0.30    1.20
   0  -2  14    0.30    1.20
   0  -2  14   -0.60    1.00
  -1   2 -14   94.69    3.60
  -1   2 -14   94.19    3.40
  -1   2 -14  100.79    6.90
   1  -2  14   95.99    5.80
  -2   2 -14   -0.20    1.50
   2  -2  14    0.60    1.40
  -3   2 -14  107.39    8.00
   3  -2  14  103.79    6.90
  -4   2 -14   12.60    3.70
   4  -2  14   19.50    4.10
   4   1 -14   -0.90    2.80
  -4  -1  14    0.90    2.10
   3   1 -14   -1.70    2.00
  -3  -1  14   -0.40    1.40
  -3  -1  14    1.40    0.90
  -3  -1  14    0.70    0.90
   2   1 -14   -0.40    1.80
   2   1 -14    0.30    1.20
  -2  -1  14    0.70    1.20
  -2  -1  14   -1.80    1.10
   1   1 -14   42.80    5.20
   1   1 -14   43.70    4.70
  -1  -1  14   51.29    5.30
   0   1 -14  307.27   12.20
   0   1 -14  314.37   11.20
   0   1 -14  286.27   10.00
   0  -1  14  321.97   11.60
   0  -1  14  306.27   10.50
  -1   1 -14  124.29    4.40
  -1   1 -14  136.39    8.00
  -1   1 -14  132.09    4.80
   1  -1  14  124.39    6.70
  -2   1 -14   30.50    4.90
   2  -1  14   25.40    3.70
  -3   1 -14   35.10    5.30
   3  -1  14   29.30    4.20
  -4   1 -14  116.29    9.00
   4  -1  14  123.69    8.20
   4   0 -14    3.30    3.30
  -4   0  14    3.50    2.60
   3   0 -14    3.00    1.20
   3   0 -14    3.00    2.70
  -3   0  14    2.30    2.20
  -3   0  14    2.30    1.00
   2   0 -14   36.20    5.40
   2   0 -14   39.20    4.10
  -2   0  14   38.20    3.70
  -2   0  14   44.10    5.10
   1   0 -14    1.40    1.80
   1   0 -14    0.30    1.40
  -1   0  14    2.60    1.50
   0   0 -14  150.48    8.10
   0   0 -14  137.09    6.40
   0   0 -14  156.18    7.40
   0   0  14  153.38    7.40
  -1   0 -14   24.80    2.30
  -1   0 -14   23.30    2.40
  -1   0 -14   24.90    4.30
   1   0  14   19.00    3.20
  -2   0 -14  124.19    8.30
   2   0  14  125.99    7.00
  -3   0 -14    5.90    2.80
   3   0  14    2.80    2.00
  -4   0 -14   15.30    4.30
   4   0  14   27.00    4.40
   4  -1 -14    1.90    3.10
  -4   1  14    0.10    2.00
   3  -1 -14   -0.10    0.90
   3  -1 -14    0.70    2.70
  -3   1  14   -0.10    0.80
  -3   1  14    1.60    2.00
   2  -1 -14   46.40    3.90
   2  -1 -14   56.99    6.90
  -2   1  14   48.40    3.60
  -2   1  14   43.90    4.90
   1  -1 -14   20.20    3.30
   1  -1 -14   14.60    3.40
  -1   1  14   16.50    2.90
   0  -1 -14    4.80    2.20
   0  -1 -14    8.80    2.70
   0   1  14   10.40    2.30
  -1  -1 -14  183.28    6.90
  -1  -1 -14  177.08    6.50
  -1  -1 -14  189.88    9.90
   1   1  14  190.28    8.30
  -2  -1 -14   42.00    5.90
   2   1  14   27.40    3.70
  -3  -1 -14   -0.90    1.70
   3   1  14   -0.60    1.30
  -4  -1 -14    5.30    3.00
   4   1  14    2.50    2.20
   4  -2 -14    7.90    4.30
  -4   2  14    8.00    3.00
   3  -2 -14    1.50    2.60
   3  -2 -14    2.20    1.10
  -3   2  14    2.00    0.90
  -3   2  14    6.30    2.40
   2  -2 -14   44.70    6.10
   2  -2 -14   50.39    4.10
  -2   2  14   47.40    3.70
  -2   2  14   62.19    5.10
   1  -2 -14    0.30    1.40
   1  -2 -14    0.20    1.60
  -1   2  14   -0.50    1.30
   0  -2 -14   86.89    5.80
   0  -2 -14   99.19    6.60
   0  -2 -14   87.29    5.30
   0   2  14   96.99    5.80
  -1  -2 -14   54.69    3.80
  -1  -2 -14   58.49    3.60
   1   2  14   61.39    4.50
  -2  -2 -14    2.10    2.00
   2   2  14    4.80    1.90
  -3  -2 -14    2.40    2.40
   3   2  14    7.10    2.40
  -4  -2 -14   21.60    5.10
   4   2  14   22.90    4.10
  -4   3  14    4.00    2.60
   3  -3 -14    6.40    1.50
   3  -3 -14    9.30    3.80
  -3   3  14    6.50    1.60
  -3   3  14    9.20    3.00
   2  -3 -14   22.60    3.20
  -2   3  14   22.30    3.90
  -2   3  14   22.90    3.00
   1  -3 -14    0.80    1.50
   1  -3 -14    1.10    1.90
  -1   3  14   -0.40    1.20
   0  -3 -14  104.79    6.20
   0  -3 -14  137.09    7.40
   0  -3 -14  119.89    7.50
   0   3  14  124.19    6.40
  -1  -3 -14   85.79    5.10
  -1  -3 -14  100.29    7.20
  -1  -3 -14   92.89    5.00
   1   3  14   90.29    5.50
  -2  -3 -14   11.00    3.20
   2   3  14   13.30    2.80
  -3  -3 -14   -0.60    1.90
   3   3  14   -0.10    1.50
  -4  -3 -14   30.80    5.90
   4   3  14   22.50    3.90
   4  -4 -14    6.90    4.00
  -4   4  14    0.10    2.20
   3  -4 -14    4.60    3.60
   3  -4 -14    1.90    1.10
  -3   4  14    4.20    2.30
   2  -4 -14    1.70    1.50
   2  -4 -14    1.40    2.20
  -2   4  14    2.60    2.00
   1  -4 -14    0.20    1.40
   1  -4 -14    2.50    2.30
  -1   4  14    0.60    1.30
   0  -4 -14    1.70    1.70
   0  -4 -14    2.50    1.90
   0   4  14    1.20    1.40
  -1  -4 -14    0.60    2.00
   1   4  14    0.60    1.20
  -2  -4 -14    2.60    1.40
  -2  -4 -14    9.10    3.40
  -2  -4 -14    3.70    1.30
   2   4  14    1.50    1.40
  -3  -4 -14    4.20    2.70
   3   4  14    2.30    1.80
   4  -5 -14    0.30    3.40
  -4   5  14    0.70    3.00
   3  -5 -14   25.80    5.60
   3  -5 -14   18.50    2.30
  -3   5  14   17.80    3.60
   2  -5 -14   10.60    4.00
   2  -5 -14    6.30    2.00
   1  -5 -14   40.00    5.80
   1  -5 -14   40.90    5.00
  -1   5  14   33.00    3.80
   0  -5 -14   16.80    3.50
   0   5  14   16.90    2.80
  -1  -5 -14    9.60    2.50
  -1  -5 -14    8.40    2.80
  -1  -5 -14   16.40    3.00
   1   5  14   11.90    2.30
  -2  -5 -14   27.50    3.10
  -2  -5 -14   25.80    4.90
   2   5  14   27.70    3.50
  -3  -5 -14    0.30    2.30
   3   5  14    0.20    1.60
   3  -6 -14    2.10    3.10
  -3   6  14    2.30    2.10
   2  -6 -14   -0.70    2.20
   2  -6 -14   -0.50    1.40
   1  -6 -14    0.20    1.70
   1  -6 -14    3.90    2.90
  -1   6  14    1.00    1.50
   0  -6 -14   99.99    7.10
   0  -6 -14   97.29    7.10
   0   6  14  105.39    5.70
  -1  -6 -14   -0.10    1.90
  -1  -6 -14   -1.10    1.40
   1   6  14   -0.10    1.10
  -2  -6 -14   -1.10    1.80
   2   6  14    1.40    1.30
  -3  -6 -14   40.70    6.70
   3   6  14   25.90    4.30
   3  -7 -14    3.30    3.60
  -3   7  14   11.20    3.10
   2  -7 -14    2.30    2.80
   2  -7 -14    2.40    1.80
   1  -7 -14    0.50    2.30
   1  -7 -14    0.80    2.00
  -1   7  14    2.70    1.70
   0  -7 -14    2.80    2.30
   0  -7 -14   10.70    3.20
   0   7  14    2.30    1.50
  -1  -7 -14    1.20    1.90
  -1  -7 -14    3.50    2.50
   1   7  14    2.00    1.40
  -2  -7 -14   -1.10    2.30
  -2  -7 -14    0.70    1.70
   2   7  14    1.20    1.30
   3  -8 -14    4.60    4.10
  -3   8  14    7.80    2.90
   2  -8 -14   -0.90    2.40
   2  -8 -14    2.30    2.00
   1  -8 -14    2.50    2.30
   1  -8 -14    3.00    2.70
  -1   8  14    3.50    1.70
   0  -8 -14    2.70    2.40
   0   8  14    2.20    1.50
  -1  -8 -14   -0.30    1.90
  -1  -8 -14   -1.30    1.70
   1   8  14   -0.90    1.00
  -2  -8 -14    1.60    2.50
  -2  -8 -14    0.70    1.80
   2   8  14    0.00    1.30
   2  -9 -14   29.20    4.30
   2  -9 -14   43.80    7.40
   1  -9 -14    3.70    2.40
   1  -9 -14    5.70    3.10
  -1   9  14    4.00    1.80
   0  -9 -14    5.50    2.80
   0  -9 -14    0.90    2.40
   0   9  14    1.30    1.30
  -1  -9 -14    9.80    3.40
   1   9  14    4.50    1.50
  -2  -9 -14    2.00    2.70
  -2  -9 -14    2.10    2.40
   2 -10 -14    6.20    3.60
   2 -10 -14    7.40    2.80
  -2  10  14   11.70    2.90
   1 -10 -14   -0.20    2.10
   1 -10 -14    2.00    2.70
  -1  10  14    1.80    1.60
   0 -10 -14    0.50    2.50
   0 -10 -14   -1.50    2.10
  -1 -10 -14   -1.00    2.20
  -1 -10 -14    1.40    2.40
   1  17 -15   40.10    6.60
  -1 -17  15   25.00    4.50
  -1 -17  15   34.70    4.90
   0  17 -15    0.20    2.40
   0 -17  15    0.60    1.70
   0 -17  15    1.20    2.10
  -1  17 -15    1.20    2.10
   1 -17  15   -0.40    1.70
   1 -17  15    1.90    2.60
   2  16 -15    5.10    3.60
  -2 -16  15    8.10    2.90
  -2 -16  15    2.60    2.70
   1  16 -15    1.20    2.70
  -1 -16  15    1.30    2.00
  -1 -16  15   -0.60    1.90
   0  16 -15   98.79    7.90
   0 -16  15  124.19    7.70
   0 -16  15  112.29    8.00
  -1  16 -15    8.60    3.00
   1 -16  15   11.50    3.10
   1 -16  15   15.00    5.40
  -2  16 -15    0.20    1.80
   2 -16  15   -1.70    1.50
   2 -16  15    0.60    2.10
   2  15 -15    8.90    3.90
  -2 -15  15    9.60    3.00
  -2 -15  15    9.70    3.00
   1  15 -15    4.30    2.90
  -1 -15  15    1.80    1.90
  -1 -15  15    8.50    3.10
   0  15 -15    2.60    2.20
   0 -15  15    0.50    1.80
   0 -15  15    0.10    1.80
  -1  15 -15   18.80    3.60
   1 -15  15   14.70    3.40
   1 -15  15   12.50    3.10
  -2  15 -15   63.69   13.30
  -2  15 -15   49.99    4.50
   2 -15  15   60.09    6.70
   2 -15  15   53.99   10.20
   2  14 -15   30.70    6.10
  -2 -14  15   30.20    4.70
  -2 -14  15   23.60    4.10
   1  14 -15   17.60    4.30
  -1 -14  15   13.00    3.20
  -1 -14  15   14.00    3.50
   0  14 -15    8.40    3.00
   0 -14  15   16.50    3.30
   0 -14  15   12.60    3.10
  -1  14 -15    6.40    3.10
  -1  14 -15    3.40    2.00
   1 -14  15    1.60    1.80
   1 -14  15    1.30    1.80
  -2  14 -15   11.50    3.80
  -2  14 -15    5.20    1.90
   2 -14  15   10.60    3.20
  -3  14 -15  141.29   10.20
   3 -14  15  127.39    8.70
   3  13 -15    1.10    2.80
  -3 -13  15    1.50    1.90
  -3 -13  15    3.00    2.20
   2  13 -15   25.60    5.40
  -2 -13  15   18.40    3.60
  -2 -13  15   15.40    3.50
   1  13 -15    0.60    2.20
  -1 -13  15   -0.20    1.50
  -1 -13  15   -0.70    1.40
   0  13 -15    0.20    1.90
   0 -13  15   -0.10    1.50
   0 -13  15    1.00    1.70
  -1  13 -15   -0.40    2.00
  -1  13 -15    0.70    1.50
   1 -13  15    0.60    1.60
  -2  13 -15   31.10    5.50
   2 -13  15   22.20    3.90
   3  12 -15   21.00    5.60
  -3 -12  15   18.80    3.60
  -3 -12  15   11.00    3.30
   2  12 -15   13.80    4.10
  -2 -12  15   13.20    3.10
  -2 -12  15   12.80    3.30
   1  12 -15    2.20    3.90
  -1 -12  15    6.00    2.30
  -1 -12  15    3.80    2.10
   0  12 -15   32.80    4.60
   0  12 -15   28.80    5.10
   0 -12  15   32.80    4.60
  -1  12 -15    7.00    2.10
  -1  12 -15    3.30    2.50
   1 -12  15    5.20    2.10
  -2  12 -15    8.10    3.30
   2 -12  15    9.60    2.70
  -3  12 -15    3.50    2.80
   3 -12  15    3.20    2.20
   3  11 -15    1.00    3.20
  -3 -11  15   -2.40    1.30
  -3 -11  15   -1.70    1.70
   2  11 -15   15.70    4.30
  -2 -11  15   13.30    3.10
  -2 -11  15   18.80    3.60
   1  11 -15   20.00    4.20
  -1 -11  15   34.90    4.60
  -1 -11  15   16.70    3.20
   0  11 -15   22.10    4.40
   0  11 -15   17.20    3.40
   0 -11  15   20.10    3.60
  -1  11 -15   84.89    5.10
  -1  11 -15   99.29    7.60
   1 -11  15   78.99    5.50
   1 -11  15  101.99    6.70
  -2  11 -15   11.40    3.60
   2 -11  15    1.00    1.90
   2 -11  15    6.20    1.40
   2 -11  15    6.00    1.70
  -3  11 -15   69.49    7.90
   3 -11  15   84.19    6.80
  -4  11 -15   18.90    5.00
  -4 -10  15    2.90    1.80
   3  10 -15   15.10    4.60
  -3 -10  15   17.40    3.00
  -3 -10  15   16.70    3.60
   2  10 -15    0.00    2.30
  -2 -10  15   -1.10    1.30
  -2 -10  15    2.00    1.90
   1  10 -15   -1.40    1.70
  -1 -10  15   -0.10    1.30
   0  10 -15   42.80    5.50
   0  10 -15   49.50    5.20
   0 -10  15   65.99    6.40
  -1  10 -15    2.70    1.40
  -1  10 -15    1.90    2.10
   1 -10  15    1.10    1.70
   1 -10  15   -0.90    1.20
  -2  10 -15   71.49    7.70
   2 -10  15   68.89    5.80
  -3  10 -15    1.70    2.40
   3 -10  15   -1.40    1.50
  -4  10 -15    1.60    2.60
   4 -10  15    0.30    2.10
   4   9 -15    7.90    4.30
  -4  -9  15   10.70    3.60
  -4  -9  15    8.60    2.20
   3   9 -15  125.39   10.20
  -3  -9  15  129.79    8.40
  -3  -9  15  115.39    6.40
   2   9 -15   43.90    6.20
  -2  -9  15   51.39    5.80
  -2  -9  15   53.69    4.50
   1   9 -15  157.98    9.10
   1   9 -15  148.99    8.60
  -1  -9  15  156.58    8.30
   0   9 -15   10.50    2.50
   0  -9  15    1.50    1.70
   0  -9  15    9.40    2.60
  -1   9 -15   27.60    2.90
  -1   9 -15   29.20    4.80
   1  -9  15   32.20    3.50
   1  -9  15   36.70    4.70
  -2   9 -15    1.90    1.90
   2  -9  15    1.30    1.70
  -3   9 -15    2.10    2.20
   3  -9  15   -1.10    1.40
  -4   9 -15    2.90    3.30
   4  -9  15    2.20    2.40
   4   8 -15    1.10    3.60
  -4  -8  15    0.60    1.30
  -4  -8  15    3.40    2.70
   3   8 -15  154.18   11.00
  -3  -8  15  145.49    7.00
  -3  -8  15  152.58    9.10
  -2  -8  15    1.70    1.40
  -2  -8  15    4.20    1.90
   1   8 -15    0.80    1.70
   1   8 -15    3.60    2.40
  -1  -8  15    3.20    1.80
   0   8 -15  170.08    8.10
   0   8 -15  171.18    9.30
   0  -8  15  165.58    8.20
   0  -8  15  183.48    9.40
  -1   8 -15   15.80    2.10
  -1   8 -15   12.50    3.20
   1  -8  15   15.10    2.20
   1  -8  15   13.30    2.90
  -2   8 -15   98.99    7.60
   2  -8  15  101.39    6.90
  -3   8 -15    5.10    2.70
   3  -8  15    7.00    2.90
   4  -8  15   66.39    7.30
   4   7 -15    7.90    4.90
  -4  -7  15    7.30    1.80
  -4  -7  15    7.70    3.40
   3   7 -15    5.70    3.50
  -3  -7  15    8.90    2.20
  -3  -7  15    9.40    3.00
   2   7 -15   48.50    5.20
   2   7 -15   45.80    6.20
  -2  -7  15   48.90    4.10
  -2  -7  15   51.29    5.40
   1   7 -15   -1.30    1.30
   1   7 -15    2.10    2.00
  -1  -7  15   -1.60    1.10
   0   7 -15   50.19    4.30
   0   7 -15   47.50    5.80
   0  -7  15   44.90    4.70
  -1   7 -15   16.60    1.90
  -1   7 -15    7.90    2.90
   1  -7  15   10.80    1.70
   1  -7  15    5.20    2.00
  -2   7 -15   -0.70    1.60
   2  -7  15   -0.30    1.40
  -3   7 -15   18.80    4.20
   3  -7  15   20.80    4.10
  -4   7 -15   -1.40    2.00
   4  -7  15   -0.10    1.90
  -4  -6  15    6.50    2.90
   3   6 -15   -1.20    2.40
  -3  -6  15    1.50    2.00
  -3  -6  15    3.20    1.50
   2   6 -15    8.40    2.30
   2   6 -15   12.40    3.80
  -2  -6  15   11.70    3.00
   1   6 -15   68.79    5.50
   1   6 -15   69.09    5.90
  -1  -6  15   78.19    6.40
   0   6 -15   39.30    4.40
   0   6 -15   35.10    4.80
   0  -6  15   33.50    3.90
   0  -6  15   37.30    4.50
  -1   6 -15    0.30    0.70
   1  -6  15   -1.40    1.20
  -2   6 -15   -1.20    1.40
   2  -6  15    3.10    2.10
  -3   6 -15   23.20    4.60
   3  -6  15   29.50    4.80
  -4   6 -15   14.70    4.50
   4  -6  15   17.60    4.50
   4   5 -15   -2.20    3.00
   3   5 -15   10.20    3.80
  -3  -5  15   13.20    3.20
  -3  -5  15   10.80    2.30
  -3  -5  15   13.20    2.20
   2   5 -15    0.30    2.10
   2   5 -15    0.20    1.40
  -2  -5  15    2.40    1.80
   1   5 -15   46.40    5.20
   1   5 -15   46.20    5.50
   0   5 -15   88.59    5.40
   0   5 -15   94.69    6.60
   0  -5  15   84.49    5.10
   0  -5  15   92.79    6.00
  -1   5 -15   45.80    5.70
  -1   5 -15   44.40    2.10
  -1   5 -15   45.80    2.30
   1  -5  15   44.80    2.30
   1  -5  15   49.10    7.20
  -2   5 -15   20.00    4.10
   2  -5  15   17.40    3.30
  -3   5 -15    1.40    2.10
   3  -5  15   -0.50    1.40
  -4   5 -15   70.19    8.40
   4   4 -15   10.10    4.40
   3   4 -15    6.00    3.30
  -3  -4  15    8.80    2.90
  -3  -4  15    5.80    1.90
  -3  -4  15    7.50    1.70
   2   4 -15    1.20    2.30
   2   4 -15   -0.90    1.10
  -2  -4  15    2.60    2.00
   1   4 -15   24.30    3.70
   1   4 -15   18.80    3.60
  -1  -4  15   22.80    3.60
   0   4 -15    3.60    1.80
   0   4 -15    2.60    1.80
   0  -4  15    2.40    1.50
   0  -4  15    5.90    2.00
  -1   4 -15   12.30    1.10
  -1   4 -15   12.80    3.40
  -1   4 -15   11.00    1.30
   1  -4  15   14.90    3.00
  -2   4 -15    7.60    3.00
   2  -4  15    6.50    2.30
  -3   4 -15   -0.50    1.90
   3  -4  15    0.30    1.50
  -4   4 -15    0.00    3.80
   4  -4  15    2.00    3.10
   4   3 -15   -0.40    3.10
   3   3 -15   12.20    3.80
  -3  -3  15   17.10    4.00
  -3  -3  15   17.80    2.50
  -3  -3  15   13.90    3.10
   2   3 -15   42.90    6.00
   2   3 -15   36.10    4.10
  -2  -3  15   43.50    5.30
   1   3 -15    1.10    1.70
   1   3 -15    0.20    1.80
  -1  -3  15    1.30    1.50
   0   3 -15   32.40    4.50
   0   3 -15   37.30    4.10
   0  -3  15   35.60    3.80
   0  -3  15   31.40    4.00
  -1   3 -15    3.80    1.10
  -1   3 -15    3.80    2.20
  -1   3 -15    4.30    0.80
   1  -3  15    7.00    2.10
  -2   3 -15   29.00    4.90
   2  -3  15   24.10    3.70
  -3   3 -15   -0.90    1.90
   3  -3  15    1.00    1.80
   4  -3  15   58.99    6.80
   4   2 -15    0.60    3.20
   3   2 -15   44.20    6.60
  -3  -2  15   79.89    7.70
  -3  -2  15   57.39    3.60
  -3  -2  15   56.39    3.30
   2   2 -15    2.20    2.30
   2   2 -15    1.20    1.30
  -2  -2  15    2.70    1.70
   1   2 -15    5.00    2.00
   1   2 -15    4.50    2.20
  -1  -2  15    6.40    2.30
   0   2 -15    0.20    1.60
   0   2 -15   -0.30    1.20
   0  -2  15   -0.90    1.00
   0  -2  15    0.80    1.40
  -1   2 -15    7.60    3.20
  -1   2 -15    8.30    1.30
  -1   2 -15    8.70    1.10
   1  -2  15    9.50    2.50
  -2   2 -15    0.80    1.80
   2  -2  15    1.00    1.50
  -3   2 -15  116.79    8.60
   3  -2  15   98.79    6.90
  -4   2 -15   24.10    5.10
   4  -2  15   28.70    4.90
   4   1 -15    0.50    3.40
   3   1 -15    9.90    3.80
  -3  -1  15    5.20    1.50
  -3  -1  15    8.10    2.80
  -3  -1  15   10.30    1.70
   2   1 -15    5.80    2.10
   2   1 -15    9.40    3.40
  -2  -1  15    8.80    2.70
   1   1 -15   25.00    3.70
   1   1 -15   22.50    4.00
  -1  -1  15   34.20    4.30
   0   1 -15  158.98    8.70
   0   1 -15  162.78    7.70
   0   1 -15  163.18    7.00
   0  -1  15  168.58    8.10
  -1   1 -15   27.30    2.10
  -1   1 -15   25.00    1.80
   1  -1  15   25.40    3.60
  -2   1 -15   10.50    3.30
   2  -1  15   18.20    3.50
  -3   1 -15    2.10    2.50
   3  -1  15   10.30    2.90
  -4   1 -15    5.80    3.20
   4  -1  15   10.50    3.20
   3   0 -15    0.00    1.10
   3   0 -15   -0.60    2.30
  -3   0  15    3.30    2.20
   2   0 -15   15.00    2.70
   2   0 -15   23.60    4.90
  -2   0  15   16.70    3.40
   1   0 -15   -1.90    1.30
   1   0 -15   -1.20    1.20
  -1   0  15    3.10    1.70
   0   0 -15  174.68    8.20
   0   0 -15  186.58    9.40
   0   0 -15  164.68   10.00
   0   0  15  194.68    8.70
  -1   0 -15    6.70    1.40
  -1   0 -15    6.60    2.50
  -1   0 -15    6.10    1.30
   1   0  15    7.50    2.30
  -2   0 -15    9.60    3.20
   2   0  15    6.50    2.20
  -3   0 -15   26.80    5.00
   3   0  15   23.50    4.00
  -4   0 -15   57.89    7.40
   4   0  15   58.89    6.60
   4  -1 -15    0.00    3.60
  -4   1  15    0.50    2.90
   3  -1 -15    8.00    1.70
   3  -1 -15    4.60    3.20
  -3   1  15    9.30    2.80
   2  -1 -15   -0.20    1.30
   2  -1 -15   -1.20    2.00
  -2   1  15    5.60    2.50
   1  -1 -15   11.80    2.70
   1  -1 -15    7.90    2.90
  -1   1  15    8.40    2.30
   0  -1 -15   18.60    3.20
   0  -1 -15   14.20    3.00
   0  -1 -15   20.40    3.00
   0   1  15   19.70    3.20
  -1  -1 -15    0.40    0.90
  -1  -1 -15   -0.10    1.80
  -1  -1 -15    1.70    1.20
   1   1  15    0.40    1.30
  -2  -1 -15   -0.10    2.00
   2   1  15    0.70    1.70
  -3  -1 -15    1.80    2.50
   3   1  15    1.90    1.90
  -4  -1 -15    5.30    3.20
   4   1  15    5.60    2.80
   4  -2 -15    1.70    3.40
  -4   2  15    4.50    2.50
   3  -2 -15    6.70    1.60
   3  -2 -15   15.90    4.90
  -3   2  15    8.70    3.00
   2  -2 -15    9.70    3.40
   2  -2 -15   13.30    2.70
  -2   2  15   11.00    2.90
   1  -2 -15    3.90    2.10
   1  -2 -15   13.60    3.60
  -1   2  15    8.00    2.50
   0  -2 -15    0.20    1.50
   0  -2 -15    0.20    1.30
   0  -2 -15    1.00    1.80
   0   2  15    1.20    1.50
  -1  -2 -15    2.20    1.30
  -1  -2 -15    5.50    2.60
  -1  -2 -15    2.30    1.30
   1   2  15    4.30    1.90
  -2  -2 -15   -0.20    2.00
   2   2  15    1.40    2.70
  -3  -2 -15   13.50    3.90
   3   2  15   11.10    2.90
   4  -3 -15    3.80    4.10
  -4   3  15    0.90    2.50
   3  -3 -15    3.20    1.40
   3  -3 -15    4.30    3.20
  -3   3  15    5.10    2.50
   2  -3 -15   22.20    4.70
   2  -3 -15   27.10    3.70
  -2   3  15   29.30    4.40
   1  -3 -15    0.60    1.70
   1  -3 -15   -0.20    1.40
  -1   3  15    1.20    1.50
   0  -3 -15   29.00    4.00
   0   3  15   30.00    3.90
  -1  -3 -15   35.20    5.40
  -1  -3 -15   23.80    3.10
  -1  -3 -15   22.00    3.10
   1   3  15   27.10    3.50
  -2  -3 -15   86.19    8.60
  -3  -3 -15    5.00    3.70
   3   3  15   -0.30    1.60
   3  -4 -15   -0.60    2.80
   3  -4 -15    0.50    1.40
  -3   4  15   -0.50    2.00
   2  -4 -15    0.30    1.50
   2  -4 -15    1.00    2.60
  -2   4  15    5.10    2.20
   1  -4 -15   15.60    3.80
   1  -4 -15   20.20    3.80
  -1   4  15   17.80    3.10
   0  -4 -15    5.60    2.30
   0  -4 -15    8.80    3.00
   0   4  15    4.20    1.70
  -1  -4 -15    2.70    1.70
  -1  -4 -15    3.20    1.70
  -1  -4 -15    3.00    2.40
   1   4  15    2.00    1.60
  -2  -4 -15    5.60    3.00
  -2  -4 -15    7.00    1.30
   2   4  15    2.20    1.80
  -3  -4 -15   15.30    4.40
   3   4  15   19.00    3.60
   3  -5 -15    1.20    2.90
  -3   5  15    0.50    2.00
   2  -5 -15   -0.80    1.30
   2  -5 -15    1.50    2.50
  -2   5  15    2.10    1.80
   1  -5 -15    1.60    2.60
   1  -5 -15    1.90    2.00
  -1   5  15   -0.30    1.30
   0  -5 -15    0.40    2.00
   0  -5 -15    0.40    1.80
   0   5  15    3.70    1.70
  -1  -5 -15   20.70    4.50
  -1  -5 -15   26.00    3.90
   1   5  15   26.10    3.50
  -2  -5 -15   28.70    2.90
  -2  -5 -15   33.00    5.50
   2   5  15   32.70    4.10
  -3  -5 -15   62.69    7.70
   3   5  15   89.69    6.10
  -3   6  15    0.40    1.90
   2  -6 -15    2.60    2.10
   2  -6 -15    1.80    2.60
  -2   6  15    4.90    2.30
   1  -6 -15   36.70    6.00
   1  -6 -15   29.90    4.80
  -1   6  15   27.10    3.70
   0  -6 -15   32.00    4.90
   0  -6 -15   30.40    4.90
   0   6  15   25.90    3.50
  -1  -6 -15   19.90    3.50
  -1  -6 -15   23.60    4.50
   1   6  15   24.00    3.30
  -2  -6 -15    9.90    2.60
   2   6  15    6.70    2.00
   3  -7 -15    4.00    3.40
   2  -7 -15    3.20    2.10
   2  -7 -15    2.50    2.90
  -2   7  15    3.00    2.00
   1  -7 -15    7.40    2.80
   1  -7 -15    4.40    3.00
  -1   7  15    3.90    2.00
   0  -7 -15    2.60    2.30
   0  -7 -15    3.00    2.50
   0   7  15    4.70    1.90
  -1  -7 -15    6.90    3.30
  -1  -7 -15    7.30    2.70
   1   7  15    6.20    1.90
  -2  -7 -15    1.70    2.60
   2   7  15    2.80    1.70
   2  -8 -15    1.80    2.30
   2  -8 -15    5.80    3.70
  -2   8  15    5.20    2.50
   1  -8 -15    2.20    2.50
   1  -8 -15   -1.40    2.20
  -1   8  15    5.00    2.20
   0  -8 -15    6.10    3.00
   0  -8 -15    5.30    2.80
   0   8  15    1.40    1.50
  -1  -8 -15    0.50    2.00
   1   8  15    3.10    1.50
   1  -9 -15   20.90    4.90
   1  -9 -15   21.60    4.40
  -1   9  15   25.40    3.40
   0  -9 -15    5.10    3.00
   0  -9 -15    6.00    3.00
   0   9  15    6.30    1.90
  -1  -9 -15    4.10    2.80
  -1  -9 -15    2.00    2.70
   0  17 -16   12.50    3.80
   0 -17  16   15.70    3.70
   0 -17  16   13.30    3.80
   1  16 -16   10.00    3.80
  -1 -16  16   14.80    3.70
  -1 -16  16    6.90    2.80
   0  16 -16   46.90    6.20
   0 -16  16   44.90    5.70
   0 -16  16   49.40    6.30
  -1  16 -16  136.39    8.30
   1 -16  16  120.09    8.50
   1 -16  16  114.39    7.90
  -2 -15  16    1.30    2.30
  -2 -15  16    0.00    2.00
   1  15 -16    0.70    2.60
  -1 -15  16    0.20    1.90
  -1 -15  16   -1.20    1.80
   0  15 -16   -2.30    1.70
   0 -15  16    1.00    1.90
   0 -15  16    0.90    1.90
  -1  15 -16    2.10    2.00
   1 -15  16   -1.10    1.60
  -2  15 -16   -0.50    2.50
  -2  15 -16    0.00    1.40
   2 -15  16   -1.30    3.60
   2 -15  16    0.50    2.10
   2  14 -16    2.20    2.80
  -2 -14  16    4.60    2.70
  -2 -14  16    2.80    2.30
   1  14 -16   21.30    4.50
  -1 -14  16   14.00    3.40
  -1 -14  16   14.10    3.40
   0 -14  16   16.30    3.40
   0 -14  16   13.70    3.30
  -1  14 -16   15.50    4.10
  -1  14 -16   19.00    3.40
   1 -14  16   21.10    3.90
   1 -14  16   15.40    3.60
  -2  14 -16   -0.40    2.50
   2 -14  16    1.00    2.00
   2  13 -16   26.00    5.30
  -2 -13  16   34.10    5.10
  -2 -13  16   28.20    4.30
   1  13 -16   14.70    3.90
  -1 -13  16   22.60    4.20
  -1 -13  16   15.80    3.50
   0  13 -16   10.30    3.10
   0  13 -16    7.80    3.30
   0 -13  16    7.30    2.60
   0 -13  16    7.20    2.70
  -1  13 -16   28.60    3.80
  -1  13 -16   25.20    4.80
   1 -13  16   20.90    3.90
  -2  13 -16  176.98   11.30
   2 -13  16  193.08   10.20
   2 -13  16  170.48    7.30
  -3  13 -16    1.00    2.80
   3 -13  16   -0.70    1.90
   3  12 -16   11.70    4.60
  -3 -12  16    9.20    2.60
  -3 -12  16   13.00    3.80
   2  12 -16    4.40    3.10
  -2 -12  16    4.10    2.50
  -2 -12  16    1.60    1.90
   1  12 -16    9.60    3.40
  -1 -12  16   10.10    2.90
  -1 -12  16    8.60    2.70
   0  12 -16   -0.60    2.00
   0  12 -16    1.20    2.00
   0 -12  16   -0.40    1.50
  -1  12 -16    1.90    2.30
  -1  12 -16    1.60    1.60
   1 -12  16    0.30    1.70
  -2  12 -16    2.90    2.50
   2 -12  16    1.30    1.10
   2 -12  16   -1.10    1.60
  -3  12 -16   23.40    5.00
   3 -12  16   24.00    4.50
   3  11 -16    2.80    3.60
  -3 -11  16   12.60    3.10
   2  11 -16    5.70    3.30
  -2 -11  16    0.70    1.80
  -2 -11  16    2.60    1.90
   1  11 -16   -0.50    2.00
  -1 -11  16    2.10    1.80
  -1 -11  16    0.30    1.70
   0  11 -16    3.00    2.50
   0  11 -16    4.90    2.20
   0 -11  16    2.70    2.30
  -1  11 -16   29.70    5.10
  -1  11 -16   30.80    3.60
   1 -11  16   25.60    3.70
   1 -11  16   29.70    4.50
  -2  11 -16    1.90    2.30
   2 -11  16    0.00    1.70
   2 -11  16    1.30    0.80
   3 -11  16   51.79    8.30
   3  10 -16  176.28   12.30
  -3 -10  16  183.88   10.40
  -3 -10  16  175.18    8.50
   2  10 -16   59.39    7.30
  -2 -10  16   46.20    5.50
  -2 -10  16   55.19    5.40
   1  10 -16    1.70    2.30
   1  10 -16   -2.60    1.50
  -1 -10  16    1.50    1.90
   0  10 -16   11.40    3.40
   0  10 -16    9.20    2.60
   0 -10  16   11.80    2.90
  -1  10 -16    1.90    1.30
  -1  10 -16    0.30    1.90
   1 -10  16    9.90    2.80
   1 -10  16    1.60    1.60
  -2  10 -16    5.80    2.70
   2 -10  16   12.80    3.10
  -3  10 -16   -1.60    2.00
   3 -10  16    0.40    2.10
   3   9 -16    1.50    3.30
  -3  -9  16    0.00    1.50
  -3  -9  16    2.60    2.40
   2   9 -16    7.30    3.40
  -2  -9  16    5.10    2.10
  -2  -9  16    8.90    3.00
   1   9 -16   21.00    4.10
   1   9 -16   19.50    4.00
  -1  -9  16   23.90    4.10
   0   9 -16   12.30    2.80
   0   9 -16    7.60    2.90
   0  -9  16   18.90    3.50
  -1   9 -16    2.90    2.20
  -1   9 -16    4.30    1.30
   1  -9  16    4.10    1.60
   1  -9  16    1.80    1.90
  -2   9 -16   43.80    6.10
   2  -9  16   29.40    4.50
  -3   9 -16   30.90    5.40
   3  -9  16   44.70    5.80
   3   8 -16   38.40    6.60
  -3  -8  16   58.59    4.50
  -3  -8  16   44.80    5.70
   2   8 -16    5.20    3.20
  -2  -8  16    7.70    2.30
  -2  -8  16    3.50    2.20
   1   8 -16    2.00    2.20
   1   8 -16    8.70    2.90
  -1  -8  16    3.20    1.90
   0   8 -16   36.20    4.30
   0   8 -16   27.30    4.50
   0  -8  16   23.90    3.70
   0  -8  16   37.00    4.80
  -1   8 -16   19.30    2.20
  -1   8 -16   18.30    4.00
   1  -8  16   23.20    3.80
   1  -8  16   20.40    2.50
  -2   8 -16   15.60    4.20
   2  -8  16   12.10    3.10
  -3   8 -16    1.50    2.20
   3  -8  16    0.00    1.80
  -4   8 -16    5.20    3.30
   4  -8  16    1.00    2.30
   4   7 -16   -0.50    3.60
  -4  -7  16    0.70    2.50
   3   7 -16   -2.40    2.30
  -3  -7  16    3.00    1.60
  -3  -7  16    1.60    2.20
   2   7 -16   -1.00    1.40
   2   7 -16    4.70    2.90
  -2  -7  16    3.00    2.20
  -2  -7  16    2.40    1.70
   1   7 -16    1.80    2.20
   1   7 -16    0.80    1.70
  -1  -7  16    0.10    1.50
   0   7 -16   15.60    2.90
   0   7 -16   12.50    3.60
   0  -7  16    8.30    2.30
   0  -7  16   15.40    3.30
  -1   7 -16   68.39    7.20
  -1   7 -16   71.69    3.30
   1  -7  16   69.89    3.50
   1  -7  16   78.39    5.90
  -2   7 -16    3.50    2.50
   2  -7  16    5.70    2.40
  -3   7 -16   27.50    5.30
   3  -7  16   37.90    5.30
  -4   7 -16    0.90    2.70
   4  -7  16    0.40    2.00
   4   6 -16   15.00    5.40
  -4  -6  16   16.00    4.10
   3   6 -16   -2.90    2.60
  -3  -6  16    1.70    2.00
  -3  -6  16    2.90    1.60
   2   6 -16    1.80    1.90
  -2  -6  16    4.10    2.20
   1   6 -16   73.79    5.90
   1   6 -16   81.99    6.40
  -1  -6  16   65.39    5.40
   0   6 -16   21.10    3.30
   0   6 -16   30.50    5.80
   0  -6  16   19.90    3.40
   0  -6  16   24.80    3.50
  -1   6 -16   31.20    1.90
  -1   6 -16   29.20    4.60
   1  -6  16   32.10    4.30
   1  -6  16   29.80    2.10
  -2   6 -16   61.19    7.10
   2  -6  16   69.09    5.80
  -3   6 -16   11.40    3.90
   3  -6  16   14.60    3.60
  -4   6 -16    0.70    2.40
   4  -6  16   -0.70    1.90
   4   5 -16   -3.80    2.90
  -4  -5  16    4.00    2.90
   3   5 -16   19.30    5.30
  -3  -5  16   19.70    2.70
  -3  -5  16   16.60    3.90
   2   5 -16    3.00    1.90
   2   5 -16    0.40    2.40
  -2  -5  16    2.50    1.80
   1   5 -16   45.40    5.50
   1   5 -16   37.60    5.00
  -1  -5  16   56.29    5.90
   0   5 -16   62.19    6.50
   0  -5  16   80.49    5.80
  -1   5 -16   30.60    5.10
   1  -5  16   29.70    4.30
  -2   5 -16    0.90    2.00
   2  -5  16    5.00    2.10
  -3   5 -16    4.80    2.80
   3  -5  16    5.10    2.40
  -4   5 -16   47.60    7.30
   4  -5  16   36.30    5.30
   4   4 -16    0.20    3.60
  -4  -4  16    3.80    2.90
   3   4 -16   19.40    5.00
  -3  -4  16   15.60    3.80
  -3  -4  16   13.90    2.30
   2   4 -16   28.10    3.80
   2   4 -16   44.90    6.30
  -2  -4  16   39.80    5.30
   1   4 -16    9.90    3.00
   1   4 -16   11.70    2.90
  -1  -4  16   18.90    3.40
   0   4 -16   76.09    5.50
   0   4 -16   59.89    6.20
   0  -4  16   73.99    5.10
   0  -4  16   70.39    5.50
  -1   4 -16   18.30    3.90
   1  -4  16   15.70    3.20
  -2   4 -16   20.00    4.30
   2  -4  16   14.20    3.20
  -3   4 -16    1.40    2.30
   3  -4  16    0.90    1.90
  -4   4 -16   -2.90    2.30
   4  -4  16    0.90    2.10
   4   3 -16    1.70    3.60
  -4  -3  16    3.20    2.60
   3   3 -16    0.50    2.70
  -3  -3  16    1.30    1.10
  -3  -3  16    2.30    2.10
   2   3 -16   28.50    5.00
   2   3 -16   30.30    4.10
  -2  -3  16   22.20    4.10
   1   3 -16   22.50    4.10
   1   3 -16   27.10    4.20
  -1  -3  16   20.40    3.50
   0   3 -16  222.98    9.90
   0   3 -16  201.08   10.30
   0  -3  16  220.58    9.90
   0  -3  16  203.88    9.00
  -1   3 -16    2.20    2.10
   1  -3  16    2.20    1.70
  -2   3 -16    1.80    2.30
   2  -3  16    2.50    1.80
  -3   3 -16   33.10    5.60
   3  -3  16   21.90    3.90
  -4   3 -16   12.90    3.90
   4  -3  16   24.20    4.80
   4   2 -16    6.50    4.20
  -4  -2  16    3.40    2.90
   3   2 -16   26.20    5.60
  -3  -2  16   26.20    4.70
   2   2 -16    1.80    2.50
   2   2 -16    1.20    1.40
  -2  -2  16   -0.70    1.60
   1   2 -16    4.30    2.00
   1   2 -16    0.20    1.80
  -1  -2  16    5.00    2.20
   0   2 -16    8.30    2.80
   0  -2  16    7.40    2.30
  -1   2 -16   23.60    4.60
  -1   2 -16   18.80    1.60
   1  -2  16   24.80    4.00
  -2   2 -16   25.00    4.80
   2  -2  16   30.50    4.20
  -3   2 -16    6.90    3.20
   3  -2  16   10.00    2.80
   4   1 -16    0.40    3.30
  -4  -1  16   -1.30    1.90
   3   1 -16   13.40    4.50
  -3  -1  16    7.60    1.60
  -3  -1  16   10.50    3.10
   2   1 -16    4.30    2.00
  -2  -1  16    7.60    2.80
   1   1 -16   40.00    4.80
   1   1 -16   34.40    5.00
  -1  -1  16   43.10    5.00
   0   1 -16    6.00    2.10
   0   1 -16    1.60    1.30
   0   1 -16    2.40    2.10
   0  -1  16    4.00    2.10
  -1   1 -16   -0.30    0.70
  -1   1 -16    0.10    0.60
  -1   1 -16    0.90    1.80
   1  -1  16   -0.40    1.30
  -2   1 -16    8.00    3.00
   2  -1  16    0.50    1.70
  -3   1 -16    9.60    3.70
   3  -1  16    7.40    2.80
   4   0 -16    4.10    3.90
  -4   0  16    3.00    2.90
   3   0 -16    4.70    3.40
   3   0 -16    3.10    1.70
  -3   0  16    2.70    2.20
   2   0 -16    5.20    3.10
   2   0 -16    5.00    2.00
  -2   0  16    6.70    2.50
   1   0 -16    5.60    2.40
   1   0 -16    6.20    2.60
  -1   0  16    8.40    2.60
   0   0 -16   85.69    5.20
   0   0 -16   86.09    5.80
  -1   0 -16    1.10    0.90
  -1   0 -16    0.90    1.00
  -1   0 -16   -0.60    1.50
   1   0  16   -1.30    1.20
  -2   0 -16   21.20    4.60
   2   0  16   11.60    2.80
  -3   0 -16    2.90    3.00
   3   0  16    2.80    2.10
   3  -1 -16   11.40    4.20
   3  -1 -16    5.60    1.70
  -3   1  16    3.00    2.10
   2  -1 -16    1.40    2.30
   2  -1 -16   -0.20    1.40
  -2   1  16   -0.40    1.40
   1  -1 -16  134.49    8.40
   1  -1 -16  116.19    7.30
  -1   1  16  124.29    7.30
   0  -1 -16    0.00    1.70
   0  -1 -16   -0.30    1.50
   0  -1 -16    0.70    1.40
  -1  -1 -16    3.40    2.30
  -1  -1 -16    5.50    1.60
  -1  -1 -16    2.30    1.20
   1   1  16    3.70    1.90
  -2  -1 -16    2.80    2.50
   2   1  16   -0.70    1.50
  -3  -1 -16   14.00    4.30
   3   1  16    5.30    2.40
   3  -2 -16    1.90    1.50
   3  -2 -16   -1.30    2.40
  -3   2  16    0.90    2.20
   2  -2 -16    0.10    1.40
   2  -2 -16    0.30    2.30
  -2   2  16    0.80    1.80
   1  -2 -16    2.20    2.20
   1  -2 -16    0.70    1.70
  -1   2  16    0.00    1.50
   0  -2 -16   11.30    2.90
   0  -2 -16   14.10    3.50
  -1  -2 -16    9.50    1.90
  -1  -2 -16    7.80    1.90
  -1  -2 -16    6.00    2.70
   1   2  16    6.10    2.60
  -2  -2 -16   16.20    4.30
   2   2  16    7.60    2.60
  -3  -2 -16   16.30    4.50
   3   2  16    8.70    2.80
   3  -3 -16    1.00    3.00
  -3   3  16    5.40    2.90
   2  -3 -16    2.00    2.60
   2  -3 -16    0.00    1.50
  -2   3  16    0.60    1.70
   1  -3 -16   10.20    2.90
   1  -3 -16   14.60    3.70
  -1   3  16   15.90    3.10
   0  -3 -16  115.39    8.00
   0  -3 -16  103.79    7.00
   0   3  16  113.99    9.10
  -1  -3 -16    1.20    1.40
  -1  -3 -16   -1.70    1.80
  -2  -3 -16   -1.70    1.90
   2   3  16    3.80    1.80
  -3  -3 -16    0.80    2.60
   3   3  16    1.80    2.10
   3  -4 -16   11.40    4.30
  -3   4  16   12.70    3.40
   2  -4 -16    3.60    3.10
   2  -4 -16    4.90    2.20
  -2   4  16    7.00    2.60
   1  -4 -16   10.10    5.50
  -1   4  16    6.50    2.20
   0  -4 -16    9.10    2.80
   0  -4 -16   12.00    3.40
   0   4  16   11.30    2.90
  -1  -4 -16    0.30    1.50
  -1  -4 -16    1.40    2.30
  -2  -4 -16    2.30    2.80
   2   4  16    4.60    2.00
   3  -5 -16   31.00    6.50
  -3   5  16   23.40    4.50
   2  -5 -16    3.70    2.30
   2  -5 -16    0.40    2.60
  -2   5  16    4.80    2.40
   1  -5 -16   55.59    6.20
   1  -5 -16   47.30    6.30
  -1   5  16   54.19    5.50
   0  -5 -16    5.70    2.60
   0  -5 -16   10.50    3.40
   0   5  16   12.50    2.60
  -1  -5 -16    5.20    2.60
  -1  -5 -16    6.80    2.30
   1   5  16    8.70    2.50
  -2  -5 -16    3.30    2.80
   2   5  16    0.10    1.50
   2  -6 -16   -0.30    1.70
   2  -6 -16    3.90    3.10
  -2   6  16    0.40    1.80
   1  -6 -16    2.40    2.30
   1  -6 -16   -2.20    2.00
  -1   6  16   -0.90    1.40
   0  -6 -16    3.50    2.40
   0  -6 -16    2.50    2.40
   0   6  16    0.70    1.50
  -1  -6 -16   -1.30    1.60
  -1  -6 -16   -0.90    2.10
   1   6  16    1.30    1.50
  -2  -6 -16    5.20    3.00
   2   6  16    5.90    2.10
   2  -7 -16   15.70    5.10
  -2   7  16    9.60    2.90
   1  -7 -16   48.60    7.00
   1  -7 -16   44.10    5.80
  -1   7  16   50.09    5.20
   0  -7 -16    5.20    2.60
   0  -7 -16    7.70    3.10
   0   7  16    3.80    1.80
  -1  -7 -16   20.80    4.00
  -1  -7 -16   23.30    5.50
   1   7  16   21.90    3.30
   1  -8 -16   52.49    6.30
   1  -8 -16   49.60    7.00
  -1   8  16   59.89    5.70
   0  -8 -16    1.90    2.40
   0  -8 -16    0.00    2.30
   0   8  16    0.50    1.60
   0  16 -17    1.40    2.50
   0 -16  17    3.60    2.80
   1  15 -17   11.30    3.90
  -1 -15  17    2.90    2.40
  -1 -15  17    4.10    2.60
   0  15 -17   20.20    4.00
   0 -15  17   23.10    4.30
   0 -15  17   17.90    4.20
  -1  15 -17   21.00    3.70
   1 -15  17   20.70    4.40
   2  14 -17   -0.90    2.60
  -2 -14  17    1.40    2.30
  -2 -14  17   -0.40    2.00
   1  14 -17   13.30    4.00
  -1 -14  17    6.30    2.70
  -1 -14  17    7.50    2.80
   0  14 -17    4.30    2.60
   0 -14  17    1.10    2.10
   0 -14  17    1.40    2.10
  -1  14 -17    1.90    3.00
  -1  14 -17    0.60    1.70
   1 -14  17   -0.10    1.90
  -2  14 -17   42.70    6.50
   2 -14  17   58.09    6.90
   2  13 -17    5.20    3.40
  -2 -13  17    5.60    2.50
   1  13 -17    3.90    3.10
  -1 -13  17    2.60    2.00
  -1 -13  17    1.20    2.20
   0  13 -17   -2.30    1.60
   0  13 -17   -1.60    1.90
   0 -13  17   -0.90    1.60
   0 -13  17    1.60    2.10
  -1  13 -17   12.40    2.70
  -1  13 -17   13.40    4.10
   1 -13  17   10.10    3.10
  -2  13 -17   48.20    6.90
   2 -13  17   59.79    7.80
   2  12 -17    7.50    3.60
  -2 -12  17   10.40    3.30
  -2 -12  17    7.60    2.70
   1  12 -17   11.70    3.70
  -1 -12  17   16.60    3.70
  -1 -12  17   13.40    3.20
   0  12 -17   -0.20    1.80
   0  12 -17    0.80    2.40
   0 -12  17   -0.40    1.80
  -1  12 -17   24.30    4.80
  -1  12 -17   29.80    3.50
   1 -12  17   25.80    4.60
   2 -12  17   46.80    6.00
  -3  12 -17   22.90    5.50
   3 -12  17   16.30    3.90
  -3 -11  17    2.20    2.60
  -3 -11  17    8.30    2.70
   2  11 -17    5.00    3.30
  -2 -11  17    6.50    2.80
  -2 -11  17    1.40    1.90
   1  11 -17   -0.40    2.30
  -1 -11  17    1.30    1.90
  -1 -11  17    3.40    2.10
   0  11 -17    1.60    1.90
   0  11 -17   -2.50    1.60
   0 -11  17   -1.40    1.40
  -1  11 -17    4.40    2.80
   1 -11  17    0.40    1.90
  -2  11 -17    2.60    2.80
   2 -11  17   -1.60    1.80
  -3  11 -17   50.49    7.10
   3 -11  17   48.80    6.20
   3  10 -17    5.30    5.30
  -3 -10  17   10.40    3.70
  -3 -10  17   10.60    2.80
   2  10 -17   16.40    4.60
  -2 -10  17   32.10    5.10
  -2 -10  17   24.20    3.80
   1  10 -17    7.40    3.00
   1  10 -17    4.60    2.60
  -1 -10  17    7.20    2.50
   0  10 -17    0.20    1.60
   0  10 -17   -0.20    1.80
   0 -10  17   -1.80    1.30
  -1  10 -17    1.70    1.20
  -1  10 -17    2.10    2.40
   1 -10  17    1.30    2.20
  -2  10 -17   49.60    6.80
   2 -10  17   45.20    5.70
  -3  10 -17    9.60    3.60
   3 -10  17   11.40    3.30
   3   9 -17    9.20    4.30
  -3  -9  17   10.00    3.20
   2   9 -17    2.70    2.90
  -2  -9  17    4.10    2.00
  -2  -9  17    2.30    2.20
   1   9 -17   21.00    4.20
   1   9 -17   33.40    5.20
  -1  -9  17   27.60    4.50
   0   9 -17   11.90    2.80
   0   9 -17    5.80    2.70
   0  -9  17   15.60    3.40
  -1   9 -17   22.40    4.50
  -1   9 -17   28.10    2.70
   1  -9  17   31.50    4.80
  -2   9 -17    6.30    3.10
   2  -9  17    6.90    2.60
  -3   9 -17   39.40    6.60
   3  -9  17   28.50    4.90
   3   8 -17    0.70    3.10
  -3  -8  17    0.60    1.60
  -3  -8  17    5.00    2.90
   2   8 -17    5.80    3.30
  -2  -8  17   10.90    3.20
   1   8 -17   77.39    7.70
   1   8 -17   56.69    6.30
  -1  -8  17   73.09    6.00
   0   8 -17   23.70    4.60
   0   8 -17   24.60    3.60
   0  -8  17   32.00    4.70
  -1   8 -17   -0.40    0.70
  -1   8 -17   -0.90    1.50
   1  -8  17    0.50    1.00
   1  -8  17    0.00    1.70
  -2   8 -17   13.80    3.80
   2  -8  17   21.30    3.90
  -3   8 -17    0.60    2.70
   3  -8  17    3.20    2.40
   3   7 -17    3.00    3.40
  -3  -7  17    0.70    1.50
   2   7 -17   56.99    6.10
   2   7 -17   52.69    7.00
  -2  -7  17   59.89    6.40
  -2  -7  17   64.99    5.00
   1   7 -17  112.69    7.80
   1   7 -17  106.49    7.40
  -1  -7  17  110.09    7.30
   0   7 -17    2.40    1.70
   0   7 -17    6.20    2.70
   0  -7  17    2.60    1.90
   0  -7  17    0.40    1.70
  -1   7 -17   42.80    5.80
  -1   7 -17   41.70    2.30
   1  -7  17   43.80    5.30
  -2   7 -17   15.20    3.80
   2  -7  17   22.90    4.00
   3   6 -17   -1.50    2.80
  -3  -6  17   -0.60    1.90
  -3  -6  17   -0.70    1.30
   2   6 -17   -0.80    2.30
   2   6 -17    2.20    1.90
  -2  -6  17    0.50    1.80
   1   6 -17   68.69    6.10
  -1  -6  17   66.29    5.70
   0   6 -17   -0.50    1.40
   0   6 -17    0.40    1.80
   0  -6  17   -0.30    1.40
   0  -6  17    0.30    1.90
  -1   6 -17   28.50    4.70
   1  -6  17   36.30    4.90
  -2   6 -17   40.30    6.20
   2  -6  17   42.20    5.60
  -3   6 -17   24.00    7.90
   3  -6  17   33.60    5.60
   3   5 -17   11.20    4.40
  -3  -5  17    8.40    3.10
  -3  -5  17   10.60    2.30
   2   5 -17   23.50    3.80
   2   5 -17   29.40    5.40
  -2  -5  17   30.90    4.70
   1   5 -17    8.30    2.80
   1   5 -17    1.30    2.30
  -1  -5  17    7.10    2.70
   0   5 -17   20.90    4.00
   0   5 -17   16.20    3.00
   0  -5  17   21.20    3.40
   0  -5  17   21.40    3.90
  -1   5 -17   12.70    3.40
   1  -5  17   19.30    3.70
  -2   5 -17    7.80    3.20
   2  -5  17    0.00    1.70
  -3   5 -17    0.10    3.50
   3  -5  17   -0.20    1.90
   3   4 -17    0.10    2.80
  -3  -4  17    1.30    1.30
  -3  -4  17    2.30    2.50
   2   4 -17    3.30    2.00
   2   4 -17    1.60    2.60
  -2  -4  17    6.90    2.70
   1   4 -17   48.30    6.00
   1   4 -17   50.19    5.90
  -1  -4  17   42.20    5.00
   0   4 -17   15.20    2.90
   0   4 -17   14.60    3.70
   0  -4  17   17.00    3.30
   0  -4  17    8.50    2.30
  -1   4 -17   -0.50    1.80
   1  -4  17   -1.40    1.30
  -2   4 -17   -0.20    2.00
   2  -4  17   -1.40    1.40
   3  -4  17   71.59    7.30
   3   3 -17    3.90    3.30
  -3  -3  17   11.90    3.60
  -3  -3  17    7.40    1.90
   2   3 -17    2.30    1.80
   2   3 -17    1.80    2.50
  -2  -3  17    5.40    2.60
   1   3 -17   18.90    3.70
   1   3 -17   26.20    4.30
  -1  -3  17   14.40    3.20
   0   3 -17  136.59    8.50
   0   3 -17  145.89    7.30
   0  -3  17  144.49    8.10
   0  -3  17  122.79    6.40
  -1   3 -17    0.60    1.90
   1  -3  17   -1.30    1.20
  -2   3 -17    9.90    3.60
   2  -3  17   15.10    3.50
  -3   3 -17    7.40    6.00
   3  -3  17    3.80    2.50
   3   2 -17    3.90    3.40
  -3  -2  17    5.50    2.80
  -3  -2  17    2.20    1.30
   2   2 -17   12.70    2.90
   2   2 -17   19.60    4.50
  -2  -2  17   24.00    4.20
   1   2 -17    1.20    1.80
   1   2 -17   -1.40    1.70
  -1  -2  17   -0.10    1.60
   0   2 -17   48.40    3.90
   0   2 -17   63.39    4.80
   0   2 -17   48.10    5.80
   0  -2  17   50.39    5.60
  -1   2 -17    2.70    2.30
   1  -2  17    1.80    1.90
  -2   2 -17   71.99    8.20
   2  -2  17   50.39    5.60
  -3   2 -17   13.20    4.20
   3  -2  17    6.40    2.80
   3   1 -17    2.60    3.20
   3   1 -17    2.70    1.60
  -3  -1  17    6.70    2.80
   2   1 -17    0.80    2.30
   2   1 -17    1.00    1.60
  -2  -1  17    1.50    1.90
   1   1 -17   54.09    5.80
   1   1 -17   39.80    5.40
  -1  -1  17   51.39    5.80
   0   1 -17   18.60    4.10
   0   1 -17   15.90    2.70
   0   1 -17   14.40    2.90
   0  -1  17   14.50    3.20
  -1   1 -17   34.40    5.50
   1  -1  17   26.60    4.20
  -2   1 -17   18.10    4.20
   2  -1  17   19.60    3.60
  -3   1 -17  142.29   10.30
   3  -1  17  138.19    8.70
   3   0 -17    2.90    3.40
   3   0 -17    2.20    1.90
  -3   0  17    0.20    1.80
   2   0 -17    0.50    2.50
   2   0 -17    1.50    1.60
  -2   0  17   -2.00    1.40
   1   0 -17   22.90    4.00
   1   0 -17   34.60    5.20
  -1   0  17   34.80    4.50
   0   0 -17   -0.30    1.40
   0   0 -17    1.30    2.00
   0   0 -17    3.00    1.90
   0   0  17    3.40    2.10
  -1   0 -17   51.69    6.70
  -1   0 -17   49.70    3.00
   1   0  17   62.39    5.30
  -2   0 -17   44.50    6.30
   2   0  17   51.19    5.40
  -3   0 -17    3.10    2.90
   3   0  17    0.50    2.10
   3  -1 -17    0.50    2.90
  -3   1  17    4.60    2.70
   2  -1 -17    3.90    2.10
   2  -1 -17    8.80    3.70
  -2   1  17    6.90    2.70
   1  -1 -17   22.10    4.30
  -1   1  17   16.20    3.40
   0  -1 -17   58.39    6.50
   0  -1 -17   69.49    5.50
   0   1  17   63.79    5.30
  -1  -1 -17    4.80    2.90
  -1  -1 -17    4.00    1.40
   1   1  17    5.10    2.10
  -2  -1 -17    0.40    2.20
   2   1  17    1.10    1.70
  -3  -1 -17    2.70    3.20
   3   1  17    5.10    2.50
   3  -2 -17    4.80    3.70
  -3   2  17   -2.10    1.90
   2  -2 -17   -0.20    1.60
   2  -2 -17    2.90    2.90
  -2   2  17    2.00    2.10
   1  -2 -17   10.40    3.40
   1  -2 -17   13.60    3.40
  -1   2  17    4.80    2.30
   0  -2 -17   19.20    3.60
   0  -2 -17   18.50    4.10
   0   2  17   21.90    3.50
  -1  -2 -17    1.70    2.50
  -1  -2 -17   -0.70    1.20
   1   2  17    0.70    1.60
  -2  -2 -17    9.20    5.90
   2   2  17    3.90    2.10
   3  -3 -17   -2.70    3.00
   2  -3 -17    0.90    2.60
   2  -3 -17    1.00    1.80
  -2   3  17    0.50    1.80
   1  -3 -17   18.50    3.90
  -1   3  17   13.00    3.10
   0  -3 -17   20.70    4.20
   0  -3 -17   27.90    4.40
   0   3  17   18.40    3.30
  -1  -3 -17    0.60    2.10
  -1  -3 -17    0.80    1.40
   1   3  17    1.50    1.70
  -2  -3 -17   -2.20    1.90
   2   3  17   -1.90    1.50
   2  -4 -17    0.60    1.80
   2  -4 -17   -0.40    2.80
  -2   4  17    0.00    1.80
   1  -4 -17   -0.50    1.70
   1  -4 -17    1.00    2.40
  -1   4  17   -0.10    1.50
   0  -4 -17   -1.60    1.80
   0  -4 -17    0.70    2.10
   0   4  17    0.50    1.60
  -1  -4 -17    1.40    1.80
  -1  -4 -17    1.10    2.30
   1   4  17    3.90    1.90
  -2  -4 -17   -1.40    2.20
   2   4  17   -1.70    1.40
   2  -5 -17    0.40    2.20
   2  -5 -17    0.60    2.80
  -2   5  17    1.20    2.00
   1  -5 -17    7.00    3.20
   1  -5 -17   11.20    3.30
  -1   5  17   15.90    3.30
   0  -5 -17   -1.90    1.70
   0  -5 -17    0.60    2.00
   0   5  17   -0.90    1.40
  -1  -5 -17   18.70    3.40
   1   5  17   11.10    2.70
   1  -6 -17   15.30    4.40
   1  -6 -17   12.20    3.40
  -1   6  17   18.70    3.50
   0  -6 -17    1.80    2.60
   0  -6 -17   -1.90    2.10
   0   6  17   -1.10    1.40
  -1  -6 -17    0.80    2.60
  -1  -6 -17    0.50    2.20
   1   6  17   -0.40    1.50
   0  15 -18   15.10    3.70
   0 -15  18   15.60    3.90
   0 -15  18    6.80    3.10
   1  14 -18   32.80    5.60
  -1 -14  18   29.50    5.00
  -1 -14  18   32.30    5.50
   0  14 -18    5.80    2.80
   0 -14  18   10.20    3.70
   0 -14  18    9.00    3.20
  -1  14 -18   37.10    4.50
  -1  14 -18   36.90    6.40
   1 -14  18   41.70    5.90
   1  13 -18   -1.70    2.20
  -1 -13  18   -1.10    1.70
   0  13 -18   -1.40    2.10
   0  13 -18   -0.80    1.90
   0 -13  18    0.20    1.90
   0 -13  18   -0.40    2.00
  -1  13 -18   19.00    4.70
  -1  13 -18   15.80    2.90
   1 -13  18   12.60    4.20
  -2  13 -18    2.90    3.00
   2 -13  18   -0.10    2.30
   2  12 -18    6.00    3.40
  -2 -12  18   10.60    3.10
  -2 -12  18    6.80    3.00
   1  12 -18    5.00    3.00
  -1 -12  18    1.20    2.10
  -1 -12  18    1.50    1.90
   0  12 -18   14.70    4.20
   0  12 -18   15.00    3.40
   0 -12  18   15.50    3.70
  -1  12 -18    1.30    1.50
  -1  12 -18    4.20    4.00
   1 -12  18   -0.30    2.00
  -2  12 -18   16.30    4.20
   2 -12  18   30.70    5.00
   2  11 -18    5.10    3.20
  -2 -11  18    7.30    2.70
  -2 -11  18   12.50    3.60
   1  11 -18    1.40    2.40
   1  11 -18   -2.60    1.80
  -1 -11  18    0.50    1.80
  -1 -11  18    2.00    2.40
   0  11 -18   11.80    3.70
   0  11 -18    8.70    2.80
   0 -11  18   18.90    4.00
  -1  11 -18   28.60    5.60
  -1  11 -18   24.70    2.90
   1 -11  18   19.40    3.90
  -2  11 -18   67.19    8.40
   2 -11  18   50.29    6.20
   2  10 -18    1.10    2.90
  -2 -10  18    2.60    2.00
   1  10 -18    8.80    3.80
   1  10 -18    3.40    2.60
  -1 -10  18    7.20    2.90
   0  10 -18    2.10    1.90
   0  10 -18    2.40    2.40
   0 -10  18   -0.60    1.60
  -1  10 -18   13.00    3.80
  -1  10 -18   21.40    2.50
   1 -10  18   16.10    3.60
  -2  10 -18    0.20    2.20
   2 -10  18    3.70    3.50
   3   9 -18    4.00    3.90
  -3  -9  18    9.30    2.60
  -3  -9  18    8.70    3.20
   2   9 -18   22.70    5.10
  -2  -9  18   19.10    3.40
  -2  -9  18   16.80    3.90
   1   9 -18   -0.70    1.80
   1   9 -18    0.50    2.20
  -1  -9  18   -0.20    1.70
   0   9 -18    2.00    2.40
   0   9 -18    3.50    2.00
   0  -9  18    0.40    1.90
  -1   9 -18    2.40    1.10
  -1   9 -18    0.50    2.20
   1  -9  18    1.40    2.00
  -2   9 -18   25.70    5.60
   2  -9  18   23.80    4.90
  -3   9 -18   -1.10    2.10
   3  -9  18    2.70    2.60
   3   8 -18    0.20    4.00
  -3  -8  18    7.10    3.20
   2   8 -18    0.90    2.70
  -2  -8  18   -0.40    1.50
  -2  -8  18   -0.30    1.70
   1   8 -18   23.70    4.50
   1   8 -18   15.40    3.70
  -1  -8  18   21.00    4.20
   0   8 -18   26.00    3.70
   0   8 -18   18.10    4.00
   0  -8  18   25.20    4.40
  -1   8 -18   13.70    1.40
  -1   8 -18   22.90    4.70
   1  -8  18    9.90    3.00
  -2   8 -18    0.70    2.40
   2  -8  18    1.80    2.10
  -3   8 -18   31.30    6.10
   3  -8  18   26.00    5.00
   3   7 -18    4.50    3.80
  -3  -7  18    1.00    2.60
  -3  -7  18    0.20    1.60
   2   7 -18    6.10    2.70
   2   7 -18    1.70    2.80
  -2  -7  18    3.80    2.30
   1   7 -18   34.90    5.20
   1   7 -18   42.20    5.90
  -1  -7  18   30.70    4.70
   0   7 -18    7.20    3.00
   0   7 -18    1.90    1.70
   0  -7  18    4.40    2.30
  -1   7 -18    3.70    2.50
   1  -7  18   -0.40    1.60
  -2   7 -18    6.10    3.00
   2  -7  18    6.20    2.80
  -3   7 -18    1.40    2.50
   3  -7  18   -1.30    1.80
   3   6 -18    1.50    3.70
  -3  -6  18    2.10    1.70
  -3  -6  18    2.70    2.40
   2   6 -18   12.30    3.90
   2   6 -18    7.40    2.80
  -2  -6  18   13.90    3.40
   1   6 -18    2.30    2.50
   1   6 -18    5.40    2.50
  -1  -6  18    7.60    3.00
   0   6 -18    2.80    1.80
   0   6 -18    3.40    2.30
   0  -6  18    1.00    1.80
  -1   6 -18    0.50    1.90
   1  -6  18    1.70    1.90
  -2   6 -18   19.10    4.40
   2  -6  18   17.40    3.80
  -3   6 -18    3.80    3.10
   3  -6  18    1.40    2.40
   3   5 -18    0.40    3.30
  -3  -5  18    0.70    1.60
  -3  -5  18   -0.70    1.90
   2   5 -18    7.80    3.60
   2   5 -18    1.70    2.10
  -2  -5  18    2.60    2.40
   1   5 -18   37.20    5.30
   1   5 -18   53.19    6.10
  -1  -5  18   49.40    5.90
   0   5 -18    2.80    2.20
   0   5 -18    2.90    1.90
   0  -5  18    0.80    2.00
  -1   5 -18   42.30    6.10
   1  -5  18   38.60    4.90
  -2   5 -18   19.70    4.50
   2  -5  18   13.50    3.40
  -3   5 -18   30.30    5.90
   3  -5  18   44.20    5.80
   3   4 -18   -2.10    2.80
  -3  -4  18   -0.10    2.10
  -3  -4  18    0.40    1.40
   2   4 -18   -0.60    1.50
   2   4 -18    0.50    2.60
  -2  -4  18    1.50    2.20
   1   4 -18    2.60    2.10
   1   4 -18    0.20    2.10
  -1  -4  18    1.90    2.00
   0   4 -18    8.70    3.10
   0   4 -18    7.90    2.30
   0  -4  18    9.20    2.90
  -1   4 -18   -0.70    1.90
   1  -4  18    0.70    1.70
  -2   4 -18    8.30    3.30
   2  -4  18    4.70    2.70
  -3   4 -18    2.30    2.70
   3  -4  18    2.70    2.50
   3   3 -18    3.40    3.50
  -3  -3  18    4.30    2.70
  -3  -3  18    5.30    1.80
   2   3 -18   -1.60    2.20
   2   3 -18    0.00    1.60
  -2  -3  18   -0.70    1.90
   1   3 -18   24.30    4.20
   1   3 -18   26.50    4.50
  -1  -3  18   35.00    5.00
   0   3 -18    2.90    2.00
   0   3 -18    2.50    2.20
   0   3 -18    5.30    2.10
   0  -3  18    4.70    2.30
  -1   3 -18    2.80    2.50
   1  -3  18    4.70    2.30
  -2   3 -18    0.90    2.50
   2  -3  18    0.40    1.90
  -3   3 -18    5.20    3.40
   3  -3  18    4.20    2.60
   3   2 -18    8.00    3.70
  -3  -2  18    9.80    2.30
  -3  -2  18    9.30    3.30
   2   2 -18    5.40    3.20
   2   2 -18    9.40    2.80
  -2  -2  18    7.60    2.90
   1   2 -18   31.10    4.80
   1   2 -18   26.60    4.60
  -1  -2  18   21.40    3.90
   0   2 -18    0.30    1.70
   0   2 -18   -0.40    1.80
   0  -2  18    4.30    2.50
  -1   2 -18   10.00    3.70
   1  -2  18    5.10    2.30
  -2   2 -18   22.60    5.10
   2  -2  18   29.20    4.60
  -3   2 -18   18.90    5.10
   3  -2  18   20.00    4.10
   3   1 -18    2.10    3.30
  -3  -1  18    3.70    2.90
   2   1 -18    1.70    2.70
   2   1 -18    3.20    2.20
  -2  -1  18    2.00    2.40
   1   1 -18  144.79    8.50
   1   1 -18  133.99    8.80
  -1  -1  18  142.19    8.40
   0   1 -18    0.60    2.30
   0   1 -18    1.00    1.80
   0  -1  18    2.50    1.90
  -1   1 -18   17.30    4.40
   1  -1  18    7.90    2.60
  -2   1 -18   13.60    6.30
   2  -1  18    7.80    2.80
   3   0 -18    1.00    3.40
  -3   0  18    0.20    2.30
   2   0 -18    2.40    3.10
   2   0 -18   -1.30    1.60
  -2   0  18    4.40    2.50
   1   0 -18   45.80    5.80
   1   0 -18   51.49    6.40
  -1   0  18   48.40    5.80
   0   0 -18    1.20    2.30
   0   0 -18    0.10    1.70
   0   0  18    2.50    1.80
  -1   0 -18   -0.30    2.40
   1   0  18    0.10    1.50
  -2   0 -18   17.50    5.00
   2   0  18   15.40    3.30
   2  -1 -18   11.80    4.10
   2  -1 -18   18.70    3.60
  -2   1  18   22.50    4.50
   1  -1 -18    5.60    3.00
   1  -1 -18    5.30    2.70
  -1   1  18    5.60    2.50
   0  -1 -18   -1.00    1.60
   0  -1 -18    2.10    2.20
   0   1  18    0.90    1.60
  -1  -1 -18    6.60    3.10
   1   1  18    0.70    1.80
  -2  -1 -18    4.70    3.00
   2   1  18   -0.70    1.50
   2  -2 -18    1.50    2.00
   2  -2 -18    3.20    3.10
  -2   2  18    0.50    2.10
   1  -2 -18   -0.20    1.70
   1  -2 -18   -0.20    2.10
  -1   2  18    5.50    2.50
   0  -2 -18    2.80    2.50
   0  -2 -18   -0.70    1.80
   0   2  18    1.30    1.90
  -1  -2 -18    0.10    2.00
   1   2  18   -0.50    1.60
  -2  -2 -18    1.70    2.80
   2   2  18    6.20    2.60
   2  -3 -18   14.90    4.60
  -2   3  18   13.80    3.40
   1  -3 -18    4.00    2.90
   1  -3 -18    1.00    2.30
  -1   3  18    0.20    1.80
   0  -3 -18    6.90    2.80
   0  -3 -18   14.40    4.00
   0   3  18    8.40    2.50
  -1  -3 -18   39.20    9.90
   1   3  18   20.80    3.70
   1  -4 -18    2.60    2.50
   1  -4 -18    2.20    2.70
  -1   4  18    5.00    2.60
   0  -4 -18    0.90    2.30
   0  -4 -18   -1.10    2.00
   0   4  18    0.40    1.70
  -1  -4 -18    5.70    3.10
   1   4  18    4.90    2.10
   1  -5 -18    8.60    3.60
   1  -5 -18   10.90    3.50
  -1   5  18    6.30    2.60
   0  -5 -18    7.30    3.40
   0   5  18    3.00    2.10
   0  13 -19   41.30    6.20
   0  13 -19   67.99   11.00
   0 -13  19   44.30    5.90
   0 -13  19   56.19    6.60
  -1  13 -19   93.29    9.90
   1 -13  19  101.59    8.00
   1  12 -19    2.50    2.60
  -1 -12  19    1.10    2.00
  -1 -12  19    0.90    2.20
   0  12 -19    2.30    2.20
   0  12 -19   -0.40    2.40
   0 -12  19    0.40    2.20
  -1  12 -19   23.30    5.10
   1 -12  19   16.90    4.20
   1  11 -19    0.90    2.20
   1  11 -19    1.10    2.40
  -1 -11  19    4.80    2.70
  -1 -11  19   -2.00    1.60
   0  11 -19    0.00    2.50
   0  11 -19    4.30    2.30
   0 -11  19    4.60    3.20
  -1  11 -19    6.80    3.60
   1 -11  19    5.20    2.90
  -2  11 -19   27.10    5.90
   2 -11  19   25.90    4.90
   2  10 -19    4.90    3.50
  -2 -10  19    1.10    2.30
  -2 -10  19    3.60    2.20
   1  10 -19    4.00    2.70
   1  10 -19    2.50    2.60
  -1 -10  19    8.50    3.40
   0  10 -19    2.30    2.60
   0  10 -19    1.90    2.10
   0 -10  19    3.60    2.90
   1 -10  19    0.90    2.10
  -2  10 -19    4.50    3.20
   2 -10  19   12.50    3.60
   2   9 -19   -1.40    2.80
  -2  -9  19    3.00    2.20
  -2  -9  19    0.80    2.00
   1   9 -19    6.90    3.20
   1   9 -19    2.00    2.50
  -1  -9  19    1.40    3.00
   0   9 -19    1.50    2.50
   0   9 -19    2.30    2.00
   0  -9  19    0.00    1.80
  -1   9 -19    6.20    3.10
   1  -9  19    6.60    3.90
  -2   9 -19   56.99    7.50
   2  -9  19   65.49    7.20
   2   8 -19    0.80    3.00
  -2  -8  19    0.90    2.20
  -2  -8  19    1.00    2.00
   1   8 -19    5.10    3.00
   1   8 -19    6.70    2.90
  -1  -8  19    6.00    2.70
   0   8 -19    4.20    2.10
   0   8 -19    4.30    2.90
   0  -8  19    3.20    2.30
  -1   8 -19   15.90    4.30
   1  -8  19   17.90    3.80
  -2   8 -19   10.40    3.70
   2  -8  19   14.60    3.70
   2   7 -19    1.70    2.20
   2   7 -19    2.70    3.10
  -2  -7  19    3.90    2.50
   1   7 -19    2.50    2.50
   1   7 -19    0.80    2.10
  -1  -7  19    3.50    2.20
   0   7 -19    5.50    2.10
   0   7 -19    5.50    2.70
   0  -7  19    3.60    2.40
  -1   7 -19   -1.10    1.90
   1  -7  19    3.20    2.30
  -2   7 -19    2.00    2.50
   2  -7  19   -2.20    1.80
   2   6 -19   54.79    7.50
   2   6 -19   46.50    5.60
  -2  -6  19   48.10    6.40
   1   6 -19    1.90    2.60
   1   6 -19    5.40    2.90
  -1  -6  19    5.80    2.50
   0   6 -19    7.40    3.20
   0   6 -19    4.10    2.10
   0  -6  19    3.00    2.50
  -1   6 -19   40.70    6.10
   1  -6  19   61.19    6.80
  -2   6 -19   -0.80    2.20
   2  -6  19   -2.50    1.50
   2   5 -19   29.70    4.60
   2   5 -19   29.70    5.70
  -2  -5  19   34.50    5.50
   1   5 -19    4.60    2.80
   1   5 -19    5.20    2.60
  -1  -5  19    2.00    2.20
   0   5 -19   19.40    4.20
   0   5 -19   20.10    3.20
   0  -5  19   29.90    4.80
  -1   5 -19    6.10    3.10
   1  -5  19   11.20    3.40
  -2   5 -19    3.70    2.80
   2  -5  19    2.90    2.70
   2   4 -19   20.10    5.00
   2   4 -19   11.40    3.10
  -2  -4  19   17.80    4.50
   1   4 -19   16.60    3.90
   1   4 -19    2.30    2.70
  -1  -4  19    9.30    2.90
   0   4 -19    2.20    1.90
   0   4 -19    6.10    3.00
   0  -4  19    3.90    2.60
  -1   4 -19    4.50    2.90
   1  -4  19    3.60    2.40
  -2   4 -19    3.60    3.00
   2   3 -19   12.20    3.20
   2   3 -19   16.60    4.70
  -2  -3  19    7.80    3.40
   1   3 -19   40.00    5.30
   1   3 -19   40.00    5.60
  -1  -3  19   43.90    5.40
   0   3 -19    2.10    2.30
   0   3 -19    0.80    1.80
   0  -3  19    5.00    2.60
  -1   3 -19    0.50    2.30
   1  -3  19    1.30    2.00
  -2   3 -19    7.10    3.40
   2   2 -19    7.00    3.50
   2   2 -19    3.90    2.40
  -2  -2  19    1.80    3.10
   1   2 -19   -0.20    1.80
   1   2 -19   -0.40    2.30
  -1  -2  19    1.40    2.10
   0   2 -19    2.10    2.10
   0   2 -19    4.50    2.80
   0  -2  19    0.70    1.80
  -1   2 -19    9.50    3.70
   1  -2  19    9.20    2.80
  -2   2 -19    0.60    2.60
   2  -2  19    0.10    2.40
   2   1 -19   15.60    4.40
   2   1 -19   11.40    3.10
  -2  -1  19    8.70    3.80
   1   1 -19   20.60    4.20
   1   1 -19   16.40    4.00
  -1  -1  19   22.10    4.20
   0   1 -19    6.10    2.90
   0   1 -19    3.30    2.10
   0  -1  19    5.70    2.50
  -1   1 -19   -0.20    2.20
   1  -1  19    0.90    1.80
  -2   1 -19    0.20    2.40
   2  -1  19    0.50    2.50
   2   0 -19    1.50    3.10
   2   0 -19    1.40    2.10
  -2   0  19    1.50    2.40
   1   0 -19   64.69    6.80
  -1   0  19   81.59    6.70
   0   0 -19    3.50    2.50
   0   0 -19    1.80    2.00
   0   0  19    2.00    2.10
  -1   0 -19   22.10    5.50
   1   0  19   28.90    4.50
   2  -1 -19   36.10    4.70
   2  -1 -19   29.00    5.90
  -2   1  19   33.50    5.20
   1  -1 -19    0.60    2.40
   1  -1 -19   -1.20    1.90
  -1   1  19    0.90    2.00
   0  -1 -19    7.20    2.80
   0  -1 -19    4.90    3.10
   0   1  19   10.40    3.30
  -1  -1 -19    0.60    2.40
   1   1  19    1.60    1.90
   1  -2 -19   -0.90    2.00
   1  -2 -19    1.10    2.50
  -1   2  19    1.50    2.30
   0  -2 -19   17.30    3.60
   0  -2 -19   13.20    3.90
   0   2  19   13.20    3.40
  -1  -2 -19    1.10    2.50
   1   2  19    0.40    1.80
   1  -3 -19   70.19    7.90
   1  -3 -19   60.19    6.90
   0  -3 -19    1.80    2.30
   0  -3 -19   -1.30    2.20
   0   3  19    0.70    1.90
   0  11 -20    1.00    2.10
   0  11 -20    1.90    2.70
   0 -11  20    0.60    2.40
   1  10 -20    0.40    2.40
   1  10 -20    1.90    2.60
  -1 -10  20   -1.80    1.70
   0  10 -20    0.30    1.80
   0  10 -20    4.70    3.50
   0 -10  20    0.00    2.10
  -1  10 -20    5.80    3.40
   1 -10  20    4.50    2.70
   1   9 -20    8.80    3.20
   1   9 -20   14.10    4.00
  -1  -9  20   11.80    3.60
   0   9 -20    0.80    2.80
   0   9 -20    7.10    2.40
   0  -9  20    2.10    2.10
  -1   9 -20   18.90    4.90
   1  -9  20   21.10    4.30
   1   8 -20    2.40    2.60
   1   8 -20    1.90    2.40
  -1  -8  20    2.90    2.40
   0   8 -20    3.20    2.70
   0   8 -20    2.40    1.90
   0  -8  20    3.30    2.50
  -1   8 -20    2.20    2.80
   1  -8  20    1.30    2.30
   1   7 -20   -1.00    2.10
   1   7 -20   -0.20    3.00
  -1  -7  20    0.00    2.20
   0   7 -20    2.20    2.40
   0   7 -20    4.70    2.20
   0  -7  20    9.40    3.20
  -1   7 -20   -0.60    2.70
   1  -7  20    1.40    2.10
   2   6 -20   13.00    3.50
   2   6 -20   13.20    4.60
  -2  -6  20   15.20    3.90
   1   6 -20    2.90    2.70
  -1  -6  20    1.10    2.40
   0   6 -20   28.50    3.70
   0   6 -20   14.60    4.00
   0  -6  20   25.30    5.10
  -1   6 -20    4.00    3.00
   1  -6  20    3.00    2.40
   2   5 -20   -0.20    3.00
   2   5 -20   -1.20    1.90
  -2  -5  20    5.20    3.00
   1   5 -20   -0.60    2.40
   1   5 -20    0.20    2.00
  -1  -5  20    1.50    2.10
   0   5 -20    0.70    2.20
   0   5 -20    5.50    2.20
  -1   5 -20    3.40    2.70
   1  -5  20   -0.40    1.90
   2   4 -20    2.90    3.60
   2   4 -20    2.00    2.20
  -2  -4  20    2.60    2.40
   1   4 -20    0.90    2.80
   1   4 -20    2.80    2.70
  -1  -4  20    5.50    2.90
   0   4 -20    1.20    2.30
   0   4 -20    1.00    1.80
  -1   4 -20    2.10    2.40
   1  -4  20    0.20    1.70
   1   3 -20   20.30    4.50
  -1  -3  20   26.40    4.80
   0   3 -20   12.20    3.80
   0   3 -20   12.50    2.80
  -1   3 -20    1.20    2.60
   1  -3  20   -0.80    1.90
   1   2 -20    2.40    3.30
   1   2 -20    2.00    2.40
  -1  -2  20    1.20    2.30
   0   2 -20    1.00    2.10
   0   2 -20    1.90    2.40
   0  -2  20    5.70    3.60
  -1   2 -20    8.90    3.70
   1  -2  20    8.10    3.40
   1   1 -20    1.90    2.60
   1   1 -20    1.80    2.30
  -1  -1  20    3.70    2.60
   0   1 -20    7.80    3.30
   0   1 -20    4.90    2.80
   0  -1  20    9.00    3.60
  -1   1 -20    9.10    3.50
   1  -1  20    0.50    2.40
   1   0 -20    5.40    3.10
   1   0 -20    7.80    3.30
  -1   0  20    2.40    2.40
   0   0 -20    2.30    2.80
   0   0  20    1.40    2.90
   0   7 -21    5.90    3.30
   0   6 -21    1.40    2.60
   0   5 -21    7.90    3.40
   0   0   0    0.00    0.00

_computing_structure_solution     'SHELXT 2018/2 (Sheldrick, 2018)'
;
_shelx_hkl_checksum   49103

