 
data_pvl419_a
 
_audit_creation_method            'SHELXL-2018/3'
_shelx_SHELXL_version_number      '2018/3'
_chemical_name_systematic         ?
_chemical_name_common             ?
_chemical_melting_point           ?
_chemical_formula_moiety          ?
_chemical_formula_sum
 'C14 H11 Cd0.50 N8 O2 S' 
_chemical_formula_weight          411.57

loop_
 _atom_type_symbol
 _atom_type_description
 _atom_type_scat_dispersion_real
 _atom_type_scat_dispersion_imag
 _atom_type_scat_source
 'C'  'C'   0.0033   0.0016
 'International Tables Vol C Tables 4.2.6.8 and 6.1.1.4'
 'H'  'H'   0.0000   0.0000
 'International Tables Vol C Tables 4.2.6.8 and 6.1.1.4'
 'N'  'N'   0.0061   0.0033
 'International Tables Vol C Tables 4.2.6.8 and 6.1.1.4'
 'O'  'O'   0.0106   0.0060
 'International Tables Vol C Tables 4.2.6.8 and 6.1.1.4'
 'S'  'S'   0.1246   0.1234
 'International Tables Vol C Tables 4.2.6.8 and 6.1.1.4'
 'Cd'  'Cd'  -0.8075   1.2024
 'International Tables Vol C Tables 4.2.6.8 and 6.1.1.4'
 
_space_group_crystal_system       triclinic
_space_group_IT_number            2
_space_group_name_H-M_alt         'P -1'
_space_group_name_Hall            '-P 1'
 
_shelx_space_group_comment
;
The symmetry employed for this shelxl refinement is uniquely defined
by the following loop, which should always be used as a source of
symmetry information in preference to the above space-group names.
They are only intended as comments.
;
 
loop_
 _space_group_symop_operation_xyz
 'x, y, z'
 '-x, -y, -z'
 
_cell_length_a                    4.9908(2)
_cell_length_b                    10.1240(5)
_cell_length_c                    14.6613(6)
_cell_angle_alpha                 74.067(4)
_cell_angle_beta                  88.186(4)
_cell_angle_gamma                 87.181(4)
_cell_volume                      711.34(6)
_cell_formula_units_Z             2
_cell_measurement_temperature     150(2)
_cell_measurement_reflns_used     ?
_cell_measurement_theta_min       ?
_cell_measurement_theta_max       ?
 
_exptl_crystal_description        ?
_exptl_crystal_colour             ?
_exptl_crystal_density_meas       ?
_exptl_crystal_density_method     ?
_exptl_crystal_density_diffrn     1.922          
_exptl_crystal_F_000              414
_exptl_transmission_factor_min    ?
_exptl_transmission_factor_max    ?
_exptl_crystal_size_max           ?
_exptl_crystal_size_mid           ?
_exptl_crystal_size_min           ?
_exptl_absorpt_coefficient_mu     0.987
_shelx_estimated_absorpt_T_min    ?
_shelx_estimated_absorpt_T_max    ?
_exptl_absorpt_correction_type    ?
_exptl_absorpt_correction_T_min   ?
_exptl_absorpt_correction_T_max   ?
_exptl_absorpt_process_details    ?
_exptl_absorpt_special_details    ?
_diffrn_ambient_temperature       150(2)
_diffrn_radiation_wavelength      0.71073
_diffrn_radiation_type            MoK\a
_diffrn_source                    ?
_diffrn_measurement_device_type   ?
_diffrn_measurement_method        ?
_diffrn_detector_area_resol_mean  ?
_diffrn_reflns_number             5539
_diffrn_reflns_av_unetI/netI      0.0402
_diffrn_reflns_av_R_equivalents   0.0206
_diffrn_reflns_limit_h_min        -6
_diffrn_reflns_limit_h_max        6
_diffrn_reflns_limit_k_min        -12
_diffrn_reflns_limit_k_max        11
_diffrn_reflns_limit_l_min        -17
_diffrn_reflns_limit_l_max        17
_diffrn_reflns_theta_min          2.094
_diffrn_reflns_theta_max          28.819
_diffrn_reflns_theta_full         25.242
_diffrn_measured_fraction_theta_max   0.840
_diffrn_measured_fraction_theta_full  1.000
_diffrn_reflns_Laue_measured_fraction_max    0.840
_diffrn_reflns_Laue_measured_fraction_full   1.000
_diffrn_reflns_point_group_measured_fraction_max   0.840
_diffrn_reflns_point_group_measured_fraction_full  1.000
_reflns_number_total              3114
_reflns_number_gt                 2953
_reflns_threshold_expression      'I > 2\s(I)'
_reflns_Friedel_coverage          0.000
_reflns_Friedel_fraction_max      .
_reflns_Friedel_fraction_full     .
 
_reflns_special_details
;
 Reflections were merged by SHELXL according to the crystal
 class for the calculation of statistics and refinement.
 
 _reflns_Friedel_fraction is defined as the number of unique
 Friedel pairs measured divided by the number that would be
 possible theoretically, ignoring centric projections and
 systematic absences.
;
 
_computing_data_collection        ?
_computing_cell_refinement        ?
_computing_data_reduction         ?
_computing_structure_solution     ?
_computing_structure_refinement 'SHELXL-2018/3 (Sheldrick, 2018)'
_computing_molecular_graphics     ?
_computing_publication_material   ?
_refine_special_details           ?
_refine_ls_structure_factor_coef  Fsqd
_refine_ls_matrix_type            full
_refine_ls_weighting_scheme       calc
_refine_ls_weighting_details
'w=1/[\s^2^(Fo^2^)+(0.0219P)^2^+0.2772P] where P=(Fo^2^+2Fc^2^)/3'
_atom_sites_solution_primary      ?
_atom_sites_solution_secondary    ?
_atom_sites_solution_hydrogens    geom
_refine_ls_hydrogen_treatment     constr
_refine_ls_extinction_method      none
_refine_ls_extinction_coef        .
_refine_ls_number_reflns          3114
_refine_ls_number_parameters      232
_refine_ls_number_restraints      0
_refine_ls_R_factor_all           0.0297
_refine_ls_R_factor_gt            0.0274
_refine_ls_wR_factor_ref          0.0582
_refine_ls_wR_factor_gt           0.0572
_refine_ls_goodness_of_fit_ref    1.050
_refine_ls_restrained_S_all       1.050
_refine_ls_shift/su_max           0.001
_refine_ls_shift/su_mean          0.000
 
loop_
 _atom_site_label
 _atom_site_type_symbol
 _atom_site_fract_x
 _atom_site_fract_y
 _atom_site_fract_z
 _atom_site_U_iso_or_equiv
 _atom_site_adp_type
 _atom_site_occupancy
 _atom_site_site_symmetry_order  
 _atom_site_calc_flag
 _atom_site_refinement_flags_posn
 _atom_site_refinement_flags_adp
 _atom_site_refinement_flags_occupancy
 _atom_site_disorder_assembly
 _atom_site_disorder_group
Cd1 Cd 0.500000 0.500000 1.000000 0.01136(7) Uani 1 2 d S . P . .
N0 N 0.8861(3) 0.4917(2) 0.71940(14) 0.0183(4) Uani 1 1 d . . . . .
S1 S 0.09244(11) 0.08795(6) 0.70947(4) 0.02075(14) Uani 1 1 d . . . . .
O003 O 0.8258(3) 0.33734(15) 1.06990(11) 0.0147(3) Uani 1 1 d . . . . .
O004 O 1.2259(3) 0.31896(16) 1.00021(12) 0.0210(4) Uani 1 1 d . . . . .
N005 N 0.6418(3) 0.48122(18) 0.85306(13) 0.0131(4) Uani 1 1 d . . . . .
N006 N 0.6653(3) 0.41317(18) 0.72419(13) 0.0130(4) Uani 1 1 d . . . . .
N007 N 0.1818(3) 0.10598(19) 0.59990(14) 0.0166(4) Uani 1 1 d . . . . .
N008 N 0.2783(3) 0.19744(19) 0.73615(14) 0.0171(4) Uani 1 1 d . . . . .
N9 N 0.6077(4) 0.2549(2) 0.32910(14) 0.0186(4) Uani 1 1 d . . . . .
N10 N 0.4636(3) 0.20493(19) 0.41156(13) 0.0145(4) Uani 1 1 d . . . . .
N20 N 0.3012(4) 0.1082(2) 0.30981(15) 0.0232(5) Uani 1 1 d . . . . .
C00D C 0.5238(4) 0.4095(2) 0.80435(15) 0.0122(4) Uani 1 1 d . . . . .
H00D H 0.362635 0.362334 0.823078 0.015 Uiso 1 1 calc R U . . .
C00E C 0.9511(4) 0.1232(2) 1.03717(16) 0.0137(4) Uani 1 1 d . . . . .
H00E H 0.806308 0.089662 1.085551 0.016 Uiso 1 1 calc R U . . .
C00F C 0.4235(4) 0.2543(2) 0.65791(16) 0.0139(4) Uani 1 1 d . . . . .
C00G C 1.0059(4) 0.2723(2) 1.03560(16) 0.0133(4) Uani 1 1 d . . . . .
C00H C 0.5019(4) 0.1941(2) 0.27113(17) 0.0179(5) Uani 1 1 d . . . . .
H00H H 0.560917 0.208973 0.207000 0.022 Uiso 1 1 calc R U . . .
C00I C 0.6163(4) 0.3558(2) 0.64894(16) 0.0142(4) Uani 1 1 d . . . . .
C00J C 0.8022(4) -0.0271(2) 0.93641(17) 0.0163(5) Uani 1 1 d . . . . .
H00A H 0.652331 -0.063721 0.980514 0.020 Uiso 1 1 calc R U . . .
H00B H 0.748265 -0.024753 0.871560 0.020 Uiso 1 1 calc R U . . .
C00K C 0.8515(4) 0.1191(2) 0.94010(17) 0.0166(5) Uani 1 1 d . . . . .
H00C H 0.682637 0.175710 0.925925 0.020 Uiso 1 1 calc R U . . .
H00F H 0.986232 0.159780 0.890630 0.020 Uiso 1 1 calc R U . . .
C00L C 0.3696(4) 0.2018(2) 0.57908(16) 0.0136(4) Uani 1 1 d . . . . .
C00M C 0.8615(4) 0.5288(2) 0.79816(16) 0.0161(5) Uani 1 1 d . . . . .
H00M H 0.986923 0.584541 0.815780 0.019 Uiso 1 1 calc R U . . .
C00N C 0.5147(4) 0.2501(2) 0.49181(16) 0.0147(4) Uani 1 1 d . . . . .
C00O C 0.7538(4) 0.3962(3) 0.56549(18) 0.0230(5) Uani 1 1 d . . . . .
H00O H 0.888114 0.461558 0.559260 0.028 Uiso 1 1 calc R U . . .
C00P C 0.2830(4) 0.1186(3) 0.39695(17) 0.0218(5) Uani 1 1 d . . . . .
H00P H 0.158948 0.071436 0.443640 0.026 Uiso 1 1 calc R U . . .
C00Q C 0.7053(4) 0.3447(2) 0.48706(17) 0.0214(5) Uani 1 1 d . . . . .
H00Q H 0.807024 0.376617 0.430017 0.026 Uiso 1 1 calc R U . . .
 
loop_
 _atom_site_aniso_label
 _atom_site_aniso_U_11
 _atom_site_aniso_U_22
 _atom_site_aniso_U_33
 _atom_site_aniso_U_23
 _atom_site_aniso_U_13
 _atom_site_aniso_U_12
Cd1 0.01447(12) 0.00995(12) 0.01060(13) -0.00465(9) 0.00221(8) -0.00054(7)
N0 0.0166(9) 0.0238(11) 0.0192(11) -0.0122(9) 0.0042(7) -0.0110(7)
S1 0.0271(3) 0.0237(3) 0.0146(3) -0.0089(3) 0.0057(2) -0.0153(2)
O003 0.0170(7) 0.0138(8) 0.0152(9) -0.0078(7) -0.0008(6) 0.0026(6)
O004 0.0200(8) 0.0132(8) 0.0316(10) -0.0093(8) 0.0080(7) -0.0064(6)
N005 0.0160(9) 0.0110(9) 0.0125(10) -0.0035(8) -0.0010(7) -0.0003(6)
N006 0.0146(9) 0.0147(10) 0.0123(10) -0.0075(8) 0.0026(7) -0.0059(7)
N007 0.0201(9) 0.0165(10) 0.0145(10) -0.0058(8) 0.0027(7) -0.0066(7)
N008 0.0207(9) 0.0180(10) 0.0143(10) -0.0064(8) 0.0023(7) -0.0088(7)
N9 0.0264(10) 0.0192(11) 0.0110(10) -0.0051(9) 0.0049(7) -0.0071(8)
N10 0.0184(9) 0.0155(10) 0.0115(10) -0.0064(8) 0.0020(7) -0.0048(7)
N20 0.0267(10) 0.0275(12) 0.0199(12) -0.0127(10) 0.0021(8) -0.0117(8)
C00D 0.0138(10) 0.0117(11) 0.0122(11) -0.0054(9) 0.0009(8) -0.0010(7)
C00E 0.0132(10) 0.0124(11) 0.0168(12) -0.0061(9) 0.0037(8) -0.0032(8)
C00F 0.0144(10) 0.0148(11) 0.0130(12) -0.0046(9) 0.0011(8) -0.0019(8)
C00G 0.0152(10) 0.0127(11) 0.0130(12) -0.0051(9) -0.0028(8) -0.0007(8)
C00H 0.0271(12) 0.0169(12) 0.0115(12) -0.0068(10) -0.0005(9) -0.0007(9)
C00I 0.0161(10) 0.0162(12) 0.0123(12) -0.0068(10) 0.0007(8) -0.0048(8)
C00J 0.0184(11) 0.0139(12) 0.0182(13) -0.0064(10) -0.0030(9) -0.0024(8)
C00K 0.0183(11) 0.0121(11) 0.0191(13) -0.0037(10) -0.0020(9) -0.0008(8)
C00L 0.0145(10) 0.0131(11) 0.0144(12) -0.0053(9) -0.0023(8) -0.0013(8)
C00M 0.0140(10) 0.0196(12) 0.0181(13) -0.0105(10) 0.0016(8) -0.0042(8)
C00N 0.0176(10) 0.0152(12) 0.0130(12) -0.0067(10) 0.0004(8) -0.0025(8)
C00O 0.0269(12) 0.0283(14) 0.0194(13) -0.0137(11) 0.0068(9) -0.0175(10)
C00P 0.0246(12) 0.0266(14) 0.0182(13) -0.0113(11) 0.0044(9) -0.0133(9)
C00Q 0.0264(12) 0.0265(14) 0.0144(13) -0.0096(11) 0.0073(9) -0.0133(10)
 
_geom_special_details
;
 All esds (except the esd in the dihedral angle between two l.s. planes)
 are estimated using the full covariance matrix.  The cell esds are taken
 into account individually in the estimation of esds in distances, angles
 and torsion angles; correlations between esds in cell parameters are only
 used when they are defined by crystal symmetry.  An approximate (isotropic)
 treatment of cell esds is used for estimating esds involving l.s. planes.
;
 
loop_
 _geom_bond_atom_site_label_1
 _geom_bond_atom_site_label_2
 _geom_bond_distance
 _geom_bond_site_symmetry_2
 _geom_bond_publ_flag
Cd1 N005 2.3007(18) 2_667 ?
Cd1 N005 2.3007(18) . ?
Cd1 O003 2.3070(14) . ?
Cd1 O003 2.3070(14) 2_667 ?
Cd1 O004 2.3396(14) 1_455 ?
Cd1 O004 2.3396(14) 2_767 ?
N0 C00M 1.309(3) . ?
N0 N006 1.379(2) . ?
S1 N008 1.6138(18) . ?
S1 N007 1.6170(19) . ?
O003 C00G 1.261(2) . ?
O004 C00G 1.256(2) . ?
N005 C00D 1.318(3) . ?
N005 C00M 1.366(3) . ?
N006 C00D 1.345(3) . ?
N006 C00I 1.414(3) . ?
N007 C00L 1.350(3) . ?
N008 C00F 1.341(3) . ?
N9 C00H 1.314(3) . ?
N9 N10 1.371(2) . ?
N10 C00P 1.347(3) . ?
N10 C00N 1.408(3) . ?
N20 C00P 1.310(3) . ?
N20 C00H 1.364(3) . ?
C00D H00D 0.9500 . ?
C00E C00J 1.522(3) 2_757 ?
C00E C00K 1.534(3) . ?
C00E C00G 1.541(3) . ?
C00E H00E 1.0000 . ?
C00F C00I 1.419(3) . ?
C00F C00L 1.436(3) . ?
C00H H00H 0.9500 . ?
C00I C00O 1.355(3) . ?
C00J C00K 1.529(3) . ?
C00J H00A 0.9900 . ?
C00J H00B 0.9900 . ?
C00K H00C 0.9900 . ?
C00K H00F 0.9900 . ?
C00L C00N 1.426(3) . ?
C00M H00M 0.9500 . ?
C00N C00Q 1.370(3) . ?
C00O C00Q 1.418(3) . ?
C00O H00O 0.9500 . ?
C00P H00P 0.9500 . ?
C00Q H00Q 0.9500 . ?
 
loop_
 _geom_angle_atom_site_label_1
 _geom_angle_atom_site_label_2
 _geom_angle_atom_site_label_3
 _geom_angle
 _geom_angle_site_symmetry_1
 _geom_angle_site_symmetry_3
 _geom_angle_publ_flag
N005 Cd1 N005 180.00(7) 2_667 . ?
N005 Cd1 O003 90.17(6) 2_667 . ?
N005 Cd1 O003 89.83(6) . . ?
N005 Cd1 O003 89.83(6) 2_667 2_667 ?
N005 Cd1 O003 90.17(6) . 2_667 ?
O003 Cd1 O003 180.0 . 2_667 ?
N005 Cd1 O004 95.33(6) 2_667 1_455 ?
N005 Cd1 O004 84.67(6) . 1_455 ?
O003 Cd1 O004 87.88(5) . 1_455 ?
O003 Cd1 O004 92.12(5) 2_667 1_455 ?
N005 Cd1 O004 84.67(6) 2_667 2_767 ?
N005 Cd1 O004 95.33(6) . 2_767 ?
O003 Cd1 O004 92.12(5) . 2_767 ?
O003 Cd1 O004 87.88(5) 2_667 2_767 ?
O004 Cd1 O004 180.0 1_455 2_767 ?
C00M N0 N006 102.24(16) . . ?
N008 S1 N007 100.83(9) . . ?
C00G O003 Cd1 132.12(14) . . ?
C00G O004 Cd1 138.93(14) . 1_655 ?
C00D N005 C00M 103.40(18) . . ?
C00D N005 Cd1 124.81(14) . . ?
C00M N005 Cd1 131.68(14) . . ?
C00D N006 N0 109.54(17) . . ?
C00D N006 C00I 130.82(17) . . ?
N0 N006 C00I 119.60(17) . . ?
C00L N007 S1 106.50(15) . . ?
C00F N008 S1 106.53(15) . . ?
C00H N9 N10 102.48(18) . . ?
C00P N10 N9 108.77(18) . . ?
C00P N10 C00N 131.49(19) . . ?
N9 N10 C00N 119.71(17) . . ?
C00P N20 C00H 102.66(18) . . ?
N005 C00D N006 109.90(18) . . ?
N005 C00D H00D 125.0 . . ?
N006 C00D H00D 125.0 . . ?
C00J C00E C00K 109.69(17) 2_757 . ?
C00J C00E C00G 112.36(16) 2_757 . ?
C00K C00E C00G 109.91(18) . . ?
C00J C00E H00E 108.3 2_757 . ?
C00K C00E H00E 108.3 . . ?
C00G C00E H00E 108.3 . . ?
N008 C00F C00I 126.1(2) . . ?
N008 C00F C00L 113.45(18) . . ?
C00I C00F C00L 120.44(19) . . ?
O004 C00G O003 125.4(2) . . ?
O004 C00G C00E 117.37(18) . . ?
O003 C00G C00E 117.18(17) . . ?
N9 C00H N20 115.1(2) . . ?
N9 C00H H00H 122.5 . . ?
N20 C00H H00H 122.5 . . ?
C00O C00I N006 120.65(19) . . ?
C00O C00I C00F 117.8(2) . . ?
N006 C00I C00F 121.57(19) . . ?
C00E C00J C00K 112.50(16) 2_757 . ?
C00E C00J H00A 109.1 2_757 . ?
C00K C00J H00A 109.1 . . ?
C00E C00J H00B 109.1 2_757 . ?
C00K C00J H00B 109.1 . . ?
H00A C00J H00B 107.8 . . ?
C00J C00K C00E 112.27(19) . . ?
C00J C00K H00C 109.1 . . ?
C00E C00K H00C 109.1 . . ?
C00J C00K H00F 109.1 . . ?
C00E C00K H00F 109.1 . . ?
H00C C00K H00F 107.9 . . ?
N007 C00L C00N 127.57(19) . . ?
N007 C00L C00F 112.69(19) . . ?
C00N C00L C00F 119.72(18) . . ?
N0 C00M N005 114.91(18) . . ?
N0 C00M H00M 122.5 . . ?
N005 C00M H00M 122.5 . . ?
C00Q C00N N10 120.1(2) . . ?
C00Q C00N C00L 118.0(2) . . ?
N10 C00N C00L 121.90(18) . . ?
C00I C00O C00Q 122.6(2) . . ?
C00I C00O H00O 118.7 . . ?
C00Q C00O H00O 118.7 . . ?
N20 C00P N10 111.0(2) . . ?
N20 C00P H00P 124.5 . . ?
N10 C00P H00P 124.5 . . ?
C00N C00Q C00O 121.4(2) . . ?
C00N C00Q H00Q 119.3 . . ?
C00O C00Q H00Q 119.3 . . ?
 
_refine_diff_density_max    0.468
_refine_diff_density_min   -0.351
_refine_diff_density_rms    0.082

_shelx_res_file
;
TITL pvl419_a.res in P-1
    pvl419_a.res
    created by SHELXL-2018/3 at 15:30:51 on 21-Jun-2023
REM Old TITL pvl419 in P1
REM SHELXT solution in P-1
REM R1 0.125,  Rweak 0.021,  Alpha 0.075,  Orientation as input
REM Formula found by SHELXT:  C34 N10 O4 S2 Zn
CELL  0.71073   4.9908  10.1240  14.6613   74.067   88.186   87.181
ZERR    2.000   0.0002   0.0005   0.0006    0.004    0.004    0.004
LATT  1
SFAC C H N O S Cd
UNIT 28 22 16 4 2 1
ACTA
L.S. 6

BOND $H
LIST 4
TEMP -123

FMAP 2
PLAN 10

OMIT 0

WGHT    0.021900    0.277200
FVAR       4.51284
CD1   6    0.500000    0.500000    1.000000    10.50000    0.01447    0.00995 =
         0.01060   -0.00465    0.00221   -0.00054
N0    3    0.886108    0.491681    0.719397    11.00000    0.01661    0.02376 =
         0.01916   -0.01216    0.00417   -0.01104
S1    5    0.092436    0.087954    0.709474    11.00000    0.02711    0.02375 =
         0.01461   -0.00886    0.00573   -0.01531
O003  4    0.825835    0.337339    1.069899    11.00000    0.01704    0.01379 =
         0.01521   -0.00777   -0.00084    0.00257
O004  4    1.225911    0.318959    1.000207    11.00000    0.02005    0.01318 =
         0.03164   -0.00929    0.00796   -0.00640
N005  3    0.641792    0.481218    0.853061    11.00000    0.01605    0.01099 =
         0.01248   -0.00346   -0.00100   -0.00033
N006  3    0.665342    0.413172    0.724193    11.00000    0.01463    0.01470 =
         0.01230   -0.00747    0.00265   -0.00590
N007  3    0.181808    0.105979    0.599904    11.00000    0.02014    0.01650 =
         0.01450   -0.00584    0.00267   -0.00665
N008  3    0.278308    0.197443    0.736146    11.00000    0.02068    0.01801 =
         0.01432   -0.00640    0.00231   -0.00877
N9    3    0.607700    0.254874    0.329096    11.00000    0.02640    0.01925 =
         0.01095   -0.00510    0.00487   -0.00711
N10   3    0.463626    0.204931    0.411564    11.00000    0.01838    0.01553 =
         0.01152   -0.00635    0.00197   -0.00484
N20   3    0.301235    0.108181    0.309806    11.00000    0.02672    0.02746 =
         0.01993   -0.01275    0.00210   -0.01166
C00D  1    0.523784    0.409547    0.804345    11.00000    0.01377    0.01173 =
         0.01223   -0.00537    0.00088   -0.00096
AFIX  43
H00D  2    0.362635    0.362334    0.823078    11.00000   -1.20000
AFIX   0
C00E  1    0.951064    0.123239    1.037168    11.00000    0.01321    0.01236 =
         0.01684   -0.00615    0.00374   -0.00318
AFIX  13
H00E  2    0.806308    0.089662    1.085551    11.00000   -1.20000
AFIX   0
C00F  1    0.423524    0.254299    0.657908    11.00000    0.01444    0.01479 =
         0.01303   -0.00463    0.00111   -0.00194
C00G  1    1.005929    0.272305    1.035598    11.00000    0.01524    0.01270 =
         0.01300   -0.00515   -0.00277   -0.00068
C00H  1    0.501946    0.194131    0.271131    11.00000    0.02711    0.01689 =
         0.01148   -0.00676   -0.00049   -0.00069
AFIX  43
H00H  2    0.560917    0.208973    0.207000    11.00000   -1.20000
AFIX   0
C00I  1    0.616291    0.355753    0.648937    11.00000    0.01610    0.01625 =
         0.01231   -0.00676    0.00067   -0.00477
C00J  1    0.802240   -0.027150    0.936412    11.00000    0.01836    0.01394 =
         0.01822   -0.00639   -0.00300   -0.00239
AFIX  23
H00A  2    0.652331   -0.063721    0.980514    11.00000   -1.20000
H00B  2    0.748265   -0.024753    0.871560    11.00000   -1.20000
AFIX   0
C00K  1    0.851515    0.119113    0.940105    11.00000    0.01833    0.01214 =
         0.01914   -0.00369   -0.00196   -0.00080
AFIX  23
H00C  2    0.682637    0.175710    0.925925    11.00000   -1.20000
H00F  2    0.986232    0.159780    0.890630    11.00000   -1.20000
AFIX   0
C00L  1    0.369581    0.201834    0.579084    11.00000    0.01447    0.01309 =
         0.01439   -0.00530   -0.00232   -0.00131
C00M  1    0.861486    0.528775    0.798158    11.00000    0.01404    0.01964 =
         0.01808   -0.01051    0.00163   -0.00421
AFIX  43
H00M  2    0.986923    0.584541    0.815780    11.00000   -1.20000
AFIX   0
C00N  1    0.514716    0.250064    0.491815    11.00000    0.01761    0.01516 =
         0.01300   -0.00667    0.00042   -0.00249
C00O  1    0.753810    0.396165    0.565486    11.00000    0.02692    0.02828 =
         0.01942   -0.01371    0.00684   -0.01747
AFIX  43
H00O  2    0.888114    0.461558    0.559260    11.00000   -1.20000
AFIX   0
C00P  1    0.283025    0.118559    0.396955    11.00000    0.02456    0.02662 =
         0.01820   -0.01126    0.00440   -0.01326
AFIX  43
H00P  2    0.158948    0.071436    0.443640    11.00000   -1.20000
AFIX   0
C00Q  1    0.705271    0.344744    0.487059    11.00000    0.02638    0.02649 =
         0.01442   -0.00959    0.00730   -0.01328
AFIX  43
H00Q  2    0.807024    0.376617    0.430017    11.00000   -1.20000
AFIX   0
HKLF 4




REM  pvl419_a.res in P-1
REM wR2 = 0.0582, GooF = S = 1.050, Restrained GooF = 1.050 for all data
REM R1 = 0.0274 for 2953 Fo > 4sig(Fo) and 0.0297 for all 3114 data
REM 232 parameters refined using 0 restraints

END

WGHT      0.0217      0.2820

REM Highest difference peak  0.468,  deepest hole -0.351,  1-sigma level  0.082
Q1    1   0.7096  0.4999  1.0111  11.00000  0.05    0.47
Q2    1   0.7484  0.5060  0.8312  11.00000  0.05    0.41
Q3    1   1.1074  0.1006  1.0357  11.00000  0.05    0.39
Q4    1   0.3895  0.1623  0.4129  11.00000  0.05    0.38
Q5    1   0.5886  0.4338  1.0496  11.00000  0.05    0.35
Q6    1   0.9768  0.1986  1.0398  11.00000  0.05    0.33
Q7    1   0.6079  0.4246  0.8433  11.00000  0.05    0.33
Q8    1   0.5078  0.3087  0.6499  11.00000  0.05    0.33
Q9    1   1.0064  0.4757  0.6866  11.00000  0.05    0.32
Q10   1   0.1995  0.0810  0.6586  11.00000  0.05    0.32
;
_shelx_res_checksum   43919

_shelx_hkl_file
;
  -6  -6  -7 6188.54 686.165   3
  -6  -6  -6 752.949 267.711   3
  -6  -5  -8 3338.00 515.912   3
  -6  -5  -7 234.079 131.628   3
  -6  -5  -6 3663.91 510.850   3
  -6  -5  -5 13515.1 975.004   3
  -6  -5  -4 4246.99 553.527   3
  -6  -5  -3 1549.55 347.850   3
  -6  -5  -2 11896.3 882.148   3
  -6  -5  -1 8092.46 734.733   3
  -6  -5   0 1052.79 289.816   3
  -6  -5   1 2250.48 414.527   3
  -6  -4  -7 3049.07 484.798   3
  -6  -4  -6 3017.66 481.819   3
  -6  -4  -5 986.676 259.376   3
  -6  -4  -4 153.000 122.944   3
  -6  -4  -3 1303.46 315.073   3
  -6  -4  -2 317.269 175.571   3
  -6  -4  -1 432.348 243.009   3
  -6  -4   0 3725.51 508.899   3
  -6  -4   1 5242.70 602.163   3
  -6  -4   2 6099.59 647.203   3
  -6  -4   3 6464.29 677.849   3
  -6  -3  -7 4346.06 591.432   3
  -6  -3  -6 1696.96 380.582   3
  -6  -3  -5 8809.65 810.468   3
  -6  -3  -4 3840.86 541.832   3
  -6  -3  -3 3170.93 487.718   3
  -6  -3  -2 509.026 233.875   3
  -6  -3  -1 7464.43 728.684   3
  -6  -3   0 2648.71 436.624   3
  -6  -3   1 789.258 253.258   3
  -6  -3   2 9352.82 813.051   3
  -6  -3   3 2213.33 402.828   3
  -6  -3   4 813.655 252.635   3
  -6  -2  -6 19535.4 1246.47   3
  -6  -2  -5 6975.49 740.460   3
  -6  -2  -4 1794.87 380.920   3
  -6  -2  -3 11051.3 911.494   3
  -6  -2  -2 3155.01 488.751   3
  -6  -2  -1 2297.77 417.041   3
  -6  -2   0 7768.74 762.946   3
  -6  -2   1 8591.00 789.108   3
  -6  -2   2 1487.25 339.391   3
  -6  -2   3 2142.32 398.347   3
  -6  -2   4 9245.54 832.981   3
  -6  -2   5 5287.08 641.660   3
  -6  -1  -5 6179.01 699.695   3
  -6  -1  -4 16633.5 1143.81   3
  -6  -1  -3 239.716 193.910   3
  -6  -1  -2 4461.12 598.936   3
  -6  -1  -1 13809.4 1021.11   3
  -6  -1   0 4963.16 615.075   3
  -6  -1   1 2227.58 408.539   3
  -6  -1   2 3080.06 492.300   3
  -6  -1   3 6661.34 709.507   3
  -6  -1   4 3767.11 544.720   3
  -6  -1   5-20.4861 102.174   3
  -6   0  -4 1718.38 400.075   3
  -6   0  -3 1558.99 363.409   3
  -6   0  -2 5856.35 684.937   3
  -6   0  -1 11476.2 940.840   3
  -6   0   0 7032.13 739.910   3
  -6   0   1 5050.47 633.540   3
  -6   0   2 10925.6 912.352   3
  -6   0   3 191.222 145.398   3
  -6   0   4 7037.72 748.945   3
  -6   0   5 3265.31 532.960   3
  -6   1  -2 770.567 230.000   3
  -6   1  -1 2594.76 457.447   3
  -6   1   0 10756.3 920.060   3
  -6   1   1 5165.44 647.689   3
  -6   1   2 459.921 206.588   3
  -6   1   3 16886.9 1165.64   3
  -5  -7 -12 2445.80 450.139   3
  -5  -7 -11 5806.54 647.023   3
  -5  -7 -10 9743.60 816.578   3
  -5  -7  -9 182.978 180.816   3
  -5  -7  -8 5503.53 572.144   3
  -5  -7  -7 8930.10 698.070   3
  -5  -7  -6 2424.01 363.838   3
  -5  -7  -5 1000.25 232.333   3
  -5  -6 -11 1949.54 394.919   3
  -5  -6 -10 328.353 251.658   3
  -5  -6  -9 4214.41 540.474   3
  -5  -6  -8 8778.02 736.836   3
  -5  -6  -7 531.584 209.023   3
  -5  -6  -6 4520.64 500.329   3
  -5  -6  -5 13800.2 847.701   3
  -5  -6  -4 9495.62 688.150   3
  -5  -6  -3 3780.82 430.856   3
  -5  -6  -2 6193.60 539.064   3
  -5  -6  -1 3472.54 402.744   3
  -5  -6   0 1115.68 240.619   3
  -5  -6   1 2920.05 379.145   3
  -5  -5 -11 2388.73 436.619   3
  -5  -5 -10 6458.54 690.642   3
  -5  -5  -9 6431.42 668.109   3
  -5  -5  -8 962.676 282.298   3
  -5  -5  -7 165.914 163.423   3
  -5  -5  -6 5255.24 559.732   3
  -5  -5  -5 412.545 164.666   3
  -5  -5  -4 5648.32 545.527   3
  -5  -5  -3 5285.65 521.551   3
  -5  -5  -2 5228.30 518.580   3
  -5  -5  -1 312.940 157.370   3
  -5  -5   0 9460.64 687.046   3
  -5  -5   1 15110.3 861.077   3
  -5  -5   2 1278.95 246.543   3
  -5  -4 -10 5064.12 620.704   3
  -5  -4  -9 5640.73 641.840   3
  -5  -4  -8 15949.0 1036.42   3
  -5  -4  -7 2973.57 451.898   3
  -5  -4  -6 3082.46 438.732   3
  -5  -4  -5 27734.1 1254.59   3
  -5  -4  -4 24243.6 1156.17   3
  -5  -4  -3 2958.38 399.996   3
  -5  -4  -2 11739.6 788.901   3
  -5  -4  -1 8264.36 655.602   3
  -5  -4   0 3071.45 396.120   3
  -5  -4   1 6581.35 583.443   3
  -5  -4   2 12626.1 817.204   3
  -5  -4   3 1838.97 310.389   3
  -5  -3 -10 12204.8 956.214   3
  -5  -3  -9 9799.98 844.204   3
  -5  -3  -8 601.623 223.342   3
  -5  -3  -7 1768.46 360.401   3
  -5  -3  -6 10499.2 802.597   3
  -5  -3  -5 4108.42 503.426   3
  -5  -3  -4 2079.70 358.482   3
  -5  -3  -3 33496.2 1371.32   3
  -5  -3  -2 695.417 222.052   3
  -5  -3  -1 1923.37 325.307   3
  -5  -3   0 24406.7 1148.89   3
  -5  -3   1 25327.7 1167.81   3
  -5  -3   2 16083.9 938.800   3
  -5  -3   3 5871.70 571.882   3
  -5  -3   4 17510.5 997.195   3
  -5  -2 -10 4527.14 601.501   3
  -5  -2  -9 17953.1 1151.44   3
  -5  -2  -8 652.704 257.343   3
  -5  -2  -7 10778.0 853.003   3
  -5  -2  -6 2757.69 432.934   3
  -5  -2  -5 4177.74 511.829   3
  -5  -2  -4 12513.4 869.279   3
  -5  -2  -3 3020.92 424.782   3
  -5  -2  -2 202.926 106.515   3
  -5  -2  -1 1781.21 330.677   3
  -5  -2   0 12845.6 849.201   3
  -5  -2   1 7413.17 643.689   3
  -5  -2   2 1930.99 336.972   3
  -5  -2   3 21831.2 1115.76   3
  -5  -2   4 1347.85 289.182   3
  -5  -2   5 7428.55 675.328   3
  -5  -1 -10 6020.12 691.679   3
  -5  -1  -9 5529.71 655.752   3
  -5  -1  -8 1106.42 285.285   3
  -5  -1  -7 1736.42 367.542   3
  -5  -1  -6 6112.75 644.520   3
  -5  -1  -5 15170.6 986.289   3
  -5  -1  -4 4100.56 511.223   3
  -5  -1  -3 1141.50 286.528   3
  -5  -1  -2 8795.91 725.740   3
  -5  -1  -1 2047.04 361.498   3
  -5  -1   0 479.774 176.239   3
  -5  -1   1 9593.03 747.366   3
  -5  -1   2 21688.4 1130.58   3
  -5  -1   3 3107.16 436.393   3
  -5  -1   4 10299.3 790.437   3
  -5  -1   5 14064.7 938.388   3
  -5   0 -10 22752.3 1359.80   3
  -5   0  -9 2030.31 406.875   3
  -5   0  -8 5281.30 634.604   3
  -5   0  -7 9558.42 834.400   3
  -5   0  -6 5863.14 638.441   3
  -5   0  -5-22.0948 154.378   3
  -5   0  -4 9285.78 773.817   3
  -5   0  -3 9918.89 793.612   3
  -5   0  -2 1178.85 292.570   3
  -5   0  -1 46.9197 103.512   3
  -5   0   0 13268.4 894.910   3
  -5   0   1 3865.09 487.221   3
  -5   0   2 542.164 181.803   3
  -5   0   3 130.790 121.579   3
  -5   0   4 47076.6 1710.32   3
  -5   0   5 129.978 138.600   3
  -5   0   6 2057.55 385.231   3
  -5   1  -9 1569.37 368.625   3
  -5   1  -8 5859.70 674.026   3
  -5   1  -7 6077.29 685.862   3
  -5   1  -6 4889.70 599.649   3
  -5   1  -5 17218.5 1086.50   3
  -5   1  -4 19880.0 1151.82   3
  -5   1  -3 5260.03 595.713   3
  -5   1  -2 18373.5 1082.32   3
  -5   1  -1 7361.52 688.876   3
  -5   1   0 9061.75 757.950   3
  -5   1   1 12659.2 891.248   3
  -5   1   2 1432.25 304.985   3
  -5   1   3 9220.24 764.665   3
  -5   1   4-62.1530 108.468   3
  -5   1   5 1818.47 353.498   3
  -5   1   6 2486.86 435.715   3
  -5   2  -8 1935.07 408.180   3
  -5   2  -7 6113.03 700.782   3
  -5   2  -6 15798.2 1083.07   3
  -5   2  -5 4483.73 563.548   3
  -5   2  -4 4522.47 569.580   3
  -5   2  -3 25551.4 1310.36   3
  -5   2  -2 4070.82 527.580   3
  -5   2  -1 6290.36 650.020   3
  -5   2   0 16375.4 1032.54   3
  -5   2   1 16145.0 1019.12   3
  -5   2   2 6316.38 648.243   3
  -5   2   3 19235.2 1123.50   3
  -5   2   4 10386.9 838.787   3
  -5   2   5 7355.90 707.720   3
  -5   2   6 4634.12 576.106   3
  -5   2   7 13273.3 979.041   3
  -5   3  -7 2326.23 439.870   3
  -5   3  -6-246.225 162.684   3
  -5   3  -5 540.797 194.226   3
  -5   3  -4 6357.50 679.462   3
  -5   3  -3 8981.75 799.998   3
  -5   3  -2 532.580 228.579   3
  -5   3  -1 10400.7 845.359   3
  -5   3   0 16416.6 1054.23   3
  -5   3   1 11001.1 862.145   3
  -5   3   2 9656.37 806.176   3
  -5   3   3 22435.8 1232.88   3
  -5   3   4 11814.0 908.550   3
  -5   3   5 732.544 237.917   3
  -5   3   6 7853.18 748.006   3
  -5   3   7 11797.7 938.116   3
  -5   4  -6 3641.63 536.151   3
  -5   4  -5 5049.77 625.612   3
  -5   4  -4 5613.88 655.572   3
  -5   4  -3 1104.80 290.228   3
  -5   4  -2 4115.72 547.236   3
  -5   4  -1 842.600 264.203   3
  -5   4   0 587.393 235.900   3
  -5   4   1 5657.01 629.785   3
  -5   4   2 6677.10 690.476   3
  -5   4   3 2187.48 398.825   3
  -5   4   4 2905.83 467.652   3
  -5   4   5 6366.46 678.532   3
  -5   4   6 773.277 274.314   3
  -5   4   7 6198.65 692.761   3
  -5   5  -5 928.769 255.922   3
  -5   5  -4 8367.55 806.543   3
  -5   5  -3 3291.81 499.063   3
  -5   5  -2 495.770 214.128   3
  -5   5  -1 2109.93 398.280   3
  -5   5   0 4015.47 546.426   3
  -5   5   1 2488.49 429.030   3
  -5   5   2 5190.20 615.607   3
  -5   5   3 13502.7 990.050   3
  -5   5   4 405.024 228.315   3
  -5   5   5 824.990 275.684   3
  -5   5   6 7373.47 753.239   3
  -5   5   7 16420.0 1137.33   3
  -5   6  -3 4065.16 565.275   3
  -5   6  -2 2545.42 464.165   3
  -5   6  -1 2732.43 455.283   3
  -5   6   0 2225.60 414.282   3
  -5   6   1 4005.17 548.483   3
  -5   6   2 10171.0 880.449   3
  -5   6   3 3403.75 501.411   3
  -5   6   4 398.602 187.497   3
  -5   6   5 3541.39 527.294   3
  -5   6   6 7740.73 780.564   3
  -5   7  -1 3398.86 535.916   3
  -5   7   0 7827.21 789.886   3
  -5   7   1 9188.01 848.291   3
  -5   7   2 6929.07 735.542   3
  -5   7   3 478.354 204.762   3
  -5   7   4 6855.42 746.053   3
  -4 -11  -7 5306.15 600.469   2
  -4 -11  -6 25545.9 1335.24   2
  -4 -11  -5 3247.04 488.083   2
  -4 -11  -4 2911.63 458.926   2
  -4 -11  -3 21406.4 1207.81   2
  -4 -11  -2 2502.53 429.047   2
  -4 -11  -1 173.753 154.957   2
  -4 -10  -6 712.061 222.964   2
  -4 -10  -5 10331.1 794.766   2
  -4 -10  -4 14683.4 942.319   2
  -4 -10  -3 6681.38 645.254   2
  -4 -10  -2 3679.38 482.499   2
  -4 -10  -1 12015.8 859.258   2
  -4 -10   0 9762.51 789.125   2
  -4 -10   1 1034.60 282.247   2
  -4 -10   2 3086.39 454.800   2
  -4 -10   3 17754.4 1104.92   2
  -4  -9  -7 1670.11 289.938   4
  -4  -9  -6 8400.50 634.359   4
  -4  -9  -5 6935.60 614.448   2
  -4  -9  -4 383.040 153.652   2
  -4  -9  -3 10785.3 744.855   2
  -4  -9  -2 20184.7 1024.19   2
  -4  -9  -1 2594.85 381.484   2
  -4  -9   0 798.920 224.246   2
  -4  -9   1 7607.96 657.267   2
  -4  -9   2 7797.91 679.414   2
  -4  -9   3 251.584 172.642   2
  -4  -9   4 4296.51 546.310   2
  -4  -9   5 14400.8 983.455   2
  -4  -8 -11 3131.46 408.664   4
  -4  -8 -10 7056.61 596.753   4
  -4  -8  -9 114.837 99.4343   3
  -4  -8  -9 68.4205 108.906   4
  -4  -8  -8 1375.46 259.837   4
  -4  -8  -8 1255.27 247.650   3
  -4  -8  -7 12289.8 692.801   3
  -4  -8  -7 12178.9 713.824   4
  -4  -8  -6 56.7422 70.5289   3
  -4  -8  -6 218.397 123.371   4
  -4  -8  -5 76.4116 114.176   2
  -4  -8  -4 8456.45 622.715   2
  -4  -8  -3 14478.0 805.855   2
  -4  -8  -2 5428.57 494.040   2
  -4  -8  -1 5043.81 476.750   2
  -4  -8   0 6680.39 556.079   2
  -4  -8   1 3388.22 406.574   2
  -4  -8   2 3519.86 423.657   2
  -4  -8   3 5800.04 556.118   2
  -4  -8   4 6910.81 627.837   2
  -4  -8   5 248.704 156.222   2
  -4  -8   6 3106.68 448.256   2
  -4  -8   7 2809.76 441.159   2
  -4  -7 -12 24142.9 1120.83   4
  -4  -7 -11 4783.03 482.688   4
  -4  -7 -10 990.332 218.028   4
  -4  -7  -9 6967.51 546.061   4
  -4  -7  -8 22485.8 1024.02   3
  -4  -7  -8 23149.2 956.900   4
  -4  -7  -7 85.8102 85.2459   3
  -4  -7  -7 362.542 128.154   4
  -4  -7  -6 750.645 194.414   3
  -4  -7  -6 950.786 183.555   4
  -4  -7  -5 6944.31 478.758   4
  -4  -7  -5 8088.46 536.919   3
  -4  -7  -4 536.610 147.420   2
  -4  -7  -4 376.021 125.394   3
  -4  -7  -3 2068.84 259.528   3
  -4  -7  -3 1436.74 239.607   2
  -4  -7  -2 2663.14 315.286   2
  -4  -7  -2 2613.16 281.162   3
  -4  -7  -1 9186.96 589.702   2
  -4  -7  -1 9372.51 515.917   3
  -4  -7   0 495.603 153.295   2
  -4  -7   0 616.610 140.174   3
  -4  -7   1 3249.39 367.011   2
  -4  -7   2 22907.4 986.732   2
  -4  -7   3 4336.09 446.029   2
  -4  -7   4 8169.94 627.676   2
  -4  -7   5 12305.7 797.546   2
  -4  -7   6 6345.98 590.414   2
  -4  -7   7 2293.08 382.659   2
  -4  -7   8 9195.07 765.451   2
  -4  -7   9 6034.03 634.185   2
  -4  -6 -13 24819.0 1145.00   4
  -4  -6 -12 2424.30 342.659   4
  -4  -6 -11 3624.03 403.745   4
  -4  -6 -10 15907.0 806.328   4
  -4  -6  -9 12864.4 694.158   4
  -4  -6  -8 4138.38 381.455   4
  -4  -6  -7 15605.0 844.476   3
  -4  -6  -7 16903.6 733.930   4
  -4  -6  -6 7703.78 576.256   3
  -4  -6  -6 8592.73 497.868   4
  -4  -6  -5 284.935 108.399   4
  -4  -6  -5 203.702 71.0305   3
  -4  -6  -4 12903.0 631.883   2
  -4  -6  -4 13250.5 698.847   3
  -4  -6  -3 34791.8 1106.08   3
  -4  -6  -3 35564.4 1040.47   2
  -4  -6  -2 1604.45 228.905   2
  -4  -6  -2 2307.00 280.639   3
  -4  -6  -1 4288.07 369.742   2
  -4  -6  -1 4313.57 376.041   3
  -4  -6   0 9421.85 552.651   3
  -4  -6   0 10049.1 569.958   2
  -4  -6   1 4532.54 389.003   3
  -4  -6   1 3900.82 365.249   2
  -4  -6   2 4053.02 384.651   2
  -4  -6   3 14000.0 735.304   2
  -4  -6   4 7496.22 556.164   2
  -4  -6   5 136.799 83.5479   2
  -4  -6   6 2415.11 343.478   2
  -4  -6   7 8844.17 679.917   2
  -4  -6   8 2295.29 357.659   2
  -4  -6   9-91.8556 179.963   2
  -4  -6  10 7173.78 686.656   2
  -4  -5 -14 1831.67 344.547   4
  -4  -5 -13 101.419 122.719   4
  -4  -5 -12 13722.1 797.396   4
  -4  -5 -11 5825.33 497.335   4
  -4  -5 -10 5103.74 439.917   4
  -4  -5  -9 24807.8 912.182   4
  -4  -5  -8 39178.9 1086.32   4
  -4  -5  -7 10832.7 542.145   4
  -4  -5  -7 9478.49 673.872   3
  -4  -5  -7 9615.61 529.391   2
  -4  -5  -6 6078.23 385.052   4
  -4  -5  -6 5807.90 397.247   2
  -4  -5  -6 5810.34 519.796   3
  -4  -5  -5 30504.5 1132.52   3
  -4  -5  -5 34727.9 851.635   4
  -4  -5  -4 26573.1 1024.34   3
  -4  -5  -3 1663.21 204.075   2
  -4  -5  -3 1160.57 205.111   3
  -4  -5  -2 45688.1 1026.88   2
  -4  -5  -2 44392.0 1273.71   3
  -4  -5  -1 6115.81 468.137   3
  -4  -5  -1 5596.08 365.593   2
  -4  -5   0 121.361 68.6149   2
  -4  -5   0 140.760 97.4057   3
  -4  -5   1 8888.62 487.982   2
  -4  -5   1 9777.43 591.720   3
  -4  -5   2 21309.2 783.451   2
  -4  -5   2 23126.0 913.480   3
  -4  -5   3 20388.2 803.908   2
  -4  -5   4 2199.77 277.599   2
  -4  -5   5 6335.21 492.629   2
  -4  -5   6 42221.3 1322.41   2
  -4  -5   7 2003.47 306.196   2
  -4  -5   8 6294.75 559.448   2
  -4  -5   9 6994.64 620.741   2
  -4  -5  10 14481.6 925.967   2
  -4  -5  11 199.648 165.377   2
  -4  -4 -15 1709.47 321.598   4
  -4  -4 -14 2221.32 346.613   4
  -4  -4 -13 8417.64 638.122   4
  -4  -4 -12 2560.91 339.138   4
  -4  -4 -11 909.938 195.450   4
  -4  -4 -10 3152.10 337.096   4
  -4  -4  -9 695.477 161.032   4
  -4  -4  -8 27141.9 858.754   4
  -4  -4  -8 25977.3 847.714   2
  -4  -4  -7 3653.99 293.199   4
  -4  -4  -7 3753.90 306.624   2
  -4  -4  -6 11846.3 501.192   2
  -4  -4  -6 12449.3 493.635   4
  -4  -4  -6 11102.8 727.381   3
  -4  -4  -5 12545.9 489.456   2
  -4  -4  -5 11908.3 436.314   4
  -4  -4  -5 10572.3 691.450   3
  -4  -4  -4 6034.75 321.993   2
  -4  -4  -4 5326.89 475.390   3
  -4  -4  -3 24315.1 634.332   2
  -4  -4  -3 22900.9 955.681   3
  -4  -4  -2 22335.6 591.014   2
  -4  -4  -2 21315.2 907.737   3
  -4  -4  -1 5677.11 305.003   2
  -4  -4  -1 5961.62 478.152   3
  -4  -4   0 2182.01 197.897   2
  -4  -4   0 2372.87 299.132   3
  -4  -4   1 25494.8 704.793   2
  -4  -4   1 23953.4 946.912   3
  -4  -4   2 25939.3 996.784   3
  -4  -4   2 25417.7 750.269   2
  -4  -4   3 1055.30 167.198   2
  -4  -4   3 616.452 172.247   3
  -4  -4   4 29460.6 912.622   2
  -4  -4   5 7499.03 488.912   2
  -4  -4   6 5545.52 449.197   2
  -4  -4   7 12107.0 697.987   2
  -4  -4   8 9926.01 664.273   2
  -4  -4   9 6486.71 567.929   2
  -4  -4  10 1558.34 297.975   2
  -4  -4  11 12839.5 873.242   2
  -4  -4  12 15584.1 1013.74   2
  -4  -3 -15 3586.16 463.457   4
  -4  -3 -14 3827.61 456.238   4
  -4  -3 -13 2280.36 339.724   4
  -4  -3 -12 4145.79 429.334   4
  -4  -3 -11 7682.42 544.187   4
  -4  -3 -10 3874.84 364.031   4
  -4  -3  -9 6525.74 436.654   4
  -4  -3  -9 6896.52 449.834   2
  -4  -3  -8 9212.92 486.133   2
  -4  -3  -8 9968.43 499.198   4
  -4  -3  -7 4783.62 319.960   2
  -4  -3  -7 4848.45 321.367   4
  -4  -3  -6 2521.04 358.576   3
  -4  -3  -6 2984.94 230.299   2
  -4  -3  -6 3428.41 238.853   4
  -4  -3  -5 4464.75 458.445   3
  -4  -3  -5 4486.50 233.795   4
  -4  -3  -5 4881.90 260.867   2
  -4  -3  -4 25388.3 1051.46   3
  -4  -3  -4 26758.0 535.482   2
  -4  -3  -3 13897.7 763.239   3
  -4  -3  -3 13543.2 331.106   2
  -4  -3  -3 13739.1 343.298   2
  -4  -3  -2 612.132 67.3095   2
  -4  -3  -2 491.147 143.767   3
  -4  -3  -2 585.533 63.6223   2
  -4  -3  -1 10373.1 645.604   3
  -4  -3  -1 10703.9 276.972   2
  -4  -3   0 8480.29 580.598   3
  -4  -3   0 7992.07 271.463   2
  -4  -3   1 36.3369 67.0583   3
  -4  -3   1 34.4649 32.3589   2
  -4  -3   2 1553.67 256.054   3
  -4  -3   2 1855.71 170.501   2
  -4  -3   3 37849.4 846.156   2
  -4  -3   3 37154.6 1238.76   3
  -4  -3   4 2154.95 312.875   3
  -4  -3   4 1826.07 208.099   2
  -4  -3   5 1573.75 205.361   2
  -4  -3   6 13070.0 639.978   2
  -4  -3   7 7220.67 504.273   2
  -4  -3   8 97.9039 61.8572   2
  -4  -3   9 8582.34 621.079   2
  -4  -3  10 12473.7 793.246   2
  -4  -3  11 8440.96 688.938   2
  -4  -3  12 3312.04 465.013   2
  -4  -3  13 9130.14 789.892   2
  -4  -2 -15 4825.19 540.985   4
  -4  -2 -14 348.483 154.179   4
  -4  -2 -13 6612.66 564.858   4
  -4  -2 -12 17194.8 853.941   4
  -4  -2 -11 196.014 122.986   4
  -4  -2 -10 245.310 110.914   4
  -4  -2  -9 50069.3 1204.52   2
  -4  -2  -9 50346.2 1210.49   4
  -4  -2  -8 2443.58 248.968   2
  -4  -2  -8 2609.30 253.170   4
  -4  -2  -7 231.833 71.9203   4
  -4  -2  -7 9.11112 53.0736   2
  -4  -2  -6 7892.29 347.360   2
  -4  -2  -6 8020.63 351.668   4
  -4  -2  -6 7913.44 636.260   3
  -4  -2  -5 20306.6 445.494   4
  -4  -2  -5 20336.7 462.311   2
  -4  -2  -5 18559.8 946.949   3
  -4  -2  -4 130.595 27.1251   2
  -4  -2  -4 487.916 171.044   3
  -4  -2  -3 4037.24 426.070   3
  -4  -2  -2 45476.6 1383.96   3
  -4  -2  -1 6329.92 512.647   3
  -4  -2   0 594.990 165.312   3
  -4  -2   1 21132.5 937.061   3
  -4  -2   2 24047.3 453.232   2
  -4  -2   2 23056.5 983.753   3
  -4  -2   3 7753.48 324.678   2
  -4  -2   3 7880.46 584.051   3
  -4  -2   4 6212.44 339.346   2
  -4  -2   4 6111.27 524.373   3
  -4  -2   5 56694.0 1142.69   2
  -4  -2   6 1711.45 219.147   2
  -4  -2   7 2485.90 286.208   2
  -4  -2   8 11755.7 662.071   2
  -4  -2   9 12449.9 722.563   2
  -4  -2  10 284.465 128.874   2
  -4  -2  11 4052.28 462.506   2
  -4  -2  12 13024.1 868.947   2
  -4  -2  13 2584.55 404.564   2
  -4  -2  14 366.923 184.694   2
  -4  -1 -15 1749.23 337.630   4
  -4  -1 -14 2808.11 402.830   4
  -4  -1 -13 16911.7 915.573   4
  -4  -1 -12 1242.98 244.872   4
  -4  -1 -11 13736.0 739.154   4
  -4  -1 -10 18880.2 811.130   4
  -4  -1  -9 6960.19 459.620   4
  -4  -1  -8 666.947 126.023   2
  -4  -1  -8 937.426 158.820   4
  -4  -1  -7 6903.95 378.852   4
  -4  -1  -7 7226.99 380.658   2
  -4  -1  -6 10199.4 733.199   3
  -4  -1  -6 11454.0 415.779   2
  -4  -1  -6 11948.2 438.391   4
  -4  -1  -5 598.521 83.6335   4
  -4  -1  -5 764.467 216.984   3
  -4  -1  -5 565.456 76.3007   2
  -4  -1  -4 6023.70 536.936   3
  -4  -1  -3 24229.0 1046.73   3
  -4  -1  -2 1038.59 229.571   3
  -4  -1  -1 10594.0 679.852   3
  -4  -1   0 8889.63 621.776   3
  -4  -1   1 9666.77 646.243   3
  -4  -1   2 22679.8 995.673   3
  -4  -1   3 6040.16 525.502   3
  -4  -1   4 33154.4 1235.78   3
  -4  -1   5 5291.81 508.468   3
  -4  -1   7 12328.5 593.514   2
  -4  -1   8 436.811 130.194   2
  -4  -1   9 4866.81 434.333   2
  -4  -1  10 8344.19 731.756   2
  -4  -1  11 3441.62 413.456   2
  -4  -1  12 4214.32 483.727   2
  -4   0 -15 2421.51 391.541   4
  -4   0 -14-70.6762 131.585   4
  -4   0 -13 393.700 164.427   4
  -4   0 -12 10054.5 688.918   4
  -4   0 -11 7545.79 567.329   4
  -4   0 -10 6616.56 500.064   4
  -4   0  -9 5891.55 442.266   4
  -4   0  -8 22293.6 770.711   2
  -4   0  -8 22119.6 789.186   4
  -4   0  -7 8942.72 442.745   2
  -4   0  -7 9645.27 478.258   4
  -4   0  -6 7707.99 361.394   2
  -4   0  -6 7338.05 636.709   3
  -4   0  -6 7521.21 374.233   4
  -4   0  -5 40993.3 1453.74   3
  -4   0  -5 41251.9 797.018   4
  -4   0  -5 41616.0 754.695   4
  -4   0  -5 39104.6 664.489   2
  -4   0  -4 19908.9 407.355   4
  -4   0  -4 19658.9 983.929   3
  -4   0  -4 19722.8 429.452   4
  -4   0  -3 2098.58 328.049   3
  -4   0  -2 46118.1 1453.84   3
  -4   0  -1 11534.0 723.030   3
  -4   0   0 5281.98 484.640   3
  -4   0   1 12555.6 750.377   3
  -4   0   2 29040.6 1144.60   3
  -4   0   3 8427.82 623.849   3
  -4   0   4 24216.5 1071.22   3
  -4   0   5 11810.0 765.272   3
  -4   0   6 9323.11 695.600   3
  -4   1 -15 175.941 117.555   4
  -4   1  -7 5931.95 607.143   3
  -4   1  -7 7162.44 430.520   2
  -4   1  -6 17392.8 993.999   3
  -4   1  -6 17721.2 605.471   2
  -4   1  -5 4543.45 303.424   4
  -4   1  -5 3598.60 446.589   3
  -4   1  -4 328.105 168.333   3
  -4   1  -4 377.711 79.1445   4
  -4   1  -3 6769.65 269.210   4
  -4   1  -3 5871.85 546.862   3
  -4   1  -2 29100.9 358.347   4
  -4   1  -2 32582.8 1254.52   3
  -4   1  -1 171.684 121.277   3
  -4   1   0 4974.98 486.631   3
  -4   1   1 22641.2 1029.65   3
  -4   1   2 27492.4 1137.54   3
  -4   1   3 15876.0 874.593   3
  -4   1   4 42198.3 1441.96   3
  -4   1   5 50708.6 1602.33   3
  -4   1   6 6750.51 599.243   3
  -4   2  -7 16960.0 1018.46   3
  -4   2  -6 14661.7 665.354   4
  -4   2  -6 15097.3 947.212   3
  -4   2  -5 8138.63 460.273   4
  -4   2  -5 7727.65 666.116   3
  -4   2  -4 12175.3 521.641   4
  -4   2  -4 13385.2 851.686   3
  -4   2  -3 21332.2 624.353   4
  -4   2  -3 21303.1 1050.04   3
  -4   2  -2 3234.95 414.732   3
  -4   2  -2 3241.40 219.166   4
  -4   2  -1 10718.0 725.270   3
  -4   2  -1 10480.5 345.573   4
  -4   2   0 2559.69 352.609   3
  -4   2   0 2705.04 160.778   4
  -4   2   1 117.322 36.0515   4
  -4   2   1 98.7710 78.7743   3
  -4   2   2 3133.17 407.125   3
  -4   2   3 11042.6 741.718   3
  -4   2   4 1404.12 271.580   3
  -4   2   5 169.877 137.751   3
  -4   2   6 10513.2 762.028   3
  -4   3  -8 9948.15 824.189   3
  -4   3  -7 3450.63 487.636   3
  -4   3  -6 10302.2 609.450   4
  -4   3  -6 10542.9 811.714   3
  -4   3  -5 14600.6 687.920   4
  -4   3  -5 14788.8 930.444   3
  -4   3  -4 1218.89 195.795   4
  -4   3  -4 876.416 243.811   3
  -4   3  -3 14554.5 891.093   3
  -4   3  -3 14041.5 596.693   4
  -4   3  -2 16407.2 603.986   4
  -4   3  -2 15462.1 907.070   3
  -4   3  -1 2550.90 376.727   3
  -4   3  -1 2561.36 227.609   4
  -4   3   0 1592.63 168.346   4
  -4   3   0 1710.83 303.955   3
  -4   3   1 12546.6 803.098   3
  -4   3   1 12217.0 455.012   4
  -4   3   2 4819.71 499.064   3
  -4   3   2 5156.55 296.286   4
  -4   3   3 2399.40 361.722   3
  -4   3   3 2758.65 223.872   4
  -4   3   4 21653.9 1071.20   3
  -4   3   5 2196.90 353.583   3
  -4   3   6 112.882 112.614   3
  -4   3   7 1617.38 315.255   3
  -4   4 -10 2471.88 483.350   3
  -4   4  -9 205.268 178.179   3
  -4   4  -8 2817.46 465.636   3
  -4   4  -7 3570.09 497.384   3
  -4   4  -6 4840.89 570.972   3
  -4   4  -5 1488.17 329.998   3
  -4   4  -4 9057.77 733.968   3
  -4   4  -4 8349.82 551.412   4
  -4   4  -3 15207.1 703.690   4
  -4   4  -3 14201.8 901.473   3
  -4   4  -2 7919.73 666.175   3
  -4   4  -2 7910.42 488.190   4
  -4   4  -1 10196.9 746.300   3
  -4   4  -1 10140.4 525.959   4
  -4   4   0 11615.1 793.024   3
  -4   4   0 12948.0 575.737   4
  -4   4   1 8054.59 441.370   4
  -4   4   1 7086.54 621.445   3
  -4   4   2 8444.96 677.980   3
  -4   4   2 8213.30 444.636   4
  -4   4   3 19963.2 1049.15   3
  -4   4   3 19731.7 684.606   4
  -4   4   4 12640.2 562.069   4
  -4   4   4 12658.5 838.976   3
  -4   4   5-89.4294 125.100   3
  -4   4   5-142.501 83.5644   4
  -4   4   6 869.164 242.184   3
  -4   4   7 11015.0 825.236   3
  -4   5 -10 979.730 302.876   3
  -4   5  -9 10024.9 879.972   3
  -4   5  -8 1627.83 362.082   3
  -4   5  -7 3030.16 473.007   3
  -4   5  -6 4530.76 559.934   3
  -4   5  -5 7646.22 703.241   3
  -4   5  -4 3426.84 464.381   3
  -4   5  -3 2889.63 423.971   3
  -4   5  -2 16001.4 767.511   4
  -4   5  -2 16656.7 981.179   3
  -4   5  -1 8670.92 710.855   3
  -4   5  -1 8981.47 557.887   4
  -4   5   0 1911.65 347.807   3
  -4   5   0 1784.86 251.710   4
  -4   5   1 12088.6 615.711   4
  -4   5   1 12388.8 835.403   3
  -4   5   2 20536.9 788.467   4
  -4   5   2 21621.7 1102.63   3
  -4   5   3 25556.6 883.202   4
  -4   5   3 27203.6 1241.53   3
  -4   5   4 371.193 101.196   4
  -4   5   4 455.243 186.690   3
  -4   5   5 17310.4 1010.89   3
  -4   5   5 17241.2 745.155   4
  -4   5   6 5856.27 601.492   3
  -4   5   6 5981.08 454.193   4
  -4   5   7 18.5448 112.366   3
  -4   6  -9 6193.47 714.553   3
  -4   6  -8 3088.98 485.375   3
  -4   6  -7 6076.79 659.739   3
  -4   6  -6 6747.10 687.337   3
  -4   6  -5 1574.47 326.191   3
  -4   6  -4 4610.64 549.876   3
  -4   6  -3 14653.4 953.621   3
  -4   6  -2 255.825 167.519   3
  -4   6  -1 7339.17 670.004   3
  -4   6   0 6421.30 618.102   3
  -4   6   1 7746.96 681.764   3
  -4   6   2 13730.1 899.519   3
  -4   6   3 17633.8 1023.21   3
  -4   6   4 19210.6 1081.00   3
  -4   6   5 11261.0 836.582   3
  -4   6   6 5788.96 615.352   3
  -4   6   7 20290.7 1151.60   3
  -4   7  -8 5691.50 673.698   3
  -4   7  -7 2008.45 390.687   3
  -4   7  -6 3047.06 477.351   3
  -4   7  -5 4163.64 545.567   3
  -4   7  -4 11724.4 890.195   3
  -4   7  -3 1192.03 303.380   3
  -4   7  -2 1355.95 304.506   3
  -4   7  -1 7958.13 718.006   3
  -4   7   0 3366.68 473.296   3
  -4   7   1 2205.13 383.122   3
  -4   7   2 15207.9 969.126   3
  -4   7   3 7608.31 694.314   3
  -4   7   4 4537.96 540.298   3
  -4   7   5 2298.50 391.569   3
  -4   7   6 11235.1 862.279   3
  -4   8  -7 5027.81 637.418   3
  -4   8  -6 11852.2 937.611   3
  -4   8  -5 18815.4 1151.81   3
  -4   8  -4 6708.09 685.788   3
  -4   8  -3 882.897 265.391   3
  -4   8  -2 25109.0 1297.46   3
  -4   8  -1 124.814 128.518   3
  -4   8   0 850.114 246.972   3
  -4   8   1 7708.38 708.710   3
  -4   8   2 2517.88 416.250   3
  -4   8   3 32.5871 162.941   3
  -4   8   4 1545.40 331.429   3
  -4   8   5 7645.80 720.444   3
  -4   8   6 1041.91 279.443   3
  -4   9  -4 2653.18 446.301   3
  -4   9  -3 2566.95 437.695   3
  -4   9  -2 1395.60 325.367   3
  -4   9  -1 8208.44 750.741   3
  -4   9   0 8614.84 772.460   3
  -4   9   1 5197.86 598.059   3
  -4   9   2 9154.54 787.596   3
  -4   9   3 7317.46 710.141   3
  -4   9   4 6446.33 674.686   3
  -4   9   5 2546.11 452.736   3
  -4  10   0 3334.38 487.255   3
  -4  10   1 3546.56 510.376   3
  -4  10   2 1777.40 366.696   3
  -4  10   3 1796.82 369.594   3
  -4  10   4 334.126 165.642   3
  -4  10   5 5014.15 601.190   3
  -3 -12  -9 6488.46 702.761   4
  -3 -12  -8 9606.18 855.359   4
  -3 -12  -7 10298.0 879.178   4
  -3 -12  -6 17974.7 1190.55   2
  -3 -12  -5 3083.47 507.932   2
  -3 -12  -4 3029.57 497.565   2
  -3 -11 -12 4087.36 571.140   4
  -3 -11 -11 7724.18 754.032   4
  -3 -11 -10 2565.21 447.636   4
  -3 -11  -9-80.8620 150.521   4
  -3 -11  -8 12027.8 898.768   4
  -3 -11  -7 2594.50 425.291   4
  -3 -11  -6 231.631 150.692   4
  -3 -11  -5 1534.72 324.220   2
  -3 -11  -4 8681.71 787.564   2
  -3 -11  -3 1077.11 294.005   2
  -3 -11  -2 4593.52 577.942   2
  -3 -11  -1 24806.2 1325.09   2
  -3 -11   0 10995.6 889.188   2
  -3 -11   1 3424.47 514.775   2
  -3 -11   2 6726.66 720.621   2
  -3 -10 -14-191.913 159.692   4
  -3 -10 -13 7388.61 740.118   4
  -3 -10 -12 5702.34 638.440   4
  -3 -10 -11 3159.39 477.660   4
  -3 -10 -10 2996.58 456.590   4
  -3 -10  -9 13726.3 930.538   4
  -3 -10  -8 6158.98 611.051   4
  -3 -10  -7 2165.22 366.125   4
  -3 -10  -6 15235.9 934.466   4
  -3 -10  -5 2127.67 353.431   4
  -3 -10  -4 10.0136 149.204   2
  -3 -10  -3 1891.91 359.802   2
  -3 -10  -2 7665.57 688.479   2
  -3 -10  -1 2394.25 404.251   2
  -3 -10   0 566.546 203.150   2
  -3 -10   1 1631.04 341.597   2
  -3 -10   2 1041.17 278.005   2
  -3 -10   3 1688.25 342.003   2
  -3 -10   4 4228.00 556.060   2
  -3 -10   5 13543.5 1010.46   2
  -3  -9 -15 182.009 145.637   4
  -3  -9 -14 17037.7 1103.98   4
  -3  -9 -13 511.796 214.006   4
  -3  -9 -12 148.761 104.430   4
  -3  -9 -11 14517.3 942.768   4
  -3  -9 -10 9638.75 757.472   4
  -3  -9  -9 525.978 177.847   4
  -3  -9  -8 1178.90 253.234   4
  -3  -9  -7 30988.0 1268.34   4
  -3  -9  -6 10634.6 730.580   4
  -3  -9  -5 1146.01 252.616   4
  -3  -9  -4 8285.72 641.043   4
  -3  -9  -3 7657.36 644.878   2
  -3  -9  -2 4483.08 495.775   2
  -3  -9  -1 906.224 225.576   2
  -3  -9   0 12617.1 831.198   2
  -3  -9   1-71.7088 105.077   2
  -3  -9   2-155.654 170.698   2
  -3  -9   3 12301.6 869.625   2
  -3  -9   4 3339.30 467.620   2
  -3  -9   5 2509.11 426.957   2
  -3  -9   6 3374.95 496.799   2
  -3  -9   7 6934.68 718.863   2
  -3  -8 -16 6916.12 721.063   4
  -3  -8 -15 11523.5 900.109   4
  -3  -8 -14 4030.72 530.166   4
  -3  -8 -13-28.8746 120.632   4
  -3  -8 -12 25840.2 1230.58   4
  -3  -8 -11 6940.22 622.990   4
  -3  -8 -10 491.093 164.060   4
  -3  -8  -9 9556.25 690.758   4
  -3  -8  -8 16193.3 887.847   4
  -3  -8  -7 3697.05 412.708   4
  -3  -8  -6 7902.23 590.066   4
  -3  -8  -6 7578.24 443.935   3
  -3  -8  -5 11479.1 693.902   4
  -3  -8  -5 13255.0 529.823   3
  -3  -8  -4 1390.14 255.933   4
  -3  -8  -4 933.852 129.239   3
  -3  -8  -3 2997.94 193.692   3
  -3  -8  -3 3518.18 408.979   2
  -3  -8  -2 34340.6 1264.68   2
  -3  -8  -1 5542.34 508.993   2
  -3  -8   0 1084.10 240.341   2
  -3  -8   1 4663.17 479.308   2
  -3  -8   2 5327.30 523.251   2
  -3  -8   3 2908.59 403.323   2
  -3  -8   4 9121.26 718.631   2
  -3  -8   5 11515.8 830.726   2
  -3  -8   6 1296.87 295.087   2
  -3  -8   7 1197.11 298.349   2
  -3  -8   8 8275.72 770.446   2
  -3  -8   9 7712.95 762.813   2
  -3  -7 -16 5911.43 656.863   4
  -3  -7 -15 1497.49 335.305   4
  -3  -7 -14 3614.10 484.642   4
  -3  -7 -13 8122.08 692.463   4
  -3  -7 -12 28.6979 143.752   4
  -3  -7 -11 10746.0 739.183   4
  -3  -7 -10 10799.8 718.193   4
  -3  -7  -9 2652.55 346.042   4
  -3  -7  -8 10861.5 675.686   4
  -3  -7  -7 42610.4 1315.76   4
  -3  -7  -6 17652.9 823.087   4
  -3  -7  -6 18347.5 734.072   3
  -3  -7  -5 4494.44 403.901   4
  -3  -7  -5 4299.50 334.623   3
  -3  -7  -4 29012.1 1009.29   4
  -3  -7  -4 30474.2 825.911   3
  -3  -7  -3 69801.9 1165.09   3
  -3  -7  -3 66380.6 1528.91   4
  -3  -7  -2 4057.09 405.386   2
  -3  -7  -2 4085.18 264.510   3
  -3  -7  -1 42105.3 1289.87   2
  -3  -7  -1 44570.2 822.430   3
  -3  -7   0 24787.1 999.152   2
  -3  -7   1 944.410 215.400   2
  -3  -7   2 2112.90 307.755   2
  -3  -7   3 6654.58 555.776   2
  -3  -7   4 16248.2 891.813   2
  -3  -7   5 631.824 195.559   2
  -3  -7   6 873.487 232.424   2
  -3  -7   7 21189.8 1118.41   2
  -3  -7   8 3689.10 491.298   2
  -3  -7   9 1195.02 280.629   2
  -3  -7  10 2781.04 447.084   2
  -3  -6 -17 3076.65 464.988   4
  -3  -6 -16 2312.92 400.766   4
  -3  -6 -15 21353.4 1155.25   4
  -3  -6 -14 7436.00 656.724   4
  -3  -6 -13 2414.05 377.752   4
  -3  -6 -12 13358.9 818.073   4
  -3  -6 -11 13196.7 787.682   4
  -3  -6 -10 4978.17 461.672   4
  -3  -6  -9 8283.97 573.015   4
  -3  -6  -8 67.7556 79.7454   4
  -3  -6  -7 47374.6 1271.00   4
  -3  -6  -6 4544.66 391.332   4
  -3  -6  -5 3848.86 349.055   4
  -3  -6  -5 3717.68 327.569   3
  -3  -6  -4 19923.7 763.328   4
  -3  -6  -4 18728.0 695.242   3
  -3  -6  -3 6915.08 446.865   4
  -3  -6  -3 7238.40 411.219   3
  -3  -6  -2 17236.6 607.790   3
  -3  -6  -2 16279.8 730.749   2
  -3  -6  -1 38087.6 874.467   3
  -3  -6  -1 35921.5 1083.61   2
  -3  -6   0 25409.7 918.921   2
  -3  -6   0 26476.1 720.025   3
  -3  -6   1 6082.61 461.335   2
  -3  -6   2 27587.2 1012.40   2
  -3  -6   3 63633.0 1578.10   2
  -3  -6   4 5929.15 498.459   2
  -3  -6   5 27437.0 1109.65   2
  -3  -6   6 19053.9 959.255   2
  -3  -6   7 7506.92 627.543   2
  -3  -6   8 5445.49 558.273   2
  -3  -6   9 5417.84 574.972   2
  -3  -6  10 7565.01 715.055   2
  -3  -6  11 915.396 275.246   2
  -3  -5 -17 7050.73 715.101   4
  -3  -5 -16 9883.66 805.038   4
  -3  -5 -15 6981.43 654.233   4
  -3  -5 -14 5056.19 531.534   4
  -3  -5 -13 7760.16 629.885   4
  -3  -5 -12 5726.22 518.893   4
  -3  -5 -11 4667.71 446.331   4
  -3  -5 -11 4787.02 431.236   1
  -3  -5 -10 11519.5 647.980   1
  -3  -5 -10 11724.0 678.526   4
  -3  -5  -9 9272.13 585.332   2
  -3  -5  -9 9007.90 571.658   4
  -3  -5  -8 4874.06 408.884   2
  -3  -5  -8 4852.53 400.126   4
  -3  -5  -7 7069.09 458.848   4
  -3  -5  -6 4958.81 370.441   4
  -3  -5  -5 6467.89 412.504   4
  -3  -5  -4 469.665 117.333   4
  -3  -5  -4 589.435 144.924   3
  -3  -5  -3 17584.1 678.502   3
  -3  -5  -3 18169.4 638.891   4
  -3  -5  -2 29180.7 839.226   3
  -3  -5  -2 27347.4 845.688   2
  -3  -5  -1 1062.51 171.107   2
  -3  -5  -1 966.172 155.242   3
  -3  -5   0 6658.72 425.823   2
  -3  -5   0 7006.06 400.833   3
  -3  -5   1 22174.4 795.084   2
  -3  -5   1 22614.8 724.843   3
  -3  -5   2 4049.84 354.764   2
  -3  -5   3 22.3091 60.0353   2
  -3  -5   4 48614.4 1313.45   2
  -3  -5   5 2918.24 340.052   2
  -3  -5   6 1552.95 268.470   2
  -3  -5   7 7911.69 603.419   2
  -3  -5   8 15230.0 872.288   2
  -3  -5   9 1378.23 284.180   2
  -3  -5  10 5490.23 574.617   2
  -3  -5  11 10225.3 811.812   2
  -3  -5  12 14083.0 989.997   2
  -3  -4 -17 848.245 246.022   4
  -3  -4 -16 683.514 229.594   4
  -3  -4 -15 4434.67 527.630   4
  -3  -4 -14 10207.2 749.242   4
  -3  -4 -13 652.736 193.278   4
  -3  -4 -12 2491.38 335.007   4
  -3  -4 -11 47879.6 1393.59   4
  -3  -4 -10 19839.7 873.745   1
  -3  -4 -10 18348.0 817.507   4
  -3  -4 -10 18370.8 824.558   2
  -3  -4  -9 52.1268 63.6230   4
  -3  -4  -9 145.480 106.335   2
  -3  -4  -8 102204. 1899.98   1
  -3  -4  -8 106123. 1756.54   4
  -3  -4  -8 101490. 1753.96   2
  -3  -4  -7 3680.32 313.281   4
  -3  -4  -7 3856.27 330.384   2
  -3  -4  -6 392.383 100.302   4
  -3  -4  -6 365.540 98.8791   2
  -3  -4  -5 3140.79 259.846   4
  -3  -4  -4 38516.5 1074.52   3
  -3  -4  -4 41265.6 885.913   4
  -3  -4  -3 1982.87 185.783   4
  -3  -4  -3 2321.14 259.144   3
  -3  -4  -2 6431.07 410.558   3
  -3  -4  -2 5507.56 333.251   2
  -3  -4  -1 26937.0 827.333   3
  -3  -4  -1 25527.5 716.692   2
  -3  -4   0 20819.2 659.578   2
  -3  -4   0 22346.8 744.263   3
  -3  -4   1 4606.32 323.404   2
  -3  -4   1 4689.91 345.084   3
  -3  -4   2 3211.05 280.808   2
  -3  -4   2 3505.95 305.475   3
  -3  -4   3 27380.5 860.733   2
  -3  -4   4 41656.5 1116.66   2
  -3  -4   5 12015.6 629.179   2
  -3  -4   6 44465.5 1273.49   2
  -3  -4   7 19016.2 876.313   2
  -3  -4   8 2838.22 367.511   2
  -3  -4   9 1665.46 287.704   2
  -3  -4  10 13931.9 861.864   2
  -3  -4  11 827.564 234.345   2
  -3  -4  12-502.271 202.387   2
  -3  -4  13 4784.77 586.735   2
  -3  -3 -17 1685.51 349.404   4
  -3  -3 -16 5107.06 574.977   4
  -3  -3 -15 8551.88 710.471   4
  -3  -3 -14 457.562 155.759   4
  -3  -3 -13 586.702 174.411   4
  -3  -3 -12 17580.1 874.601   4
  -3  -3 -11 264.688 116.411   4
  -3  -3 -10 5295.08 436.911   4
  -3  -3 -10 5702.20 448.502   2
  -3  -3  -9 21849.4 825.487   4
  -3  -3  -9 21872.9 917.155   1
  -3  -3  -9 20576.3 801.162   2
  -3  -3  -8 19072.4 837.024   1
  -3  -3  -8 19074.0 725.662   4
  -3  -3  -8 18523.1 717.058   2
  -3  -3  -7 720.934 139.053   4
  -3  -3  -7 672.496 169.590   1
  -3  -3  -7 771.472 141.212   2
  -3  -3  -6 6730.48 377.775   2
  -3  -3  -6 6814.23 483.806   1
  -3  -3  -6 7089.15 381.902   4
  -3  -3  -5 44790.8 909.484   2
  -3  -3  -5 46012.3 892.473   4
  -3  -3  -4 9085.11 360.360   4
  -3  -3  -4 8620.24 522.989   3
  -3  -3  -4 9922.39 396.364   2
  -3  -3  -3 2085.84 257.157   3
  -3  -3  -3 1732.10 145.753   4
  -3  -3  -2 44955.9 1121.06   3
  -3  -3  -1 3784.09 226.781   2
  -3  -3  -1 3709.21 323.497   3
  -3  -3   0 6666.67 425.763   3
  -3  -3   0 6521.21 310.658   2
  -3  -3   1 4898.67 282.984   2
  -3  -3   1 4941.98 365.721   3
  -3  -3   2 4956.82 307.694   2
  -3  -3   2 5574.82 396.122   3
  -3  -3   3 20548.5 778.000   3
  -3  -3   3 20488.4 665.570   2
  -3  -3   4 1753.72 215.856   2
  -3  -3   5 35790.9 1000.36   2
  -3  -3   6 17372.5 742.160   2
  -3  -3   7 1092.58 200.953   2
  -3  -3   8 15952.3 795.375   2
  -3  -3   9 3610.29 403.715   2
  -3  -3  10 5525.61 518.141   2
  -3  -3  11 9525.82 722.337   2
  -3  -3  12 3244.66 444.235   2
  -3  -3  13 2273.16 396.274   2
  -3  -3  14-150.192 129.504   2
  -3  -2 -17 6284.12 664.157   4
  -3  -2 -16 4756.10 565.343   4
  -3  -2 -15 2586.55 406.273   4
  -3  -2 -14 9350.75 714.450   4
  -3  -2 -13 2293.12 343.353   4
  -3  -2 -12 108.491 75.9524   4
  -3  -2 -11 12323.7 698.988   4
  -3  -2 -10 22111.6 876.970   2
  -3  -2 -10 20708.7 851.484   4
  -3  -2  -9 11679.8 599.996   2
  -3  -2  -9 11427.0 591.969   4
  -3  -2  -8 1355.04 195.816   4
  -3  -2  -8 1688.30 217.348   2
  -3  -2  -8 1916.53 279.681   1
  -3  -2  -7 27713.2 1008.44   1
  -3  -2  -7 26761.3 778.033   2
  -3  -2  -7 28300.8 796.596   4
  -3  -2  -6 28632.4 733.036   4
  -3  -2  -6 27673.7 720.087   2
  -3  -2  -6 28297.6 996.605   1
  -3  -2  -5 4406.32 258.792   4
  -3  -2  -5 4032.86 248.741   2
  -3  -2  -5 4603.35 397.058   1
  -3  -2  -4 49081.7 750.035   4
  -3  -2  -4 48635.3 1264.46   1
  -3  -2  -4 48260.4 762.028   2
  -3  -2  -3 59133.1 1369.90   3
  -3  -2  -3 60521.7 678.073   4
  -3  -2  -3 60307.5 744.687   2
  -3  -2  -2 418.859 120.792   3
  -3  -2  -2 481.513 63.6399   2
  -3  -2  -2 648.282 70.8114   2
  -3  -2  -1 52031.4 1226.37   3
  -3  -2  -1 51217.3 581.944   2
  -3  -2   0 24575.9 432.590   2
  -3  -2   0 24171.0 832.465   3
  -3  -2   1 5154.07 386.953   3
  -3  -2   1 5109.01 228.710   2
  -3  -2   2 5119.24 390.305   3
  -3  -2   2 4511.69 243.163   2
  -3  -2   3 29180.3 946.647   3
  -3  -2   3 28438.2 685.866   2
  -3  -2   4 6442.52 360.249   2
  -3  -2   4 6890.44 475.651   3
  -3  -2   5 24825.2 767.456   2
  -3  -2   6 7976.78 470.941   2
  -3  -2   7 9107.55 540.172   2
  -3  -2   8 3687.45 369.097   2
  -3  -2   9 12399.8 708.502   2
  -3  -2  10 13030.6 773.306   2
  -3  -2  11 19239.4 988.959   2
  -3  -2  12 3384.43 444.059   2
  -3  -2  13 4182.07 511.900   2
  -3  -2  14 12345.5 921.879   2
  -3  -2  15 2623.54 444.451   2
  -3  -1 -17 693.377 242.218   4
  -3  -1 -16 9195.85 777.747   4
  -3  -1 -15 24871.4 1231.65   4
  -3  -1 -14 151.816 101.116   4
  -3  -1 -13 402.347 168.393   4
  -3  -1 -12 10236.7 683.801   4
  -3  -1 -11 13103.9 730.876   4
  -3  -1 -10 1627.20 243.866   4
  -3  -1 -10 2109.82 277.961   2
  -3  -1  -9 14135.9 668.281   2
  -3  -1  -9 14751.3 686.110   4
  -3  -1  -8 24543.6 820.196   4
  -3  -1  -8 25053.1 824.178   2
  -3  -1  -7 1059.82 161.121   4
  -3  -1  -7 1058.73 162.374   2
  -3  -1  -6 7363.99 521.413   1
  -3  -1  -6 7706.53 378.605   2
  -3  -1  -6 7375.78 373.932   4
  -3  -1  -5 49260.8 849.880   2
  -3  -1  -5 48696.7 1304.89   1
  -3  -1  -5 48855.7 854.079   4
  -3  -1  -4 53674.2 758.196   4
  -3  -1  -4 53009.7 1340.60   1
  -3  -1  -4 53175.8 750.935   2
  -3  -1  -3 14240.4 683.055   1
  -3  -1  -3 13757.1 291.226   2
  -3  -1  -3 12649.1 655.274   3
  -3  -1  -3 14106.7 293.728   4
  -3  -1  -2 10573.1 587.160   1
  -3  -1  -2 10582.9 586.866   3
  -3  -1  -1 129588. 1990.89   3
  -3  -1   0 16404.2 706.766   3
  -3  -1   1 4242.05 363.913   3
  -3  -1   2 17801.2 744.383   3
  -3  -1   2 18007.1 394.637   2
  -3  -1   3 51498.7 811.459   2
  -3  -1   3 51432.7 1288.92   3
  -3  -1   4 14345.6 697.124   3
  -3  -1   4 13503.1 474.880   2
  -3  -1   5 20033.0 645.898   2
  -3  -1   6 60210.6 1225.55   2
  -3  -1   7 7970.67 486.406   2
  -3  -1   8 4574.74 395.515   2
  -3  -1   9 40277.3 1249.21   2
  -3  -1  10 35661.9 1241.62   2
  -3  -1  11 7178.32 591.627   2
  -3  -1  12 5410.99 543.781   2
  -3  -1  13 17594.9 1022.29   2
  -3  -1  14 1238.68 301.221   2
  -3  -1  15 690.957 234.756   2
  -3   0 -16 15013.9 1017.45   4
  -3   0 -15 14174.4 947.446   4
  -3   0 -10 12513.0 681.682   2
  -3   0  -9 11363.0 612.138   2
  -3   0  -8 1114.02 194.696   2
  -3   0  -7 85.7292 49.9754   2
  -3   0  -6 7221.25 381.817   2
  -3   0  -6 7593.53 547.296   1
  -3   0  -5 19922.6 564.560   2
  -3   0  -5 20528.3 868.168   1
  -3   0  -4 3300.52 339.325   1
  -3   0  -4 3643.88 206.840   2
  -3   0  -3 7645.50 523.654   3
  -3   0  -3 7278.99 227.682   2
  -3   0  -3 7099.85 489.000   1
  -3   0  -2 60180.9 1405.80   1
  -3   0  -2 56364.5 1378.23   3
  -3   0  -2 57900.1 474.754   4
  -3   0  -1 11491.5 612.630   3
  -3   0  -1 11190.2 606.277   1
  -3   0   0 31559.6 1006.42   3
  -3   0   1 40357.3 1142.26   3
  -3   0   2 7499.86 498.736   3
  -3   0   3 12911.8 657.688   3
  -3   0   4 51316.7 1344.83   3
  -3   0   5 21824.4 899.802   3
  -3   0   6 75.5653 48.0206   2
  -3   0   7 12283.6 581.444   2
  -3   0   8 8232.19 515.271   2
  -3   0   9 159.126 123.443   2
  -3   0  10 33084.3 1164.40   2
  -3   0  11 20633.2 971.497   2
  -3   0  12 6096.48 563.618   2
  -3   0  13 3352.22 440.448   2
  -3   0  14 24440.0 1228.30   2
  -3   1  -9 12919.0 683.905   2
  -3   1  -8 6126.69 442.987   2
  -3   1  -7 33996.1 960.638   2
  -3   1  -6 8258.79 438.201   2
  -3   1  -5 9100.31 417.735   2
  -3   1  -5 9222.58 597.474   1
  -3   1  -4 38840.1 774.017   2
  -3   1  -4 38528.2 1220.78   3
  -3   1  -4 40150.5 1216.34   1
  -3   1  -3 1626.60 156.551   4
  -3   1  -3 1531.25 252.959   3
  -3   1  -3 1760.80 251.415   1
  -3   1  -2 9617.92 329.543   4
  -3   1  -2 10121.0 602.171   3
  -3   1  -2 9509.95 567.458   1
  -3   1  -1 27038.9 963.857   3
  -3   1  -1 27723.2 467.484   4
  -3   1  -1 28709.8 969.970   1
  -3   1   0 7061.01 202.661   4
  -3   1   0 6809.08 481.284   3
  -3   1   0 7013.84 473.925   1
  -3   1   1 88.7470 91.2089   3
  -3   1   2 15182.6 723.541   3
  -3   1   3 16927.7 773.958   3
  -3   1   4 1233.89 227.599   3
  -3   1   5 26354.6 1010.03   3
  -3   2  -8-292.766 114.936   2
  -3   2  -7 2397.39 275.325   2
  -3   2  -6 2984.52 290.945   2
  -3   2  -5 9682.69 482.315   2
  -3   2  -4 558.520 159.595   3
  -3   2  -4 520.570 122.382   4
  -3   2  -4 493.445 107.522   2
  -3   2  -3 4341.01 397.788   1
  -3   2  -3 3937.06 397.800   3
  -3   2  -3 4271.49 293.261   4
  -3   2  -2 30025.5 1024.17   1
  -3   2  -2 27097.5 691.305   4
  -3   2  -2 28170.4 1027.88   3
  -3   2  -1 10822.5 606.949   1
  -3   2  -1 10021.2 605.141   3
  -3   2  -1 10028.4 385.530   4
  -3   2   0 16341.6 732.149   1
  -3   2   0 15188.1 737.512   3
  -3   2   0 14340.2 437.146   4
  -3   2   1 26788.5 978.542   3
  -3   2   1 26599.3 924.782   1
  -3   2   1 25951.5 568.689   4
  -3   2   2 25622.3 574.224   4
  -3   2   2 25091.9 952.261   3
  -3   2   3 20975.1 550.134   4
  -3   2   3 20348.7 868.045   3
  -3   2   4 42819.3 1283.51   3
  -3   2   5 53869.4 1464.87   3
  -3   2   6 4152.30 420.979   3
  -3   3  -8 18860.5 872.179   2
  -3   3  -7 10856.2 630.758   2
  -3   3  -6 9631.66 564.183   2
  -3   3  -5 6908.28 474.197   4
  -3   3  -5 7617.41 591.164   3
  -3   3  -4 23770.7 822.589   4
  -3   3  -4 22475.3 982.264   3
  -3   3  -3 13873.4 758.417   3
  -3   3  -3 13425.1 590.836   4
  -3   3  -2 173.320 95.0946   1
  -3   3  -2 215.323 121.967   3
  -3   3  -2 232.444 88.1599   4
  -3   3  -1 8469.28 426.362   4
  -3   3  -1 9213.80 595.105   3
  -3   3  -1 9830.04 594.830   1
  -3   3   0 13398.2 515.164   4
  -3   3   0 14554.6 742.536   3
  -3   3   0 13971.2 690.395   1
  -3   3   1 457.148 123.794   1
  -3   3   1 378.918 93.6138   4
  -3   3   1 493.308 142.375   3
  -3   3   2 1787.75 265.588   3
  -3   3   2 2283.44 269.900   1
  -3   3   2 2262.21 207.613   4
  -3   3   3 13808.2 732.595   3
  -3   3   3 14282.2 522.766   4
  -3   3   4 71605.9 1693.48   3
  -3   3   4 68505.7 1185.48   4
  -3   3   5 107.736 51.8472   4
  -3   3   5 118.786 85.1184   3
  -3   3   6 21297.2 965.843   3
  -3   4  -6 11342.7 757.390   3
  -3   4  -5 26227.9 993.030   4
  -3   4  -5 23704.1 1062.70   3
  -3   4  -4 13149.5 777.685   3
  -3   4  -4 13339.9 683.267   4
  -3   4  -3 9308.92 637.317   3
  -3   4  -3 9893.19 569.188   4
  -3   4  -2 44966.2 1167.06   4
  -3   4  -2 45201.4 1361.22   3
  -3   4  -1 621.765 173.272   3
  -3   4  -1 1061.83 206.042   1
  -3   4  -1 1111.93 178.819   4
  -3   4   0 12752.0 680.828   1
  -3   4   0 12454.0 703.917   3
  -3   4   0 11558.0 549.382   4
  -3   4   1 8872.46 597.306   3
  -3   4   1 9226.56 563.515   1
  -3   4   1 7921.89 447.729   4
  -3   4   2 13552.6 572.582   4
  -3   4   2 14107.3 748.592   3
  -3   4   2 13174.5 662.324   1
  -3   4   3 17488.4 655.987   4
  -3   4   3 16488.7 818.099   3
  -3   4   3 17192.7 744.184   1
  -3   4   4 12257.2 560.426   4
  -3   4   4 13007.4 740.400   3
  -3   4   5 17663.0 874.190   3
  -3   4   5 18475.3 706.083   4
  -3   4   6 21706.5 995.165   3
  -3   4   6 19515.7 748.507   4
  -3   4   7 4373.89 375.670   4
  -3   5  -7 7507.37 653.097   3
  -3   5  -6 8260.98 672.770   3
  -3   5  -5 9125.12 687.319   3
  -3   5  -4 10369.6 712.692   3
  -3   5  -3 43515.4 1306.50   4
  -3   5  -3 43884.8 1409.21   3
  -3   5  -2 12950.6 692.891   4
  -3   5  -2 11984.5 728.113   3
  -3   5  -1 2949.37 356.478   3
  -3   5  -1 2699.03 306.959   4
  -3   5   0 22458.1 932.879   1
  -3   5   0 21382.5 948.933   3
  -3   5   0 20355.9 814.335   4
  -3   5   1 20703.5 929.708   3
  -3   5   1 20426.2 802.233   4
  -3   5   1 20833.1 871.473   1
  -3   5   2 2978.52 364.053   3
  -3   5   2 3474.65 347.184   1
  -3   5   2 3482.07 333.263   4
  -3   5   3 18197.5 739.873   4
  -3   5   3 17440.0 863.466   3
  -3   5   3 17892.3 777.077   1
  -3   5   4 17421.7 745.385   1
  -3   5   4 18306.0 896.781   3
  -3   5   4 18464.0 759.085   4
  -3   5   5 17098.9 881.255   3
  -3   5   5 15723.3 708.289   4
  -3   5   6 996.521 187.692   4
  -3   5   6 1174.35 243.092   3
  -3   5   7 15209.4 729.310   4
  -3   6  -8 11445.2 843.818   3
  -3   6  -7 10116.5 788.381   3
  -3   6  -6 1064.01 258.512   3
  -3   6  -5 7616.80 638.552   3
  -3   6  -4 42850.8 1460.83   3
  -3   6  -3 25236.1 1097.58   3
  -3   6  -2 2078.92 321.470   3
  -3   6  -1 72919.8 1814.56   3
  -3   6   0 6017.73 522.598   3
  -3   6   0 5981.90 489.169   4
  -3   6   1 587.211 175.204   3
  -3   6   1 563.855 156.350   4
  -3   6   2 19193.7 850.511   4
  -3   6   2 20625.1 962.083   3
  -3   6   2 20176.4 862.117   1
  -3   6   3 18461.4 914.262   3
  -3   6   3 19882.9 833.925   1
  -3   6   3 19734.6 849.989   4
  -3   6   4 564.719 143.950   4
  -3   6   4 1205.86 246.193   3
  -3   6   4 977.830 192.497   1
  -3   6   5 118.503 111.346   3
  -3   6   5 42.1139 67.4874   4
  -3   6   6 13488.4 820.086   3
  -3   7 -11 1364.88 341.749   3
  -3   7 -10 5195.78 617.217   3
  -3   7  -9 8805.25 778.744   3
  -3   7  -8 654.674 251.458   3
  -3   7  -7 1591.55 323.162   3
  -3   7  -6 1052.68 244.006   3
  -3   7  -5 3623.08 455.488   3
  -3   7  -4 3385.35 426.808   3
  -3   7  -3 4718.32 492.680   3
  -3   7  -2 6016.97 542.505   3
  -3   7  -1 963.414 222.731   3
  -3   7   0 8985.51 651.238   3
  -3   7   1 22851.1 1029.02   3
  -3   7   2 14428.3 822.461   3
  -3   7   3 14780.1 740.400   1
  -3   7   3 14841.6 841.002   3
  -3   7   4 12629.0 669.107   1
  -3   7   4 13414.7 808.112   3
  -3   7   5 17880.5 948.524   3
  -3   7   5 16914.0 748.986   1
  -3   7   6 6267.54 572.731   3
  -3   8  -9 668.562 226.964   3
  -3   8  -8 3003.04 463.648   3
  -3   8  -7 1244.49 305.371   3
  -3   8  -6 86.8110 128.087   3
  -3   8  -5 2462.45 392.105   3
  -3   8  -4 11317.2 785.694   3
  -3   8  -3 690.530 185.111   3
  -3   8  -2 3173.92 409.836   3
  -3   8  -1 1313.73 275.514   3
  -3   8   0 9494.00 690.343   3
  -3   8   1 7233.01 600.191   3
  -3   8   2 8759.14 653.880   3
  -3   8   3 8807.92 662.775   3
  -3   8   4 8972.06 674.053   3
  -3   8   5 2039.13 335.220   3
  -3   9  -5 12465.7 863.366   3
  -3   9  -4 11632.0 812.559   3
  -3   9  -3 1089.27 263.639   3
  -3   9  -2 485.184 175.406   3
  -3   9  -1 4660.35 501.388   3
  -3   9   0 176.434 113.116   3
  -3   9   1 1928.13 312.402   3
  -3   9   2 6069.42 560.887   3
  -3   9   3 3838.00 446.472   3
  -3   9   4 5670.32 554.852   3
  -3   9   5 4498.09 497.615   3
  -3  10  -1 5971.70 566.575   3
  -3  10   0 13284.9 842.271   3
  -3  10   1 7706.85 642.095   3
  -3  10   2 4934.55 519.795   3
  -3  10   3 10716.6 761.890   3
  -3  10   4 3263.63 427.827   3
  -2 -12  -9 297.851 162.605   4
  -2 -12  -8 5015.62 623.816   4
  -2 -12  -7 5900.19 673.805   4
  -2 -12  -6 1820.21 380.820   4
  -2 -12  -5 11728.4 956.779   2
  -2 -12  -4 8150.65 799.027   2
  -2 -12  -3 908.138 255.910   2
  -2 -12  -2 1854.87 406.563   2
  -2 -11 -12 11086.2 934.245   4
  -2 -11 -11 82.6440 109.019   4
  -2 -11 -10 7773.11 768.815   4
  -2 -11  -9 17282.6 1112.67   4
  -2 -11  -8 6203.96 664.392   4
  -2 -11  -7-64.1428 159.191   4
  -2 -11  -6 13905.9 965.398   4
  -2 -11  -5 19038.5 1124.65   4
  -2 -11  -4 683.327 257.915   2
  -2 -11  -3 1074.61 290.733   2
  -2 -11  -2 7217.50 715.030   2
  -2 -11  -1 7165.93 720.626   2
  -2 -11   0 75.4524 131.101   2
  -2 -11   1 9460.86 832.694   2
  -2 -11   2 2102.93 412.210   2
  -2 -10 -14 9830.83 870.690   4
  -2 -10 -13 11868.2 941.372   4
  -2 -10 -12 741.342 237.770   4
  -2 -10 -11 10715.3 857.519   4
  -2 -10 -10 9981.61 827.649   4
  -2 -10  -9 102.269 124.375   4
  -2 -10  -8 1386.57 309.351   4
  -2 -10  -7 13715.1 911.508   4
  -2 -10  -6 3957.93 490.656   4
  -2 -10  -5 2318.74 379.837   4
  -2 -10  -4 9932.99 759.629   4
  -2 -10  -3 6395.19 634.121   2
  -2 -10  -2 1723.45 338.222   2
  -2 -10  -1 28733.6 1332.90   2
  -2 -10   0 13962.5 942.341   2
  -2 -10   1 3639.94 495.948   2
  -2 -10   2 3725.99 507.247   2
  -2 -10   3 6115.61 656.638   2
  -2 -10   4 2596.90 438.757   2
  -2 -10   5 3802.86 533.574   2
  -2  -9 -15 12749.3 983.614   4
  -2  -9 -14 5527.45 632.487   4
  -2  -9 -13 4196.01 536.710   4
  -2  -9 -12 22801.9 1216.29   4
  -2  -9 -11 2307.86 380.534   4
  -2  -9 -10 11377.8 816.242   4
  -2  -9  -9 18807.6 1039.16   4
  -2  -9  -8 5722.79 567.405   4
  -2  -9  -7 4543.10 497.844   4
  -2  -9  -6 20140.4 1022.94   4
  -2  -9  -5 13227.6 819.583   4
  -2  -9  -4 213.270 119.554   4
  -2  -9  -3 2195.73 344.275   4
  -2  -9  -2 42823.4 1519.01   2
  -2  -9  -1 1712.73 315.581   2
  -2  -9   0 12713.2 838.292   2
  -2  -9   1 20572.9 1079.36   2
  -2  -9   2 4961.65 542.465   2
  -2  -9   3 3958.40 498.258   2
  -2  -9   4 4697.85 542.112   2
  -2  -9   5 18821.3 1119.06   2
  -2  -9   6 8629.47 777.737   2
  -2  -9   7 636.953 211.299   2
  -2  -8 -16 3885.75 542.621   4
  -2  -8 -15 285.723 175.638   4
  -2  -8 -14 8213.46 747.592   4
  -2  -8 -13 11481.1 850.597   4
  -2  -8 -12 1238.74 276.361   4
  -2  -8 -11 8047.62 671.858   4
  -2  -8 -10 19102.7 1003.35   4
  -2  -8  -9 18726.5 974.757   4
  -2  -8  -8 27996.4 1161.26   4
  -2  -8  -7 1102.76 234.198   4
  -2  -8  -6 81184.5 1931.21   4
  -2  -8  -5 1770.07 153.616   3
  -2  -8  -5 1421.14 264.061   4
  -2  -8  -4 2556.02 118.210   3
  -2  -8  -4 3089.31 373.050   4
  -2  -8  -3 25383.8 1043.17   4
  -2  -8  -2 12327.6 755.487   2
  -2  -8  -1 5221.69 501.148   2
  -2  -8   0 16179.3 876.035   2
  -2  -8   1 21145.0 1017.00   2
  -2  -8   2 3038.30 395.238   2
  -2  -8   3 5123.01 529.331   2
  -2  -8   4 48439.7 1635.43   2
  -2  -8   5 7621.63 667.998   2
  -2  -8   6 13365.4 917.369   2
  -2  -8   7 16074.0 1032.78   2
  -2  -8   8 11448.7 898.432   2
  -2  -8   9 4699.35 595.075   2
  -2  -7 -17 4635.51 596.316   4
  -2  -7 -16 8090.99 760.128   4
  -2  -7 -15 11826.4 892.819   4
  -2  -7 -14 14523.6 953.976   4
  -2  -7 -13 7050.59 648.233   4
  -2  -7 -12 6430.69 597.535   4
  -2  -7 -11 6999.03 598.973   4
  -2  -7 -10 3431.98 410.680   4
  -2  -7  -9 7747.04 589.730   4
  -2  -7  -8 14742.7 791.893   4
  -2  -7  -7 8832.41 597.405   4
  -2  -7  -6 6295.57 502.554   4
  -2  -7  -5 4123.64 399.041   4
  -2  -7  -4 18530.0 827.297   4
  -2  -7  -4 18038.7 485.373   3
  -2  -7  -3 2430.92 137.384   3
  -2  -7  -3 1978.88 271.427   4
  -2  -7  -2 8165.87 547.731   4
  -2  -7  -1 39331.9 1251.71   2
  -2  -7   0 6658.28 523.262   2
  -2  -7   1 2971.60 355.048   2
  -2  -7   2 20309.5 937.354   2
  -2  -7   3 19341.2 938.917   2
  -2  -7   4 74.1705 112.705   2
  -2  -7   5 34861.2 1329.66   2
  -2  -7   6 17237.7 970.896   2
  -2  -7   7 6641.21 620.793   2
  -2  -7   8 5707.86 604.260   2
  -2  -7   9 13441.8 945.879   2
  -2  -7  10 4955.54 596.293   2
  -2  -6 -17 3604.22 511.783   4
  -2  -6 -16 3850.20 510.397   4
  -2  -6 -15 1731.65 343.755   4
  -2  -6 -14 4483.89 521.485   4
  -2  -6 -13 15573.0 913.292   4
  -2  -6 -12 3231.45 401.218   4
  -2  -6 -11 731.111 193.994   4
  -2  -6 -10 34920.6 1228.12   4
  -2  -6  -9 59974.0 1553.92   4
  -2  -6  -8 1148.65 216.956   4
  -2  -6  -7 97260.8 1844.46   4
  -2  -6  -6 29768.7 993.724   4
  -2  -6  -5 11571.7 613.990   4
  -2  -6  -4 3293.10 325.121   4
  -2  -6  -3 51709.4 1247.66   4
  -2  -6  -3 51411.3 810.928   3
  -2  -6  -2 37255.0 594.413   3
  -2  -6  -2 35906.8 1038.47   4
  -2  -6  -1 6575.38 214.382   3
  -2  -6  -1 6637.96 472.117   2
  -2  -6   0 2102.20 271.695   2
  -2  -6   1 26686.9 961.794   2
  -2  -6   2 2198.68 290.515   2
  -2  -6   3 3715.67 382.480   2
  -2  -6   4 1153.82 223.410   2
  -2  -6   5 49925.4 1480.58   2
  -2  -6   6 8093.44 626.427   2
  -2  -6   7 10338.1 731.434   2
  -2  -6   8 34954.8 1387.38   2
  -2  -6   9 1332.35 296.894   2
  -2  -6  10 518.842 193.810   2
  -2  -6  11 18969.8 1148.68   2
  -2  -6  12 12714.8 965.823   2
  -2  -5 -17 4058.27 546.334   4
  -2  -5 -16 1522.47 317.505   4
  -2  -5 -15 5256.85 573.786   4
  -2  -5 -14 22615.4 1125.38   4
  -2  -5 -13 9759.79 546.686   1
  -2  -5 -13 9177.07 689.480   4
  -2  -5 -12 3740.86 426.040   4
  -2  -5 -12 3544.26 320.954   1
  -2  -5 -11 17603.8 678.909   1
  -2  -5 -11 18124.5 877.709   4
  -2  -5 -10 1448.79 242.597   4
  -2  -5 -10 1596.71 198.916   1
  -2  -5  -9 633.358 167.831   2
  -2  -5  -9 525.878 141.335   4
  -2  -5  -9 624.079 122.053   1
  -2  -5  -8 6722.38 474.544   4
  -2  -5  -7 22523.7 833.170   4
  -2  -5  -6 105.690 79.2602   4
  -2  -5  -5 64.2349 51.4515   4
  -2  -5  -4 49286.1 1123.48   4
  -2  -5  -3 41359.2 1011.57   4
  -2  -5  -3 42116.1 813.582   3
  -2  -5  -2 1885.25 160.674   3
  -2  -5  -2 1945.54 219.838   4
  -2  -5  -1 64779.8 1314.86   2
  -2  -5  -1 65590.5 866.006   3
  -2  -5   0 32727.4 951.917   2
  -2  -5   0 32977.7 598.748   3
  -2  -5   1 21741.1 789.240   2
  -2  -5   2 11600.3 597.769   2
  -2  -5   3 6720.34 471.180   2
  -2  -5   4 24382.5 926.100   2
  -2  -5   5 167.931 81.9119   2
  -2  -5   6 12203.1 715.404   2
  -2  -5   7 14809.5 819.585   2
  -2  -5   8 1029.06 233.714   2
  -2  -5   9 3318.67 425.806   2
  -2  -5  10 1444.30 292.315   2
  -2  -5  11 2490.46 414.176   2
  -2  -5  12 5004.67 587.545   2
  -2  -5  13 3061.09 477.789   2
  -2  -4 -17 1894.67 361.533   4
  -2  -4 -16 8660.23 752.788   4
  -2  -4 -15 14119.0 917.266   4
  -2  -4 -14 3419.86 442.130   4
  -2  -4 -13 11250.3 622.252   1
  -2  -4 -13 10186.3 711.629   4
  -2  -4 -12 12576.0 752.958   4
  -2  -4 -12 13686.6 659.441   1
  -2  -4 -11 178.528 105.292   4
  -2  -4 -11 116.002 69.1369   1
  -2  -4 -10 3602.91 315.965   1
  -2  -4 -10 3916.38 380.672   4
  -2  -4 -10 3830.12 384.670   2
  -2  -4  -9 27481.1 973.947   2
  -2  -4  -9 25443.6 802.930   1
  -2  -4  -9 26405.2 935.519   4
  -2  -4  -8 26822.6 916.141   2
  -2  -4  -8 26132.9 880.953   4
  -2  -4  -8 27348.2 810.504   1
  -2  -4  -7 654.636 146.711   2
  -2  -4  -7 446.916 106.806   1
  -2  -4  -7 681.844 144.853   4
  -2  -4  -6 4917.09 349.182   4
  -2  -4  -5 43138.6 974.105   4
  -2  -4  -4 1798.55 193.213   4
  -2  -4  -3 18446.7 603.337   4
  -2  -4  -2 93297.7 1204.91   3
  -2  -4  -2 90249.1 1293.81   4
  -2  -4  -1 1714.63 157.598   3
  -2  -4  -1 2044.45 198.788   4
  -2  -4   0 39952.9 735.803   3
  -2  -4   0 39975.1 932.229   2
  -2  -4   1 40055.4 756.109   3
  -2  -4   1 37248.0 919.276   2
  -2  -4   2 13653.0 584.030   2
  -2  -4   3 3854.24 322.196   2
  -2  -4   4 22426.2 815.958   2
  -2  -4   5 7234.76 485.741   2
  -2  -4   6 29245.2 1026.67   2
  -2  -4   7 6825.67 520.671   2
  -2  -4   8 6901.41 552.013   2
  -2  -4   9 3855.76 426.367   2
  -2  -4  10 8995.64 683.806   2
  -2  -4  11 8278.43 692.660   2
  -2  -4  12 22294.7 1181.52   2
  -2  -4  13 6158.55 656.805   2
  -2  -4  14 1181.88 316.286   2
  -2  -3 -17 9331.19 809.803   4
  -2  -3 -16 992.012 263.417   4
  -2  -3 -15 3053.06 429.178   4
  -2  -3 -14 56870.3 1737.74   4
  -2  -3 -13 7032.49 582.689   4
  -2  -3 -12 1169.39 253.356   4
  -2  -3 -12 1742.86 254.802   1
  -2  -3 -11 15078.9 701.326   1
  -2  -3 -11 15113.5 767.488   4
  -2  -3 -10 50363.4 1225.04   1
  -2  -3 -10 50998.1 1328.71   4
  -2  -3 -10 52276.1 1359.57   2
  -2  -3  -9 13016.4 637.295   4
  -2  -3  -9 13288.0 657.765   2
  -2  -3  -9 14232.2 629.739   1
  -2  -3  -8 16819.4 693.489   2
  -2  -3  -8 15767.3 638.597   1
  -2  -3  -8 15583.7 657.299   4
  -2  -3  -7 46546.6 1060.74   1
  -2  -3  -7 48799.5 1090.01   4
  -2  -3  -7 46864.4 1100.23   2
  -2  -3  -6 6076.75 372.014   2
  -2  -3  -6 6882.77 382.152   4
  -2  -3  -6 5973.71 373.123   1
  -2  -3  -5 550.974 107.544   4
  -2  -3  -5 456.823 105.650   1
  -2  -3  -4 18135.6 543.753   4
  -2  -3  -3 68628.1 992.769   4
  -2  -3  -2 30896.0 743.171   3
  -2  -3  -2 31630.9 650.059   4
  -2  -3  -1 615.997 100.685   3
  -2  -3  -1 807.863 105.468   4
  -2  -3   0 138908. 1474.65   3
  -2  -3   0 135684. 1464.72   2
  -2  -3   1 65492.4 1028.14   3
  -2  -3   1 66539.0 1064.41   2
  -2  -3   2 15126.9 514.292   3
  -2  -3   2 14391.7 527.127   2
  -2  -3   3 9645.97 458.550   2
  -2  -3   4 71755.7 1326.95   2
  -2  -3   5 32822.7 954.330   2
  -2  -3   6 7714.82 494.619   2
  -2  -3   7 42143.8 1213.17   2
  -2  -3   8 9277.80 601.014   2
  -2  -3   9-62.2200 102.513   2
  -2  -3  10 11128.6 729.533   2
  -2  -3  11 26544.7 1184.75   2
  -2  -3  12 7866.72 681.979   2
  -2  -3  13 1500.34 321.096   2
  -2  -3  14 16438.1 1071.44   2
  -2  -3  15 6622.86 712.857   2
  -2  -2 -17 1238.92 317.066   4
  -2  -2 -16 5884.87 623.072   4
  -2  -2 -15 13453.9 888.682   4
  -2  -2 -14 16061.6 920.401   4
  -2  -2 -13 4505.70 469.423   4
  -2  -2 -12 11278.1 702.337   4
  -2  -2 -11 21102.3 903.818   4
  -2  -2 -10 22260.3 883.697   2
  -2  -2 -10 21895.5 865.505   4
  -2  -2  -9 29722.9 945.815   4
  -2  -2  -9 30267.6 968.741   2
  -2  -2  -8 49035.2 1171.81   1
  -2  -2  -8 48669.7 1136.88   4
  -2  -2  -8 48327.0 1152.26   2
  -2  -2  -7 26073.2 774.547   4
  -2  -2  -7 25764.8 779.469   2
  -2  -2  -7 24850.0 801.599   1
  -2  -2  -6 949.820 137.229   4
  -2  -2  -6 982.525 165.710   1
  -2  -2  -6 882.140 140.122   2
  -2  -2  -5 8356.00 437.851   1
  -2  -2  -5 7698.94 364.399   2
  -2  -2  -5 8097.04 362.297   4
  -2  -2  -4 62038.5 1169.66   1
  -2  -2  -4 63514.6 941.825   2
  -2  -2  -4 63024.2 914.475   4
  -2  -2  -3 13521.1 536.664   1
  -2  -2  -3 14590.0 392.356   4
  -2  -2  -2 77.7938 36.7035   4
  -2  -2  -2 151.734 69.1276   3
  -2  -2  -1 85562.4 786.350   4
  -2  -2  -1 85601.2 1239.66   3
  -2  -2   0 19136.1 577.465   3
  -2  -2   0 17605.1 419.275   2
  -2  -2   1 18745.5 576.037   3
  -2  -2   1 18243.3 462.775   2
  -2  -2   2 70986.9 1163.62   3
  -2  -2   2 70007.3 994.161   2
  -2  -2   3 34254.8 840.940   3
  -2  -2   3 34080.7 762.534   2
  -2  -2   4 19747.4 633.564   2
  -2  -2   5 89928.4 1456.17   2
  -2  -2   6 100976. 1656.10   2
  -2  -2   7 5074.12 399.508   2
  -2  -2   8 13491.4 687.474   2
  -2  -2   9 25391.8 998.010   2
  -2  -2  10 1324.36 247.190   2
  -2  -2  11 13593.5 817.291   2
  -2  -2  12 14658.5 891.623   2
  -2  -2  13 6769.04 640.673   2
  -2  -2  14-50.6109 98.8576   2
  -2  -2  15 6427.96 691.786   2
  -2  -1 -17 4398.10 570.355   4
  -2  -1 -16 9792.25 803.313   4
  -2  -1 -15 7854.58 696.746   4
  -2  -1 -14 172.165 137.446   4
  -2  -1 -13 16381.7 905.780   4
  -2  -1 -10 32121.3 1070.65   2
  -2  -1  -9 50443.6 1264.38   2
  -2  -1  -8 33632.5 957.234   2
  -2  -1  -7 2757.20 253.707   2
  -2  -1  -6 76721.3 1417.73   1
  -2  -1  -6 75718.9 1221.68   2
  -2  -1  -5 43049.1 825.920   2
  -2  -1  -5 44076.8 838.073   4
  -2  -1  -5 42517.3 1017.40   1
  -2  -1  -4 7388.20 301.439   4
  -2  -1  -4 6714.47 393.508   1
  -2  -1  -4 7329.36 301.022   2
  -2  -1  -3 78649.7 1306.70   1
  -2  -1  -3 78508.9 821.863   4
  -2  -1  -3 78650.8 836.391   2
  -2  -1  -2 14754.8 558.908   3
  -2  -1  -2 15372.8 282.031   4
  -2  -1  -2 15807.7 580.507   1
  -2  -1  -2 15155.6 295.353   2
  -2  -1  -1 6432.88 361.223   3
  -2  -1   0 27174.5 329.632   2
  -2  -1   0 26708.6 713.698   3
  -2  -1   1 21857.7 379.466   2
  -2  -1   1 22890.6 667.482   3
  -2  -1   2 2784.95 243.212   3
  -2  -1   2 3038.66 173.686   2
  -2  -1   3 3802.62 224.358   2
  -2  -1   3 3605.55 284.416   3
  -2  -1   4 27716.9 677.300   2
  -2  -1   5 2838.22 245.293   2
  -2  -1   6 25834.6 788.263   2
  -2  -1   7 15195.1 655.638   2
  -2  -1   8 12182.9 631.266   2
  -2  -1   9 213.667 93.9157   2
  -2  -1  10 15945.6 812.809   2
  -2  -1  11 47666.2 1480.87   2
  -2  -1  12 2514.54 366.430   2
  -2  -1  13 5802.54 583.354   2
  -2  -1  14 9324.40 772.315   2
  -2  -1  15 12734.2 947.514   2
  -2  -1  16 1430.76 327.587   2
  -2   0 -10 4544.20 413.209   2
  -2   0  -9 7379.69 496.312   2
  -2   0  -8 46027.5 1152.40   2
  -2   0  -7 3963.75 316.115   2
  -2   0  -6 20718.9 657.307   2
  -2   0  -5 12308.8 456.823   2
  -2   0  -4 51514.9 825.113   2
  -2   0  -4 51452.1 1122.65   1
  -2   0  -3 20145.1 438.122   2
  -2   0  -3 19811.3 676.454   1
  -2   0  -2 4090.40 152.695   2
  -2   0  -2 4448.43 313.708   1
  -2   0  -2 4028.28 310.614   3
  -2   0  -1 49654.9 1033.10   3
  -2   0  -1 47976.2 1007.00   1
  -2   0   0 7981.22 408.051   1
  -2   0   0 7971.59 407.553   3
  -2   0   1 3821.18 289.627   3
  -2   0   2 9058.16 445.503   3
  -2   0   2 8615.92 256.901   2
  -2   0   3 14619.4 406.195   2
  -2   0   3 13966.3 571.177   3
  -2   0   4 9955.89 505.019   3
  -2   0   4 10557.9 398.275   2
  -2   0   5 23819.3 670.820   2
  -2   0   6 68109.3 1262.74   2
  -2   0   7 19579.8 723.422   2
  -2   0   8 249.026 98.3868   2
  -2   0   9 15514.0 740.302   2
  -2   0  10 23279.5 969.093   2
  -2   0  11 897.807 216.617   2
  -2   0  12 4002.44 451.075   2
  -2   0  13 3542.97 448.557   2
  -2   0  14 25.5280 108.716   2
  -2   0  15 171.115 170.303   2
  -2   0  16 1993.55 378.988   2
  -2   1  -9 12773.9 675.115   2
  -2   1  -8 4456.51 373.715   2
  -2   1  -7 5092.72 379.158   2
  -2   1  -6 5502.99 361.895   2
  -2   1  -5 9127.31 426.350   2
  -2   1  -4 2731.76 213.441   2
  -2   1  -3 47964.5 1087.37   1
  -2   1  -3 47812.5 779.022   2
  -2   1  -2 119433. 1698.59   3
  -2   1  -2 117181. 1636.91   1
  -2   1  -2 114887. 1058.51   2
  -2   1  -1 11387.5 322.239   4
  -2   1  -1 11860.4 526.860   3
  -2   1  -1 11199.9 497.262   1
  -2   1   0 16988.4 599.937   1
  -2   1   0 16981.4 620.580   3
  -2   1   0 16396.8 345.595   4
  -2   1   1 96277.5 1476.55   3
  -2   1   1 94108.7 824.765   4
  -2   1   1 95799.9 1398.03   1
  -2   1   2 4702.85 334.140   3
  -2   1   2 4762.24 204.366   4
  -2   1   3 1794.89 216.499   3
  -2   1   4 807.533 152.816   3
  -2   1   7 521.364 122.365   2
  -2   1   8 45887.0 1171.62   2
  -2   1   9 7826.83 521.007   2
  -2   1  10 8672.24 580.812   2
  -2   1  11 24463.3 1024.82   2
  -2   1  12 34100.8 1278.94   2
  -2   1  13 13209.5 838.516   2
  -2   2  -8 12776.8 670.633   2
  -2   2  -7 31920.2 996.567   2
  -2   2  -6 8600.69 488.749   2
  -2   2  -5 3555.31 291.117   2
  -2   2  -4 24998.1 712.229   2
  -2   2  -3 23741.7 648.499   2
  -2   2  -2 4450.71 350.065   3
  -2   2  -2 4842.49 286.907   4
  -2   2  -1 76310.0 1328.64   1
  -2   2  -1 76252.3 1379.69   3
  -2   2  -1 75009.2 1056.92   4
  -2   2   0 59.2665 39.4555   4
  -2   2   0 194.916 73.9658   1
  -2   2   0 145.041 70.7636   3
  -2   2   1 16257.4 579.630   1
  -2   2   1 15782.9 620.416   3
  -2   2   1 15818.0 446.174   4
  -2   2   2 8225.01 454.341   3
  -2   2   2 9128.24 344.780   4
  -2   2   2 8561.53 419.493   1
  -2   2   3 19053.3 702.771   3
  -2   2   3 17871.7 505.204   4
  -2   2   4 35208.6 984.328   3
  -2   2   4 34235.7 748.975   4
  -2   2   5 19070.2 755.682   3
  -2   3  -8 24273.6 982.992   2
  -2   3  -7 5405.95 438.241   2
  -2   3  -6 12194.0 627.061   2
  -2   3  -5 10559.5 557.776   2
  -2   3  -4 25848.2 817.243   2
  -2   3  -3 17232.1 657.066   4
  -2   3  -2 108133. 1749.21   3
  -2   3  -2 108007. 1552.89   4
  -2   3  -1 86177.2 1514.19   3
  -2   3  -1 85487.4 1331.26   4
  -2   3   0 14155.7 522.664   4
  -2   3   0 14979.0 594.310   1
  -2   3   0 15595.4 638.220   3
  -2   3   1 47667.7 1024.18   1
  -2   3   1 50049.7 1138.00   3
  -2   3   1 46746.3 918.542   4
  -2   3   2 115013. 1538.99   1
  -2   3   2 113605. 1433.63   4
  -2   3   2 116659. 1751.08   3
  -2   3   3 30948.3 922.317   3
  -2   3   3 30205.5 777.410   1
  -2   3   3 31038.5 760.898   4
  -2   3   4 38301.8 1055.50   3
  -2   3   4 37451.9 863.600   4
  -2   3   5 31066.1 987.330   3
  -2   3   5 29151.2 799.194   4
  -2   3   6 46269.7 1062.81   4
  -2   4  -6 23866.6 954.610   2
  -2   4  -5 936.098 186.188   2
  -2   4  -4 122.334 81.3560   4
  -2   4  -3 56992.6 1309.68   4
  -2   4  -3 55939.3 1325.64   3
  -2   4  -2 118421. 1829.67   4
  -2   4  -2 116576. 1866.53   3
  -2   4  -1 74161.6 1447.28   3
  -2   4  -1 74641.1 1419.32   4
  -2   4   0 81891.3 1498.66   3
  -2   4   0 79425.1 1412.62   4
  -2   4   1 44866.5 1115.37   3
  -2   4   1 44682.8 1034.37   4
  -2   4   1 44167.2 1020.91   1
  -2   4   2 2111.52 250.417   3
  -2   4   2 2614.92 256.065   4
  -2   4   2 2239.39 225.013   1
  -2   4   3 32000.0 816.102   1
  -2   4   3 32673.9 972.547   3
  -2   4   3 31492.5 862.089   4
  -2   4   4 97773.6 1391.02   1
  -2   4   4 96847.8 1543.80   4
  -2   4   4 101249. 1755.99   3
  -2   4   5 45893.3 1225.39   3
  -2   4   5 44547.7 1076.03   4
  -2   4   6 921.626 163.201   4
  -2   4   7 38043.0 1063.95   4
  -2   4   8 42614.4 1192.70   4
  -2   5  -4 22001.3 884.018   3
  -2   5  -4 23705.2 960.880   4
  -2   5  -3 19638.5 816.056   3
  -2   5  -3 19139.5 841.825   4
  -2   5  -2 10742.7 584.651   3
  -2   5  -2 10151.9 597.330   4
  -2   5  -1 13952.6 649.209   3
  -2   5  -1 15351.9 717.608   4
  -2   5   0 281.652 110.112   3
  -2   5   0 76.5239 77.2731   4
  -2   5   1 814.699 164.827   4
  -2   5   1 912.263 159.932   1
  -2   5   1 722.262 158.412   3
  -2   5   2 22744.3 822.093   3
  -2   5   2 22193.3 812.448   4
  -2   5   2 21798.7 725.194   1
  -2   5   3 18320.3 639.313   1
  -2   5   3 18110.8 744.099   3
  -2   5   3 18200.8 735.625   4
  -2   5   4 17538.2 750.728   3
  -2   5   4 16914.8 592.198   1
  -2   5   4 17138.4 709.587   4
  -2   5   5 8083.69 527.144   3
  -2   5   5 8443.05 513.234   4
  -2   5   6 26707.2 926.879   4
  -2   5   7 16533.0 748.703   4
  -2   5   8 9948.16 598.824   4
  -2   6  -5 436.621 150.878   3
  -2   6  -4 2216.99 298.417   3
  -2   6  -3 33103.4 1080.93   3
  -2   6  -2 4040.41 369.534   3
  -2   6  -1 7784.62 557.748   4
  -2   6  -1 8331.11 516.600   3
  -2   6   0 96.2220 78.6111   4
  -2   6   0 228.413 99.3569   3
  -2   6   1 10942.6 584.715   3
  -2   6   1 10521.1 622.388   4
  -2   6   2 14880.9 731.460   4
  -2   6   2 13959.1 612.458   1
  -2   6   2 16009.8 712.348   3
  -2   6   3 13486.6 664.431   3
  -2   6   3 11854.4 538.975   1
  -2   6   3 12584.4 676.376   4
  -2   6   4 12189.2 642.075   3
  -2   6   4 11687.1 510.068   1
  -2   6   4 11746.3 645.461   4
  -2   6   5 24976.2 942.728   3
  -2   6   5 23584.3 691.614   1
  -2   6   5 22547.8 894.282   4
  -2   6   6 2308.99 293.937   4
  -2   7  -7 30955.3 1222.76   3
  -2   7  -6 3608.68 408.699   3
  -2   7  -5 4059.67 422.794   3
  -2   7  -4 19364.8 876.226   3
  -2   7  -3 44076.7 1281.76   3
  -2   7  -2 6064.59 468.877   3
  -2   7  -1 227.161 107.218   3
  -2   7   0 13649.3 679.582   3
  -2   7   1 1070.49 193.173   3
  -2   7   2 193.480 98.3016   3
  -2   7   2 85.1997 63.0538   1
  -2   7   3 4119.51 383.124   3
  -2   7   3 3638.47 315.623   1
  -2   7   4 3242.92 282.806   1
  -2   7   4 2540.47 306.159   3
  -2   7   5 2645.90 242.219   1
  -2   8  -9 8271.04 693.536   3
  -2   8  -8 7727.46 650.918   3
  -2   8  -7 2230.13 350.793   3
  -2   8  -6 3798.19 424.777   3
  -2   8  -5 5856.95 507.537   3
  -2   8  -4 10991.8 674.243   3
  -2   8  -3 14968.8 762.698   3
  -2   8  -2 21431.5 896.086   3
  -2   8  -1 16141.4 765.147   3
  -2   8   0 10193.1 600.948   3
  -2   8   1 29953.1 1022.95   3
  -2   8   2 31587.9 1061.04   3
  -2   8   3 12946.5 686.809   3
  -2   8   3 11397.3 589.468   1
  -2   8   4 28297.5 1035.04   3
  -2   8   4 25575.5 830.020   1
  -2   8   5 7030.83 409.535   1
  -2   8   6 12994.6 512.741   1
  -2   9  -5 4066.58 427.599   3
  -2   9  -4 10034.7 647.872   3
  -2   9  -3 18269.6 856.629   3
  -2   9  -2 6347.28 496.821   3
  -2   9  -1 10721.1 637.391   3
  -2   9   0 17633.7 807.435   3
  -2   9   1 15586.1 754.286   3
  -2   9   2 5383.30 449.539   3
  -2   9   3 22571.3 928.640   3
  -2   9   3 22611.4 870.077   1
  -2   9   4 29755.2 935.286   1
  -2  10   0 588.056 146.182   3
  -2  10   1 3005.49 337.131   3
  -2  10   2 11840.9 676.191   3
  -1 -12  -9 14357.6 1077.20   4
  -1 -12  -8 4405.51 592.376   4
  -1 -12  -7 1415.06 340.516   4
  -1 -12  -6 7271.85 750.692   4
  -1 -12  -5 7828.31 785.407   4
  -1 -12  -4 1602.87 363.960   2
  -1 -12  -3 3621.25 537.044   2
  -1 -12  -2 5701.66 662.655   2
  -1 -12  -1 896.016 296.178   2
  -1 -11 -12-137.370 125.662   4
  -1 -11 -11 7447.77 769.662   4
  -1 -11 -10 1531.16 352.350   4
  -1 -11  -9 2066.47 392.426   4
  -1 -11  -8 14473.2 1018.35   4
  -1 -11  -7 10146.1 842.931   4
  -1 -11  -6 5713.69 627.957   4
  -1 -11  -5 11800.3 896.460   4
  -1 -11  -4 17725.1 1099.37   4
  -1 -11  -3 2791.86 455.355   2
  -1 -11  -2 111.360 128.960   2
  -1 -11  -1 25538.4 1344.69   2
  -1 -11   0 2935.81 465.589   2
  -1 -11   1 2629.67 437.098   2
  -1 -11   2 6763.32 716.173   2
  -1 -11   3 4325.35 578.244   2
  -1 -10 -14 1774.19 377.580   4
  -1 -10 -13 7338.16 745.704   4
  -1 -10 -12 18517.4 1160.52   4
  -1 -10 -11 5768.85 637.062   4
  -1 -10 -10 2589.79 432.874   4
  -1 -10  -9 8080.68 734.055   4
  -1 -10  -8 11481.0 857.996   4
  -1 -10  -7 29462.1 1350.58   4
  -1 -10  -6 26.2957 114.766   4
  -1 -10  -5 47792.2 1682.88   4
  -1 -10  -4 9509.35 751.756   4
  -1 -10  -3 1208.46 271.937   4
  -1 -10  -2 14594.1 953.675   2
  -1 -10  -1 17859.9 1065.46   2
  -1 -10   0 3633.00 482.412   2
  -1 -10   1 6269.06 633.534   2
  -1 -10   2 12594.8 913.165   2
  -1 -10   3 4309.25 551.922   2
  -1 -10   4 231.081 166.039   2
  -1 -10   5 16936.5 1115.86   2
  -1 -10   6 5382.61 646.063   2
  -1  -9 -15 5898.14 676.239   4
  -1  -9 -14 7450.11 739.102   4
  -1  -9 -13 19240.8 1152.06   4
  -1  -9 -12 11016.0 854.983   4
  -1  -9 -11 4200.00 519.333   4
  -1  -9 -10 5375.13 573.526   4
  -1  -9  -9 5638.86 574.596   4
  -1  -9  -9 5841.74 426.108   3
  -1  -9  -8 5379.37 550.317   4
  -1  -9  -8 5509.03 377.331   3
  -1  -9  -7 16381.5 574.295   3
  -1  -9  -7 15037.1 913.003   4
  -1  -9  -6 16063.8 471.817   3
  -1  -9  -6 15932.2 926.610   4
  -1  -9  -5 11575.3 779.991   4
  -1  -9  -5 11165.9 240.581   3
  -1  -9  -4 3781.64 446.495   4
  -1  -9  -3 26705.3 1174.14   4
  -1  -9  -2 14181.7 864.666   4
  -1  -9  -2 14085.6 866.679   2
  -1  -9  -1 6263.69 587.682   2
  -1  -9   0 31523.1 1323.55   2
  -1  -9   1 18877.3 1028.54   2
  -1  -9   2 3077.15 432.936   2
  -1  -9   3 9836.04 776.563   2
  -1  -9   4 22971.7 1208.39   2
  -1  -9   5 701.689 231.870   2
  -1  -9   6 10658.6 860.297   2
  -1  -9   7 12423.8 952.447   2
  -1  -9   8 8981.81 833.433   2
  -1  -8 -16 5649.79 657.905   4
  -1  -8 -15 13023.6 974.225   4
  -1  -8 -14 11580.5 892.650   4
  -1  -8 -13 8000.05 718.654   4
  -1  -8 -12 24106.3 1207.16   4
  -1  -8 -11 17205.4 988.711   4
  -1  -8 -10 1188.71 258.175   4
  -1  -8  -9 5341.74 519.089   4
  -1  -8  -8 64997.4 1779.00   4
  -1  -8  -7 2721.37 357.430   4
  -1  -8  -6 28100.8 1144.13   4
  -1  -8  -6 26816.6 685.355   3
  -1  -8  -5 14017.5 404.183   3
  -1  -8  -5 13962.5 799.496   4
  -1  -8  -4 11017.8 701.943   4
  -1  -8  -3 603.714 170.268   4
  -1  -8  -2 16644.2 862.536   4
  -1  -8  -1 62618.3 1703.23   2
  -1  -8   0 2470.46 352.814   2
  -1  -8   1 652.384 200.284   2
  -1  -8   2 31438.7 1256.64   2
  -1  -8   3 7434.00 625.678   2
  -1  -8   4-240.703 139.427   2
  -1  -8   5 979.844 249.241   2
  -1  -8   6 43655.0 1631.03   2
  -1  -8   7 491.786 185.966   2
  -1  -8   8 148.998 106.508   2
  -1  -8   9 18248.7 1155.08   2
  -1  -7 -17 1514.92 352.121   4
  -1  -7 -16 1433.27 322.203   4
  -1  -7 -15 974.657 260.217   4
  -1  -7 -14 951.017 266.051   4
  -1  -7 -13 21714.8 1122.42   4
  -1  -7 -12 41302.8 1507.47   4
  -1  -7 -11 284.809 132.021   4
  -1  -7 -10 23031.0 1054.49   4
  -1  -7  -9 23701.0 1041.86   4
  -1  -7  -8 12505.6 735.253   4
  -1  -7  -7 8727.08 603.885   4
  -1  -7  -6 35073.3 1182.61   4
  -1  -7  -5 4804.63 437.924   4
  -1  -7  -4 2233.62 143.180   3
  -1  -7  -4 2699.37 333.344   4
  -1  -7  -3 9434.39 599.320   4
  -1  -7  -2 36624.3 1172.26   4
  -1  -7  -1 32.4822 73.4303   4
  -1  -7  -1 353.014 134.974   2
  -1  -7   0 13840.1 758.049   2
  -1  -7   1 18893.5 879.225   2
  -1  -7   2 18587.0 891.710   2
  -1  -7   3 10072.1 676.292   2
  -1  -7   4 4157.44 448.088   2
  -1  -7   5 25086.0 1124.36   2
  -1  -7   6 1029.66 236.030   2
  -1  -7   7 4933.25 532.231   2
  -1  -7   8 19319.1 1091.84   2
  -1  -7   9 77.3479 161.295   2
  -1  -7  10 202.505 129.843   2
  -1  -7  11 566.208 205.651   2
  -1  -6 -17 6226.21 679.212   4
  -1  -6 -16 879.465 262.041   4
  -1  -6 -15 3342.86 470.394   4
  -1  -6 -14 15170.6 940.078   4
  -1  -6 -13 3465.79 435.252   4
  -1  -6 -12 1104.76 239.911   4
  -1  -6 -11 11919.1 745.967   4
  -1  -6 -10 49.0193 78.7907   4
  -1  -6  -9 159.656 116.369   4
  -1  -6  -8 10703.8 641.528   4
  -1  -6  -7 49827.6 1335.72   4
  -1  -6  -6 83.2276 80.5605   4
  -1  -6  -5 747.679 165.698   4
  -1  -6  -4 37779.3 1116.23   4
  -1  -6  -3 10824.1 262.943   3
  -1  -6  -3 10777.5 588.851   4
  -1  -6  -2 2528.23 288.709   4
  -1  -6  -1 63034.9 1417.73   4
  -1  -6   0 9227.93 560.865   2
  -1  -6   1 20241.0 839.322   2
  -1  -6   2 27281.0 1001.08   2
  -1  -6   3 21123.4 899.671   2
  -1  -6   4 7329.85 555.621   2
  -1  -6   5 18169.5 893.161   2
  -1  -6   6 4406.05 455.503   2
  -1  -6   7 26704.8 1161.43   2
  -1  -6   8 9238.19 714.221   2
  -1  -6   9 3239.36 450.505   2
  -1  -6  10 1871.70 371.159   2
  -1  -6  11 4852.72 581.414   2
  -1  -6  12 2343.04 423.345   2
  -1  -5 -17 1792.14 389.437   4
  -1  -5 -16 13752.3 960.188   4
  -1  -5 -15 5256.35 574.773   4
  -1  -5 -14 14.6753 130.005   4
  -1  -5 -13 44683.9 1525.63   4
  -1  -5 -13 46537.3 978.004   1
  -1  -5 -12 23745.9 656.327   1
  -1  -5 -12 24622.8 1076.26   4
  -1  -5 -11 3879.62 247.535   1
  -1  -5 -11 4277.32 434.611   4
  -1  -5 -10 6439.35 501.567   4
  -1  -5 -10 6924.01 307.473   1
  -1  -5  -9 72138.3 1611.22   4
  -1  -5  -9 74447.2 1672.84   2
  -1  -5  -9 74123.4 928.920   1
  -1  -5  -8 53637.4 1344.97   4
  -1  -5  -7 28045.4 940.147   4
  -1  -5  -6 54886.3 1275.08   4
  -1  -5  -5 27052.3 867.704   4
  -1  -5  -4 4166.01 333.290   4
  -1  -5  -3 784.927 152.034   4
  -1  -5  -2 18451.6 689.592   4
  -1  -5  -1 27488.4 837.526   4
  -1  -5   0 19869.8 747.145   2
  -1  -5   1 15244.4 663.986   2
  -1  -5   2 28722.8 934.807   2
  -1  -5   3 10005.3 567.835   2
  -1  -5   4 622.065 160.830   2
  -1  -5   5 31601.2 1090.22   2
  -1  -5   6 47400.2 1388.30   2
  -1  -5   7 11913.5 732.749   2
  -1  -5   8 33054.9 1267.59   2
  -1  -5   9 29837.1 1250.14   2
  -1  -5  10 2109.45 352.192   2
  -1  -5  11 5073.10 564.719   2
  -1  -5  12 22538.2 1227.05   2
  -1  -5  13 13818.0 995.099   2
  -1  -4 -17 9709.32 821.896   4
  -1  -4 -16 4411.74 532.364   4
  -1  -4 -15 8019.24 690.329   4
  -1  -4 -14 15042.3 903.703   4
  -1  -4 -13 24776.1 1106.50   4
  -1  -4 -12 3975.19 422.970   4
  -1  -4 -11 3236.55 368.414   4
  -1  -4 -10 15518.6 528.626   1
  -1  -4 -10 15744.4 762.853   4
  -1  -4 -10 15749.8 774.294   2
  -1  -4  -9 25848.7 944.488   2
  -1  -4  -9 23440.9 603.342   1
  -1  -4  -9 25210.8 924.388   4
  -1  -4  -8 23841.8 567.255   1
  -1  -4  -8 22939.8 837.184   4
  -1  -4  -8 24766.1 890.744   2
  -1  -4  -7 57022.5 1239.18   4
  -1  -4  -7 54843.3 811.378   1
  -1  -4  -6 78183.7 1392.80   4
  -1  -4  -5 26896.1 791.855   4
  -1  -4  -4 21961.6 684.171   4
  -1  -4  -3 150982. 1757.99   4
  -1  -4  -2 119967. 1561.59   4
  -1  -4  -1 7070.74 378.711   4
  -1  -4   0 113789. 1581.29   2
  -1  -4   1 50989.9 1085.33   2
  -1  -4   2 4994.43 352.073   2
  -1  -4   3 28712.8 884.112   2
  -1  -4   4 22012.5 808.178   2
  -1  -4   5 1390.26 212.998   2
  -1  -4   6 17902.8 800.387   2
  -1  -4   7 66520.6 1611.91   2
  -1  -4   8 7541.14 567.182   2
  -1  -4   9 2129.85 325.393   2
  -1  -4  10 22541.9 1075.41   2
  -1  -4  11 6274.26 592.014   2
  -1  -4  12 10009.9 783.105   2
  -1  -4  13 10378.3 836.451   2
  -1  -4  14 12291.4 945.592   2
  -1  -3 -17 799.280 223.351   4
  -1  -3 -16 2951.09 437.050   4
  -1  -3 -15 19066.6 1056.81   4
  -1  -3 -14 33002.3 1319.90   4
  -1  -3 -13 297.982 141.270   4
  -1  -3 -12 13455.5 765.352   4
  -1  -3 -11 36250.5 1190.90   4
  -1  -3 -10 1049.42 200.842   2
  -1  -3 -10 819.516 175.026   4
  -1  -3  -9 7046.49 480.447   2
  -1  -3  -9 7140.28 474.502   4
  -1  -3  -8 53133.3 1251.85   2
  -1  -3  -8 54091.4 1229.57   4
  -1  -3  -7 63571.6 958.217   1
  -1  -3  -7 64277.9 1263.21   4
  -1  -3  -7 62809.7 1287.08   2
  -1  -3  -6 1942.39 158.691   1
  -1  -3  -6 2246.29 229.621   4
  -1  -3  -5 48112.8 739.805   1
  -1  -3  -5 48453.6 962.605   4
  -1  -3  -4 105064. 1343.41   4
  -1  -3  -3 12737.6 445.390   4
  -1  -3  -2 89570.2 1149.64   4
  -1  -3  -1 77505.8 680.279   3
  -1  -3  -1 77918.9 1060.18   4
  -1  -3   0 38384.4 435.738   3
  -1  -3   0 37938.7 758.695   4
  -1  -3   0 38023.1 786.383   2
  -1  -3   1 32405.0 752.783   2
  -1  -3   2 66470.0 1135.70   2
  -1  -3   3 4295.07 313.671   2
  -1  -3   4 2856.27 265.791   2
  -1  -3   5 30836.3 922.446   2
  -1  -3   6 10868.1 580.179   2
  -1  -3   7 20861.8 848.622   2
  -1  -3   8 8746.33 581.624   2
  -1  -3   9 24416.5 1016.43   2
  -1  -3  10 2365.18 340.930   2
  -1  -3  11 3893.94 447.486   2
  -1  -3  12 43344.6 1564.69   2
  -1  -3  13 8519.28 728.228   2
  -1  -3  14 4815.89 585.835   2
  -1  -3  15 3801.32 523.780   2
  -1  -2 -17 5555.92 628.211   4
  -1  -2 -16 12354.5 885.962   4
  -1  -2 -15 1385.10 280.645   4
  -1  -2 -14 2741.14 380.962   4
  -1  -2 -13 29617.3 1196.05   4
  -1  -2 -12 3416.94 383.774   4
  -1  -2 -11 138.531 73.5153   4
  -1  -2 -10 25049.1 934.527   4
  -1  -2 -10 25576.3 940.539   2
  -1  -2  -9 19286.5 776.362   2
  -1  -2  -9 18890.0 760.438   4
  -1  -2  -8 3571.76 310.000   4
  -1  -2  -8 3975.18 335.200   2
  -1  -2  -7 64081.9 1244.28   2
  -1  -2  -7 63076.2 1211.94   4
  -1  -2  -6 3670.97 283.961   2
  -1  -2  -6 4150.28 289.701   4
  -1  -2  -5 32904.8 660.332   1
  -1  -2  -5 33665.3 770.719   2
  -1  -2  -5 33840.5 752.354   4
  -1  -2  -4 5228.78 246.454   1
  -1  -2  -4 5259.03 272.687   4
  -1  -2  -3 52180.6 769.063   4
  -1  -2  -3 51495.1 741.918   1
  -1  -2  -2 78827.0 881.104   4
  -1  -2  -1 12439.3 341.114   4
  -1  -2   0 89597.7 787.632   3
  -1  -2   0 89492.1 974.024   2
  -1  -2   1 36280.9 535.491   3
  -1  -2   1 36237.7 660.460   2
  -1  -2   2 9447.08 372.095   2
  -1  -2   3 9320.02 401.137   2
  -1  -2   4 15031.8 549.100   2
  -1  -2   5 9473.40 474.418   2
  -1  -2   6 2735.20 277.034   2
  -1  -2   7 26531.7 902.057   2
  -1  -2   8 21860.6 868.650   2
  -1  -2   9 663.080 164.265   2
  -1  -2  10 2602.74 333.174   2
  -1  -2  11 27335.9 1139.40   2
  -1  -2  12 4970.47 520.701   2
  -1  -2  13 6768.85 634.395   2
  -1  -2  14 9116.49 767.357   2
  -1  -2  15 7404.03 723.855   2
  -1  -2  16 999.733 290.854   2
  -1  -1 -17 1310.14 330.067   4
  -1  -1 -16 5167.56 588.563   4
  -1  -1 -15 14832.2 951.307   4
  -1  -1 -14 16644.9 955.509   4
  -1  -1 -10 96.6652 63.4342   2
  -1  -1  -9 764.368 154.266   2
  -1  -1  -8 40214.0 1059.42   2
  -1  -1  -7 6779.85 400.895   2
  -1  -1  -6 239.619 82.1807   2
  -1  -1  -5 68.0196 44.9546   2
  -1  -1  -4 1687.43 150.971   2
  -1  -1  -3 11554.1 368.274   1
  -1  -1  -3 12813.6 358.212   2
  -1  -1  -3 12018.6 338.317   4
  -1  -1  -2 1675.71 138.379   1
  -1  -1  -2 1438.68 99.2044   4
  -1  -1  -1 228122. 988.473   4
  -1  -1  -1 229539. 1524.74   1
  -1  -1   0 62070.8 730.538   3
  -1  -1   0 62402.3 571.565   2
  -1  -1   1 3250.30 176.706   3
  -1  -1   1 3329.50 156.121   2
  -1  -1   2 179225. 1331.60   2
  -1  -1   3 88100.3 1073.06   2
  -1  -1   4 47465.4 882.946   2
  -1  -1   5 65.9320 63.7646   2
  -1  -1   6 176948. 2041.98   2
  -1  -1   7 10499.7 539.516   2
  -1  -1   8 3525.46 333.769   2
  -1  -1   9 15440.5 740.500   2
  -1  -1  10 6723.96 520.220   2
  -1  -1  11 712.635 175.577   2
  -1  -1  12 828.712 215.537   2
  -1  -1  13 12366.5 829.496   2
  -1  -1  14 16458.1 1013.44   2
  -1  -1  15 131.137 161.667   2
  -1  -1  16 5680.67 652.437   2
  -1   0 -10 13745.9 719.160   2
  -1   0  -9 40855.6 1155.88   2
  -1   0  -8 50190.1 1215.36   2
  -1   0  -7 19127.6 689.883   2
  -1   0  -6 64570.6 1164.79   2
  -1   0  -5 28912.6 704.345   2
  -1   0  -4 365.937 73.7457   2
  -1   0  -3 8487.81 291.075   2
  -1   0  -2 29843.6 439.231   2
  -1   0  -1 808.829 98.9434   1
  -1   0   0 71304.2 838.556   1
  -1   0   0 71833.1 852.555   3
  -1   0   1 23040.8 297.998   2
  -1   0   1 22662.0 492.244   3
  -1   0   2 2876.67 146.043   2
  -1   0   2 2723.90 188.651   3
  -1   0   3 2238.02 158.787   2
  -1   0   4 10851.1 398.543   2
  -1   0   5 54481.8 986.115   2
  -1   0   6 57786.1 1116.36   2
  -1   0   7 5697.40 382.927   2
  -1   0   8 35615.4 1030.68   2
  -1   0   9 39626.4 1157.95   2
  -1   0  10 5748.14 475.645   2
  -1   0  11 9732.94 655.886   2
  -1   0  12 50592.5 1567.67   2
  -1   0  13 8983.46 694.044   2
  -1   0  14 4153.00 503.194   2
  -1   0  15 25186.8 1270.82   2
  -1   0  16 4265.58 554.046   2
  -1   0  17 1942.72 383.198   2
  -1   1  -9 20330.5 853.009   2
  -1   1  -8 45422.6 1191.43   2
  -1   1  -7 100123. 1645.68   2
  -1   1  -6 43158.6 1005.50   2
  -1   1  -5 40438.4 902.794   2
  -1   1  -4 12462.9 450.628   2
  -1   1  -3 50374.6 802.683   2
  -1   1  -2 13836.4 368.731   2
  -1   1  -1 96799.0 843.880   2
  -1   1   0 142426. 1297.26   3
  -1   1   0 141228. 977.344   4
  -1   1   0 142222. 1216.14   1
  -1   1   1 5344.44 260.360   3
  -1   1   1 5212.04 185.450   4
  -1   1   1 5305.30 229.733   1
  -1   1   2 3257.65 216.026   3
  -1   1   2 3062.24 160.862   4
  -1   1   3 150392. 1530.41   3
  -1   1   3 149927. 1273.19   4
  -1   1   5 65555.9 1087.43   2
  -1   1   6 23490.8 706.950   2
  -1   1   7 95679.1 1546.56   2
  -1   1   8 16453.9 699.280   2
  -1   1   9 425.633 125.481   2
  -1   1  10 32244.0 1104.67   2
  -1   1  11 16260.7 830.841   2
  -1   1  12 5553.94 517.890   2
  -1   1  13 29254.0 1232.68   2
  -1   1  14 9698.70 749.250   2
  -1   1  15 1633.90 328.850   2
  -1   1  16 1447.76 344.926   2
  -1   2  -8 53209.1 1360.76   2
  -1   2  -7 8344.54 506.721   2
  -1   2  -6 38822.6 1030.35   2
  -1   2  -5 117803. 1664.17   2
  -1   2  -4 61045.6 1128.71   2
  -1   2  -3 251.632 79.2343   2
  -1   2  -2 97142.3 1198.54   2
  -1   2  -1 999999. 3780.54   3
  -1   2  -1 999713. 3659.08   4
  -1   2   0 152355. 1424.35   3
  -1   2   0 149387. 1354.94   4
  -1   2   1 41323.0 662.131   1
  -1   2   1 42459.3 759.130   3
  -1   2   1 40944.8 687.279   4
  -1   2   2 146400. 1191.85   1
  -1   2   2 149657. 1475.31   3
  -1   2   2 148895. 1328.88   4
  -1   2   3 10589.8 422.310   3
  -1   2   3 10409.5 373.821   4
  -1   2   4 6084.17 307.359   4
  -1   2   5 86678.2 1263.90   4
  -1   3  -8 825.755 189.656   2
  -1   3  -7 42179.6 1218.66   2
  -1   3  -6 20480.6 811.457   2
  -1   3  -5 11042.9 563.291   2
  -1   3  -4-1.35318 59.6174   2
  -1   3  -3 42496.2 980.144   2
  -1   3  -2 75172.9 1268.39   4
  -1   3  -1 32125.9 719.496   3
  -1   3  -1 30413.3 765.052   4
  -1   3   0 38999.9 766.873   3
  -1   3   0 39795.6 843.960   4
  -1   3   1 8242.60 354.790   3
  -1   3   1 8080.58 369.500   4
  -1   3   2 56.8816 55.1445   4
  -1   3   2 106.327 49.0841   1
  -1   3   2 75.0249 61.4099   3
  -1   3   3 33974.6 778.459   3
  -1   3   3 34206.7 769.055   4
  -1   3   3 33150.4 561.969   1
  -1   3   4 32782.2 792.179   4
  -1   3   5 38737.1 897.668   4
  -1   3   6 5758.61 366.528   4
  -1   3   7 20422.5 738.593   4
  -1   4  -6 2287.04 298.125   2
  -1   4  -5 8418.20 541.486   2
  -1   4  -4 2747.49 296.363   2
  -1   4  -3 1670.39 224.852   4
  -1   4  -2 91320.4 1568.78   4
  -1   4  -1 19343.4 698.179   4
  -1   4  -1 19185.5 585.195   3
  -1   4   0 40779.5 823.943   3
  -1   4   0 42056.9 1002.10   4
  -1   4   1 615.385 125.658   4
  -1   4   1 1074.57 141.988   3
  -1   4   2 10411.2 426.226   3
  -1   4   2 9223.06 455.664   4
  -1   4   3 32874.3 790.985   3
  -1   4   3 32166.2 854.692   4
  -1   4   3 31434.3 584.573   1
  -1   4   4 16942.3 623.918   4
  -1   4   4 16267.8 385.396   1
  -1   4   5 4433.42 335.048   4
  -1   4   6 26311.5 833.904   4
  -1   4   7 82.8245 71.1910   4
  -1   4   8 2113.14 263.156   4
  -1   5  -5 2816.53 335.631   2
  -1   5  -4 75.6282 73.7114   4
  -1   5  -3 875.217 188.550   4
  -1   5  -2 80458.0 1294.60   3
  -1   5  -2 78050.5 1610.10   4
  -1   5  -1 31183.3 769.545   3
  -1   5  -1 32870.9 1012.85   4
  -1   5   0 639.011 147.269   4
  -1   5   0 549.988 107.929   3
  -1   5   1 31794.2 950.906   4
  -1   5   1 31922.2 760.919   3
  -1   5   2 33228.0 790.758   3
  -1   5   2 32565.9 953.541   4
  -1   5   3 7634.48 395.103   3
  -1   5   3 8143.60 481.634   4
  -1   5   4 16851.1 425.617   1
  -1   5   4 17088.4 694.887   4
  -1   5   5 16351.6 688.012   4
  -1   5   6 26449.1 905.152   4
  -1   5   7 2989.01 312.724   4
  -1   5   8 12678.5 666.183   4
  -1   6  -3 20025.6 706.031   3
  -1   6  -2 13845.8 556.624   3
  -1   6  -2 14641.3 760.549   4
  -1   6  -1 11790.6 491.721   3
  -1   6  -1 12477.2 688.760   4
  -1   6   0 18591.2 608.329   3
  -1   6   0 20336.4 861.952   4
  -1   6   1 1947.37 263.585   4
  -1   6   1 1966.40 199.931   3
  -1   6   2 13344.1 521.560   3
  -1   6   2 13625.8 683.916   4
  -1   6   3 41395.8 948.135   3
  -1   6   3 41387.7 1182.72   4
  -1   6   4 13592.3 425.829   1
  -1   6   4 13539.4 679.737   4
  -1   6   5 49240.9 700.307   1
  -1   6   5 51753.4 1325.07   4
  -1   6   6 14111.5 709.109   4
  -1   6   7 39634.5 1207.14   4
  -1   7  -4 13036.6 608.018   3
  -1   7  -3 14036.5 598.320   3
  -1   7  -2 43936.8 1011.24   3
  -1   7  -1 25040.0 739.794   3
  -1   7   0 20344.9 655.104   3
  -1   7   1 34529.3 851.027   3
  -1   7   2 56585.1 1105.64   3
  -1   7   3 12183.8 699.671   4
  -1   7   5 99583.4 1108.45   1
  -1   8  -6 17595.6 786.575   3
  -1   8  -5 4857.45 398.795   3
  -1   8  -4 5353.31 395.934   3
  -1   8  -3 22668.2 769.264   3
  -1   8  -2 5331.75 361.547   3
  -1   8  -1-1.22515 63.3445   3
  -1   8   0 16532.5 600.062   3
  -1   8   1 1036.13 154.460   3
  -1   8   2 104.614 65.4194   3
  -1   8   5 11319.4 416.897   1
  -1   8   6 25606.8 503.425   1
  -1   9  -4 9549.61 519.096   3
  -1   9  -3 5427.66 378.086   3
  -1   9  -2 6346.48 393.432   3
  -1   9  -1 35374.8 895.008   3
  -1   9   0 2534.44 239.491   3
  -1   9   1 4280.76 312.797   3
  -1   9   5 5669.65 323.847   1
  -1   9   6 11135.3 371.112   1
   0 -12  -8 2881.08 480.492   4
   0 -12  -7 4140.11 579.801   4
   0 -12  -6 22373.3 1318.91   4
   0 -12  -5 511.938 195.383   4
   0 -12  -4 9442.06 858.829   2
   0 -12  -3 4416.91 591.462   2
   0 -12  -2 174.921 154.033   2
   0 -12  -1 2503.13 447.593   2
   0 -11 -12 18919.8 1241.69   4
   0 -11 -11 18617.4 1219.98   4
   0 -11 -10 7953.66 786.933   4
   0 -11  -9 6589.39 715.363   4
   0 -11  -8 9541.42 842.103   4
   0 -11  -7 7500.50 733.989   4
   0 -11  -6 12771.8 951.636   4
   0 -11  -5 11896.0 911.435   4
   0 -11  -4 11189.5 888.141   4
   0 -11  -3 305.132 205.854   2
   0 -11  -2 11995.2 925.789   2
   0 -11  -1 16599.4 1096.60   2
   0 -11   0 3373.95 491.649   2
   0 -11   1 11700.6 925.241   2
   0 -11   2 15119.2 1061.64   2
   0 -11   3 4475.51 587.279   2
   0 -10 -14 5787.46 682.755   4
   0 -10 -13 8815.37 820.016   4
   0 -10 -12 5713.97 650.762   4
   0 -10 -11 14509.2 1023.32   4
   0 -10 -10 28548.9 1402.50   4
   0 -10  -9 1481.71 331.457   4
   0 -10  -8 725.874 251.496   4
   0 -10  -7 63204.7 2009.36   4
   0 -10  -6 1826.97 350.123   4
   0 -10  -5 14171.2 940.136   4
   0 -10  -4 6708.32 641.185   4
   0 -10  -3 8366.46 717.594   4
   0 -10  -2 1518.27 369.397   2
   0 -10  -1 1989.78 364.878   2
   0 -10   0 27361.9 1316.62   2
   0 -10   1 11042.7 844.347   2
   0 -10   2 460.441 203.651   2
   0 -10   3 13768.9 972.749   2
   0 -10   4 17962.0 1134.12   2
   0 -10   5 8800.65 806.522   2
   0 -10   6 730.621 269.394   2
   0  -9 -15 2279.44 434.337   4
   0  -9 -14 3273.65 502.016   4
   0  -9 -13 192.810 103.854   4
   0  -9 -12 5142.17 596.509   4
   0  -9 -11 42078.9 1635.26   4
   0  -9 -10 142.185 157.387   4
   0  -9 -10-133.914 90.7106   3
   0  -9  -9 5499.14 439.784   3
   0  -9  -9 6018.75 604.592   4
   0  -9  -8 22411.0 821.695   3
   0  -9  -8 20752.8 1100.56   4
   0  -9  -7 21830.1 748.419   3
   0  -9  -7 23124.2 1146.61   4
   0  -9  -6 10544.3 477.568   3
   0  -9  -6 11123.6 788.103   4
   0  -9  -5 32313.2 744.081   3
   0  -9  -5 30560.0 1289.73   4
   0  -9  -4 17236.9 958.692   4
   0  -9  -3 267.408 124.202   4
   0  -9  -2 1670.06 307.627   4
   0  -9  -1 29859.8 1275.14   2
   0  -9   0 790.068 223.351   2
   0  -9   1 1544.14 318.885   2
   0  -9   2 3368.43 441.524   2
   0  -9   3 6904.51 648.361   2
   0  -9   4 3444.36 487.898   2
   0  -9   5 435.696 206.746   2
   0  -9   6 13624.2 967.335   2
   0  -9   7 4258.94 560.209   2
   0  -9   8 1887.26 380.215   2
   0  -8 -16 11654.1 949.981   4
   0  -8 -15 848.721 249.385   4
   0  -8 -14 138.649 173.035   4
   0  -8 -13 13559.1 939.703   4
   0  -8 -12 6737.36 653.725   4
   0  -8 -11 9.41167 119.463   4
   0  -8 -10 4286.66 414.479   3
   0  -8 -10 4260.33 493.407   4
   0  -8  -9 3225.75 338.242   3
   0  -8  -9 3541.36 436.300   4
   0  -8  -8 43.7898 126.851   4
   0  -8  -8 112.086 94.3811   3
   0  -8  -7 709.285 141.445   3
   0  -8  -7 1001.01 233.779   4
   0  -8  -6 47824.1 1028.07   3
   0  -8  -6 47567.8 1521.25   4
   0  -8  -5 11267.8 455.261   3
   0  -8  -5 10782.6 714.323   4
   0  -8  -4 581.676 100.143   3
   0  -8  -4 311.305 134.501   4
   0  -8  -3 17506.3 891.275   4
   0  -8  -2 24877.0 1071.57   4
   0  -8  -1 4013.25 435.248   2
   0  -8   0 24746.7 1090.78   2
   0  -8   1 10557.1 712.505   2
   0  -8   2 10067.9 714.093   2
   0  -8   3 10625.2 748.711   2
   0  -8   4 11392.9 790.759   2
   0  -8   5 3633.68 457.386   2
   0  -8   6 10905.9 813.987   2
   0  -8   7 520.933 189.997   2
   0  -8   8 11888.8 906.698   2
   0  -8   9 6917.66 713.012   2
   0  -7 -16 2157.56 404.200   4
   0  -7 -15 12846.7 938.870   4
   0  -7 -14 18549.8 1088.60   4
   0  -7 -13-77.1216 120.077   4
   0  -7 -12 18760.7 1023.80   4
   0  -7 -11 16605.0 941.440   4
   0  -7 -10 3508.47 420.937   4
   0  -7  -9 526.107 173.193   4
   0  -7  -8 14305.0 660.285   3
   0  -7  -8 14985.5 813.374   4
   0  -7  -7 30656.8 1145.98   4
   0  -7  -7 32086.8 916.349   3
   0  -7  -6 11022.9 497.544   3
   0  -7  -6 10009.7 642.775   4
   0  -7  -5 15237.9 532.973   3
   0  -7  -5 17107.4 839.625   4
   0  -7  -4 19448.1 542.820   3
   0  -7  -4 20119.5 900.306   4
   0  -7  -3 18368.3 467.537   3
   0  -7  -3 17827.4 837.536   4
   0  -7  -2 4008.99 400.858   4
   0  -7  -1 9762.61 625.218   4
   0  -7   0 51003.6 1444.74   2
   0  -7   1 295.140 132.658   2
   0  -7   2 2962.81 356.350   2
   0  -7   3 11306.3 715.360   2
   0  -7   4 8750.19 644.630   2
   0  -7   5 15.8675 82.6349   2
   0  -7   6 3611.12 443.423   2
   0  -7   7 23988.7 1171.18   2
   0  -7   8 8362.29 717.970   2
   0  -7   9 11339.8 865.781   2
   0  -7  10 21992.7 1235.10   2
   0  -7  11 7036.25 719.640   2
   0  -6 -17 7304.12 735.953   4
   0  -6 -16 11577.4 894.659   4
   0  -6 -15 11014.9 837.364   4
   0  -6 -14 17329.2 1010.56   4
   0  -6 -13 24373.7 1159.56   4
   0  -6 -12 52940.2 1639.96   4
   0  -6 -11 25853.1 1106.32   4
   0  -6 -10 12722.2 754.113   4
   0  -6  -9 19305.8 903.093   4
   0  -6  -8 30818.8 1100.88   4
   0  -6  -7 17887.6 815.056   4
   0  -6  -6 18407.7 644.888   3
   0  -6  -6 20030.7 845.970   4
   0  -6  -5 33977.9 794.763   3
   0  -6  -5 34497.9 1087.07   4
   0  -6  -4 12743.9 438.355   3
   0  -6  -4 13481.6 680.397   4
   0  -6  -3 999.149 194.105   4
   0  -6  -3 1014.70 113.918   3
   0  -6  -2 39605.6 602.220   3
   0  -6  -2 40532.7 1153.02   4
   0  -6  -1 77294.1 1599.62   4
   0  -6   0 4413.05 390.364   2
   0  -6   1 51086.5 1343.20   2
   0  -6   2 55746.0 1424.40   2
   0  -6   3 7623.85 542.747   2
   0  -6   4 13756.4 749.084   2
   0  -6   5 22250.0 983.226   2
   0  -6   6 2519.08 347.090   2
   0  -6   7 1378.41 267.562   2
   0  -6   8 23981.1 1138.69   2
   0  -6   9 7735.38 676.777   2
   0  -6  10 107.263 112.446   2
   0  -6  11 5584.83 617.224   2
   0  -6  12 4270.05 550.636   2
   0  -5 -17 17973.2 1141.54   4
   0  -5 -16 3053.72 463.506   4
   0  -5 -15 753.027 237.362   4
   0  -5 -14 8550.71 703.182   4
   0  -5 -13 51441.9 1642.71   4
   0  -5 -12 1168.18 242.015   4
   0  -5 -11 1764.16 283.403   4
   0  -5 -10 66625.1 1627.90   4
   0  -5 -10 61523.8 523.372   1
   0  -5  -9 5941.39 474.618   4
   0  -5  -8 2464.89 298.929   4
   0  -5  -7 41997.8 1173.82   4
   0  -5  -6 133898. 2032.93   4
   0  -5  -5 2211.03 261.849   4
   0  -5  -4 19203.0 535.420   3
   0  -5  -4 20424.9 755.763   4
   0  -5  -3 110744. 1131.56   3
   0  -5  -3 112108. 1772.01   4
   0  -5  -2 33691.7 543.824   3
   0  -5  -2 34742.3 974.217   4
   0  -5  -1 47768.2 1134.35   4
   0  -5   0 76478.3 1470.86   4
   0  -5   0 77635.9 1473.15   2
   0  -5   1 69756.2 1433.53   2
   0  -5   2 25052.2 873.228   2
   0  -5   3 52415.8 1295.11   2
   0  -5   4 24695.2 928.219   2
   0  -5   5 6364.15 488.690   2
   0  -5   6 20661.9 914.274   2
   0  -5   7 12359.0 738.767   2
   0  -5   8 17894.1 927.283   2
   0  -5   9 1823.74 319.725   2
   0  -5  10 11845.3 819.643   2
   0  -5  11 4062.61 505.577   2
   0  -5  12-47.9340 146.144   2
   0  -5  13 14952.0 1033.76   2
   0  -4 -17 459.996 176.613   4
   0  -4 -16 1364.69 315.978   4
   0  -4 -15 20982.5 1123.56   4
   0  -4 -14 10074.0 747.406   4
   0  -4 -13 2000.59 326.013   4
   0  -4 -12 29584.9 1154.60   4
   0  -4 -11 27029.9 1059.45   4
   0  -4 -10 2914.17 335.319   4
   0  -4 -10 2597.60 318.061   2
   0  -4  -9 26278.4 966.640   2
   0  -4  -9 23883.7 910.441   4
   0  -4  -8 51666.5 1296.88   2
   0  -4  -8 50664.9 1257.44   4
   0  -4  -7 7276.18 456.860   4
   0  -4  -6 60306.5 1252.16   4
   0  -4  -5 2173.77 235.369   4
   0  -4  -4 19598.5 668.114   4
   0  -4  -3 367.101 105.056   4
   0  -4  -3 302.795 64.6910   3
   0  -4  -2 212.126 47.7378   3
   0  -4  -2 361.844 107.919   4
   0  -4  -1 26193.0 404.670   3
   0  -4  -1 25895.4 748.272   4
   0  -4   0 5870.47 361.637   4
   0  -4   1 39220.9 968.764   2
   0  -4   2 46080.0 1070.52   2
   0  -4   3 22426.2 776.670   2
   0  -4   4 21103.7 783.745   2
   0  -4   5 34082.2 1044.81   2
   0  -4   6 39793.8 1184.47   2
   0  -4   7 13538.4 724.282   2
   0  -4   8 15472.4 807.186   2
   0  -4   9 32125.0 1219.80   2
   0  -4  10 2281.91 346.485   2
   0  -4  11 249.362 144.313   2
   0  -4  12 13846.0 914.258   2
   0  -4  13 4939.15 586.598   2
   0  -4  14 3573.89 509.014   2
   0  -3 -17 5625.17 637.785   4
   0  -3 -16 2231.32 383.175   4
   0  -3 -15 1723.65 325.305   4
   0  -3 -14 7686.39 646.916   4
   0  -3 -13 12985.3 794.367   4
   0  -3 -12 1274.35 239.058   4
   0  -3 -11 198.178 111.907   4
   0  -3 -10 45452.0 1290.06   2
   0  -3 -10 42754.7 1237.67   4
   0  -3  -9 8922.78 543.091   2
   0  -3  -9 7222.43 486.005   4
   0  -3  -8 97.2661 67.1649   4
   0  -3  -8 336.709 110.519   2
   0  -3  -7 101279. 1639.38   2
   0  -3  -7 99299.4 1602.41   4
   0  -3  -6 15852.7 606.187   4
   0  -3  -5 15722.4 563.719   4
   0  -3  -4 13145.3 491.841   4
   0  -3  -3 40284.4 827.584   4
   0  -3  -2 418.063 97.0133   4
   0  -3  -2 489.681 66.0918   3
   0  -3  -1 14399.2 271.633   3
   0  -3  -1 15290.0 499.327   4
   0  -3   0 94986.4 1240.92   4
   0  -3   1 62151.0 1052.51   2
   0  -3   2 14253.5 527.518   2
   0  -3   3 6395.98 376.664   2
   0  -3   4 25359.5 786.697   2
   0  -3   5 44595.9 1104.53   2
   0  -3   6 2000.54 257.371   2
   0  -3   7 74608.3 1597.08   2
   0  -3   8 40380.0 1231.59   2
   0  -3   9-9.53232 100.276   2
   0  -3  10 6306.35 538.649   2
   0  -3  11 11914.1 777.636   2
   0  -3  12 5534.57 557.588   2
   0  -3  13 171.140 130.842   2
   0  -3  14 1499.39 328.676   2
   0  -3  15 16656.2 1102.85   2
   0  -2 -17 10246.2 846.015   4
   0  -2 -16 1307.04 303.864   4
   0  -2 -15 11811.5 828.304   4
   0  -2 -14 18542.6 988.649   4
   0  -2 -13 17271.1 906.421   4
   0  -2 -12 7922.15 586.781   4
   0  -2 -11 36037.4 1183.28   4
   0  -2 -10 6010.46 460.778   4
   0  -2 -10 5801.86 457.047   2
   0  -2  -9 407.198 117.010   2
   0  -2  -9 339.999 106.821   4
   0  -2  -8 6295.33 415.632   4
   0  -2  -8 5819.78 408.471   2
   0  -2  -7 44869.5 1054.12   2
   0  -2  -7 44895.3 1035.80   4
   0  -2  -6 6987.16 390.829   2
   0  -2  -6 7196.88 388.510   4
   0  -2  -5 52761.6 960.803   4
   0  -2  -5 53870.8 984.380   2
   0  -2  -4 55532.4 918.892   4
   0  -2  -3 4125.12 231.253   4
   0  -2  -2 5126.09 241.591   4
   0  -2  -1 73560.8 555.128   3
   0  -2  -1 75566.8 892.627   4
   0  -2   0 8806.21 313.898   4
   0  -2   1 122485. 1213.02   2
   0  -2   2 7086.40 326.663   2
   0  -2   3 1761.69 178.962   2
   0  -2   4 3346.99 267.772   2
   0  -2   5 2501.99 243.940   2
   0  -2   6 19658.6 724.662   2
   0  -2   7 51575.2 1246.95   2
   0  -2   8 3582.62 349.841   2
   0  -2   9 8734.68 573.764   2
   0  -2  10 38280.7 1264.75   2
   0  -2  11 11567.6 737.954   2
   0  -2  12 1739.21 318.034   2
   0  -2  13 28449.5 1278.94   2
   0  -2  14 12007.5 878.383   2
   0  -2  15 1606.86 335.081   2
   0  -2  16 10164.1 882.059   2
   0  -1 -17 579.517 201.465   4
   0  -1 -16 12055.3 897.071   4
   0  -1 -15 7076.82 659.448   4
   0  -1 -14 16404.9 950.319   4
   0  -1 -13 17720.5 937.754   4
   0  -1 -10 12024.5 657.700   2
   0  -1  -9 51063.1 1271.09   2
   0  -1  -8 27528.0 882.174   2
   0  -1  -7 38458.0 962.429   2
   0  -1  -6 136040. 1663.02   2
   0  -1  -5 96065.2 1271.72   2
   0  -1  -4 86688.7 1085.29   2
   0  -1  -4 86244.8 1077.84   4
   0  -1  -3 6171.64 255.436   2
   0  -1  -3 6022.73 248.316   4
   0  -1  -2 53352.2 624.884   4
   0  -1  -1 26722.2 381.699   4
   0  -1   0 38205.8 451.229   4
   0  -1   1 100601. 840.088   2
   0  -1   2 2947.62 174.817   2
   0  -1   3 26055.7 580.811   2
   0  -1   4 26251.9 655.664   2
   0  -1   5 35338.4 833.854   2
   0  -1   6 42981.2 999.325   2
   0  -1   7 953.031 164.959   2
   0  -1   8 37971.3 1082.52   2
   0  -1   9 35523.0 1113.54   2
   0  -1  10 1545.61 256.409   2
   0  -1  11 21627.8 972.377   2
   0  -1  12 40223.4 1395.82   2
   0  -1  13 205.730 125.262   2
   0  -1  14 16304.7 990.760   2
   0  -1  15 16331.4 1045.68   2
   0  -1  16 5980.14 663.842   2
   0   0 -17 8156.58 777.069   4
   0   0 -10 43567.2 1281.79   2
   0   0  -9 2647.42 304.266   2
   0   0  -8 376.384 121.702   2
   0   0  -7 81181.8 1447.56   2
   0   0  -6 12089.1 513.188   2
   0   0  -5 6457.77 337.889   2
   0   0  -4 117695. 1277.54   2
   0   0  -3 271984. 1676.35   2
   0   0  -2 30240.4 452.856   2
   0   0   2 28534.0 442.106   2
   0   0   3 272685. 1678.21   2
   0   0   4 117844. 1284.11   2
   0   0   5 7067.32 356.812   2
   0   0   6 12660.8 521.512   2
   0   0   7 83433.7 1441.80   2
   0   0   8 665.643 147.008   2
   0   0   9 2685.15 301.280   2
   0   0  10 43871.7 1278.85   2
   0   0  11 9861.57 646.711   2
   0   0  12 10501.8 704.076   2
   0   0  13 15.4691 107.853   2
   0   0  14 42762.9 1579.14   2
   0   0  15 20948.5 1161.14   2
   0   0  16 525.096 217.072   2
   0   0  17 8146.26 785.128   2
   0   1  -9 37741.6 1167.23   2
   0   1  -8 40045.2 1128.04   2
   0   1  -7 1273.61 200.583   2
   0   1  -6 42355.9 1011.31   2
   0   1  -5 34659.3 836.585   2
   0   1  -4 24897.1 641.987   2
   0   1  -3 22633.8 546.837   2
   0   1  -2 2816.39 174.634   2
   0   1  -1 101959. 847.907   2
   0   1   2 53475.7 621.638   4
   0   1   4 87234.0 1100.64   2
   0   1   5 100236. 1315.08   2
   0   1   6 144101. 1726.62   2
   0   1   7 39370.7 984.635   2
   0   1   8 28473.2 898.547   2
   0   1   9 50594.7 1281.01   2
   0   1  10 11164.7 639.816   2
   0   1  11 49139.3 1415.59   2
   0   1  12 3596.22 413.027   2
   0   1  13 17505.8 944.290   2
   0   1  14 15851.2 950.375   2
   0   1  15 8012.41 709.102   2
   0   1  16 12017.8 905.669   2
   0   2  -8 3670.25 358.524   2
   0   2  -7 50640.5 1277.01   2
   0   2  -6 19835.4 734.007   2
   0   2  -5 2872.07 263.192   2
   0   2  -4 3346.51 268.913   2
   0   2  -3 1540.17 169.338   2
   0   2  -2 6448.08 310.560   2
   0   2  -1 124088. 1229.29   2
   0   2   0 9372.61 320.462   4
   0   2   1 72739.1 863.414   4
   0   2   2 4737.15 228.038   4
   0   2   3 4334.63 232.419   4
   0   2   4 56772.0 907.675   4
   0   2   5 52036.3 956.117   4
   0   3  -8 45914.0 1355.09   2
   0   3  -7 82102.6 1686.81   2
   0   3  -6 2171.50 269.580   2
   0   3  -5 48399.6 1167.01   2
   0   3  -4 27267.4 824.829   2
   0   3  -3 7073.89 397.783   2
   0   3  -2 14591.3 544.397   2
   0   3  -1 62488.8 1048.84   4
   0   3   0 93432.2 641.129   3
   0   3   0 90285.2 1229.73   4
   0   3   1 13952.4 467.189   4
   0   3   2 1034.48 128.100   4
   0   3   3 38907.8 788.368   4
   0   3   4 12437.7 471.802   4
   0   3   5 15914.9 559.806   4
   0   3   6 14617.1 571.570   4
   0   3   7 98154.8 1591.94   4
   0   4  -6 45861.3 1287.56   2
   0   4  -5 36237.2 1106.15   2
   0   4  -4 21903.7 822.535   2
   0   4  -3 23772.7 817.805   2
   0   4  -2 45873.9 1085.19   4
   0   4  -1 39400.8 543.253   3
   0   4  -1 37540.7 945.067   4
   0   4   0 5819.18 182.885   3
   0   4   0 5828.92 364.881   4
   0   4   1 25193.1 390.305   3
   0   4   1 27307.2 763.655   4
   0   4   2 228.528 77.4469   4
   0   4   3 297.232 92.7645   4
   0   4   4 17686.3 623.211   4
   0   4   5 2004.77 221.599   4
   0   4   6 57589.5 1205.25   4
   0   4   7 8080.78 475.481   4
   0   4   8 50615.0 1251.52   4
   0   5  -5 8069.16 565.087   2
   0   5  -4 25431.0 968.016   2
   0   5  -3 56718.5 1387.27   4
   0   5  -2 27209.6 925.118   4
   0   5  -1 71864.8 770.194   3
   0   5  -1 71256.2 1458.56   4
   0   5   0 74842.8 702.009   3
   0   5   0 76978.1 1488.44   4
   0   5   1 50433.1 1172.98   4
   0   5   2 33633.8 946.678   4
   0   5   3 109302. 1713.44   4
   0   5   4 20648.2 747.610   4
   0   5   5 2042.44 236.821   4
   0   5   6 129441. 1952.52   4
   0   5   7 40348.7 1122.40   4
   0   5   8 2980.31 319.475   4
   0   5   9 7338.27 521.038   4
   0   6  -3 8809.12 593.171   4
   0   6  -2 60890.3 838.524   3
   0   6  -2 62390.6 1534.70   4
   0   6  -1 51227.8 663.296   3
   0   6  -1 54630.0 1409.59   4
   0   6   0 4959.09 187.519   3
   0   6   0 5341.22 432.068   4
   0   6   1 78800.5 1624.75   4
   0   6   2 40955.4 1155.26   4
   0   6   3 909.427 172.830   4
   0   6   4 13676.3 672.449   4
   0   6   5 35974.9 1079.53   4
   0   6   6 17813.0 778.617   4
   0   6   7 16516.9 768.314   4
   0   6   8 32077.6 1089.97   4
   0   7  -3 12774.4 432.357   3
   0   7  -2 3004.36 182.069   3
   0   7  -1 260.709 50.1083   3
   0   7   1 11198.0 669.478   4
   0   7   2 4039.36 399.866   4
   0   7   3 18282.0 837.993   4
   0   7   4 19728.0 875.170   4
   0   7   5 15127.2 760.443   4
   0   8  -5 4274.94 305.121   3
   0   8  -4 11927.1 449.954   3
   0   8  -3 12160.6 395.908   3
   0   8  -2 11544.5 320.157   3
   0   8  -1 11206.1 250.140   3
   1 -12  -7 106.981 176.290   4
   1 -12  -6 38117.1 1753.73   4
   1 -12  -5 11256.3 955.536   4
   1 -12  -4 22768.9 1338.35   2
   1 -12  -3 10493.1 921.583   2
   1 -12  -2 12908.1 1023.72   2
   1 -11 -11 1430.84 355.025   4
   1 -11 -10 26253.1 1440.33   4
   1 -11  -9 1466.57 329.556   4
   1 -11  -8 153.521 164.944   4
   1 -11  -7 4095.67 554.065   4
   1 -11  -6 9458.13 837.050   4
   1 -11  -5 4090.11 548.517   4
   1 -11  -4 9257.50 825.730   4
   1 -11  -3 10346.7 856.297   2
   1 -11  -2 3087.82 474.865   2
   1 -11  -1 1544.53 351.797   2
   1 -11   0 20513.1 1211.78   2
   1 -11   1 7528.09 745.666   2
   1 -11   2 3440.96 508.755   2
   1 -11   3 3482.20 529.829   2
   1 -10 -13-35.1923 104.659   4
   1 -10 -12 10343.1 888.633   4
   1 -10 -11 17240.7 1129.23   4
   1 -10 -10 2856.44 482.893   4
   1 -10  -9 1664.57 352.036   4
   1 -10  -8 7868.40 736.725   4
   1 -10  -7 1541.01 344.386   4
   1 -10  -6 183.439 130.499   4
   1 -10  -5 18948.2 1097.31   4
   1 -10  -4 15482.1 988.450   4
   1 -10  -3-39.2839 110.506   4
   1 -10  -2 1697.37 335.904   2
   1 -10  -1 16885.4 1041.82   2
   1 -10   0 4110.21 521.065   2
   1 -10   1 8808.65 759.685   2
   1 -10   2 6455.92 665.031   2
   1 -10   3 6884.93 698.084   2
   1 -10   4 4900.93 595.209   2
   1 -10   5 5143.62 622.063   2
   1  -9 -14 4058.36 552.899   4
   1  -9 -13 19970.2 1202.88   4
   1  -9 -12 1367.55 321.035   4
   1  -9 -11 8792.18 766.453   4
   1  -9 -10 11452.2 855.057   4
   1  -9  -9 9337.40 762.098   4
   1  -9  -8 156.517 129.378   4
   1  -9  -8 186.242 119.661   3
   1  -9  -7 947.075 240.885   4
   1  -9  -7 1109.63 215.763   3
   1  -9  -6 12124.0 618.611   3
   1  -9  -6 13233.1 877.631   4
   1  -9  -5 6100.59 426.765   3
   1  -9  -5 6126.05 594.190   4
   1  -9  -4 1740.95 227.047   3
   1  -9  -4 2225.82 346.528   4
   1  -9  -3 2256.08 356.574   4
   1  -9  -2 10071.7 755.182   4
   1  -9  -2 10759.3 765.561   2
   1  -9  -1 5451.63 553.496   2
   1  -9   0 2299.55 373.749   2
   1  -9   1 31181.0 1332.51   2
   1  -9   2 6255.29 610.458   2
   1  -9   3 5229.28 568.105   2
   1  -9   4 8903.98 754.671   2
   1  -9   5 10487.9 834.469   2
   1  -9   6 1698.46 352.082   2
   1  -9   7 93.3129 118.817   2
   1  -9   8 7791.48 770.862   2
   1  -8 -15 5847.50 668.403   4
   1  -8 -14 6171.29 666.334   4
   1  -8 -13 12908.2 935.320   4
   1  -8 -12 14787.5 968.137   4
   1  -8 -11 33496.9 1416.60   4
   1  -8 -10 33710.4 1384.03   4
   1  -8  -9 17586.7 980.062   4
   1  -8  -8 19673.3 851.454   3
   1  -8  -8 20474.4 1036.07   4
   1  -8  -7 35208.3 1091.32   3
   1  -8  -7 34212.7 1325.87   4
   1  -8  -6 26204.9 898.190   3
   1  -8  -6 25570.0 1138.38   4
   1  -8  -5 12479.6 594.952   3
   1  -8  -5 12676.7 792.511   4
   1  -8  -4 17789.8 679.829   3
   1  -8  -4 17694.4 921.554   4
   1  -8  -3 8952.11 654.463   4
   1  -8  -2-27.5579 119.296   4
   1  -8  -1 845.154 211.643   2
   1  -8   0 17883.4 927.503   2
   1  -8   1 63.1267 100.465   2
   1  -8   2 3844.95 445.610   2
   1  -8   3 21652.6 1067.31   2
   1  -8   4 5522.05 556.454   2
   1  -8   5 3531.33 458.699   2
   1  -8   6 17980.5 1047.79   2
   1  -8   7 9559.46 788.561   2
   1  -8   8 3755.22 520.951   2
   1  -8   9 14904.0 1038.79   2
   1  -7 -16 14282.8 1029.46   4
   1  -7 -15 9113.75 801.242   4
   1  -7 -14 1965.63 360.505   4
   1  -7 -13 880.928 237.284   4
   1  -7 -12 47286.4 1657.67   4
   1  -7 -11 7732.58 654.503   4
   1  -7 -10 367.011 148.714   4
   1  -7  -9 34919.9 1186.21   3
   1  -7  -9 36126.2 1323.34   4
   1  -7  -8 28331.5 1014.64   3
   1  -7  -8 28250.3 1140.27   4
   1  -7  -7 6223.26 456.959   3
   1  -7  -7 6900.07 554.144   4
   1  -7  -6 14767.5 668.077   3
   1  -7  -6 15527.3 816.549   4
   1  -7  -5 104316. 1679.07   3
   1  -7  -5 103576. 2099.82   4
   1  -7  -4 27447.3 825.743   3
   1  -7  -4 26924.4 1056.95   4
   1  -7  -3 11263.5 517.143   3
   1  -7  -3 11495.2 684.483   4
   1  -7  -2 55551.9 1498.00   4
   1  -7  -1 35775.1 1223.80   4
   1  -7   0 20042.7 907.778   2
   1  -7   1 24593.3 1018.11   2
   1  -7   2 39745.4 1311.86   2
   1  -7   3 11530.4 722.277   2
   1  -7   4 12194.4 765.053   2
   1  -7   5 11750.5 769.247   2
   1  -7   6 4077.11 470.488   2
   1  -7   7 7116.73 637.145   2
   1  -7   8 4982.40 561.381   2
   1  -7   9 9780.76 798.006   2
   1  -7  10 728.081 238.858   2
   1  -7  11 1943.26 375.619   2
   1  -6 -17 31904.3 1550.28   4
   1  -6 -16 1587.32 349.797   4
   1  -6 -15-65.0304 147.588   4
   1  -6 -14 9961.45 781.069   4
   1  -6 -13 17243.2 990.238   4
   1  -6 -12 593.218 197.677   4
   1  -6 -11 3715.29 428.466   4
   1  -6 -10 19527.7 954.601   4
   1  -6  -9 5133.21 447.179   3
   1  -6  -9 4961.12 471.354   4
   1  -6  -8 7474.59 518.023   3
   1  -6  -8 7163.35 545.547   4
   1  -6  -7 39367.3 1116.22   3
   1  -6  -7 39372.3 1232.54   4
   1  -6  -6 13990.2 721.752   4
   1  -6  -6 13429.0 623.422   3
   1  -6  -5 53542.0 1182.96   3
   1  -6  -5 51614.9 1363.47   4
   1  -6  -4 14895.1 599.051   3
   1  -6  -4 14450.6 722.019   4
   1  -6  -3 39898.2 933.317   3
   1  -6  -3 41197.0 1198.43   4
   1  -6  -2 13021.1 523.723   3
   1  -6  -2 13266.6 677.472   4
   1  -6  -1 1880.11 265.169   4
   1  -6   0 16781.7 767.092   2
   1  -6   1 11449.3 640.314   2
   1  -6   2 12111.5 664.927   2
   1  -6   3 20020.8 875.685   2
   1  -6   4 10336.4 657.227   2
   1  -6   5 7468.47 573.920   2
   1  -6   6 12970.1 772.354   2
   1  -6   7 31890.4 1269.02   2
   1  -6   8 19286.6 1023.81   2
   1  -6   9 9932.42 759.954   2
   1  -6  10 24213.0 1230.54   2
   1  -6  11 11455.8 880.499   2
   1  -6  12 887.246 247.847   2
   1  -5 -17 4307.46 572.672   4
   1  -5 -16 8994.66 786.561   4
   1  -5 -15 12898.2 906.281   4
   1  -5 -14 11239.2 815.833   4
   1  -5 -13 13281.1 844.533   4
   1  -5 -12 21407.0 1024.97   4
   1  -5 -11 9623.18 331.268   1
   1  -5 -11 9345.11 649.335   4
   1  -5 -10 499.905 166.321   4
   1  -5 -10 268.615 49.8020   1
   1  -5  -9 20280.7 890.887   3
   1  -5  -9 22449.7 926.035   2
   1  -5  -9 20410.3 889.367   4
   1  -5  -9 20721.6 367.701   1
   1  -5  -8 14452.9 706.448   3
   1  -5  -8 14901.5 739.861   4
   1  -5  -7 2951.59 308.281   3
   1  -5  -7 3070.94 326.547   4
   1  -5  -6 24365.2 824.562   3
   1  -5  -6 26625.3 927.779   4
   1  -5  -5 17425.8 661.443   3
   1  -5  -5 17042.0 720.625   4
   1  -5  -4 17484.4 626.473   3
   1  -5  -4 17458.7 719.478   4
   1  -5  -3 8382.43 417.125   3
   1  -5  -3 8646.60 507.072   4
   1  -5  -2 32413.4 788.634   3
   1  -5  -2 33832.7 988.297   4
   1  -5  -1 30756.1 934.690   4
   1  -5   0 573.088 136.103   2
   1  -5   0 585.337 153.505   4
   1  -5   1 31952.5 967.434   2
   1  -5   2 78510.2 1550.20   2
   1  -5   3 421.937 119.649   2
   1  -5   4 83.5050 97.2321   2
   1  -5   5 2531.61 311.134   2
   1  -5   6 31162.5 1121.52   2
   1  -5   7 1344.29 253.535   2
   1  -5   8 9890.40 688.094   2
   1  -5   9 24599.8 1131.62   2
   1  -5  10 1994.94 337.409   2
   1  -5  11 2080.99 370.160   2
   1  -5  12 8933.26 767.085   2
   1  -5  13 13707.0 990.766   2
   1  -4 -17 2580.58 441.604   4
   1  -4 -16 8501.48 752.840   4
   1  -4 -15 1999.83 360.449   4
   1  -4 -14 5709.99 566.713   4
   1  -4 -13 17676.2 955.252   4
   1  -4 -12 45458.2 1458.82   4
   1  -4 -11 5974.13 511.971   4
   1  -4 -10 22511.5 936.426   4
   1  -4  -9 23406.0 915.557   2
   1  -4  -9 21890.2 881.802   4
   1  -4  -8 1809.50 243.598   4
   1  -4  -8 2341.69 289.256   3
   1  -4  -8 2047.68 147.701   1
   1  -4  -8 2159.75 268.181   2
   1  -4  -7 90.7762 80.3175   4
   1  -4  -7 161.372 37.9910   1
   1  -4  -7 227.407 98.4388   3
   1  -4  -6 28588.1 879.491   3
   1  -4  -6 28093.2 470.047   1
   1  -4  -6 27683.3 877.044   4
   1  -4  -5 4415.74 325.696   3
   1  -4  -5 4341.06 338.272   4
   1  -4  -4 16531.9 590.221   3
   1  -4  -4 16127.3 627.053   4
   1  -4  -3 30980.3 769.293   3
   1  -4  -3 32110.5 867.044   4
   1  -4  -2 10404.9 430.674   3
   1  -4  -2 9775.55 477.597   4
   1  -4  -1 1225.30 154.173   3
   1  -4  -1 866.701 150.144   4
   1  -4   0 41572.8 995.211   4
   1  -4   1 19195.5 676.799   2
   1  -4   2 88566.6 1490.20   2
   1  -4   3 1419.02 204.462   2
   1  -4   4 2961.52 301.267   2
   1  -4   5 7535.36 489.552   2
   1  -4   6 1912.84 263.641   2
   1  -4   7 3010.43 343.130   2
   1  -4   8 21459.2 952.160   2
   1  -4   9 2234.48 328.738   2
   1  -4  10 101.730 122.466   2
   1  -4  11 9821.78 743.311   2
   1  -4  12 13810.8 914.129   2
   1  -4  13-206.354 153.395   2
   1  -4  14 7411.40 731.623   2
   1  -3 -17 2482.01 428.094   4
   1  -3 -16 272.975 174.436   4
   1  -3 -15 10699.5 802.068   4
   1  -3 -14 13579.0 856.649   4
   1  -3 -13 18828.7 964.948   4
   1  -3 -12 25118.3 1060.46   4
   1  -3 -11 2694.56 333.904   4
   1  -3 -10 55498.2 1424.32   4
   1  -3 -10 58417.5 1480.69   2
   1  -3  -9 11388.1 617.237   2
   1  -3  -9 11267.0 612.845   4
   1  -3  -8 31483.9 978.468   2
   1  -3  -8 29534.6 942.862   4
   1  -3  -7 21161.1 790.529   3
   1  -3  -7 20493.3 753.579   2
   1  -3  -7 20809.3 752.992   4
   1  -3  -6 6100.22 400.962   3
   1  -3  -6 5288.04 365.041   2
   1  -3  -6 6050.14 382.216   4
   1  -3  -5 40233.8 610.570   1
   1  -3  -5 37114.8 924.162   3
   1  -3  -5 40779.4 930.861   4
   1  -3  -4 33582.0 818.487   3
   1  -3  -4 34351.8 825.014   4
   1  -3  -4 34290.7 550.598   1
   1  -3  -3 35265.1 787.926   3
   1  -3  -3 35036.1 795.726   4
   1  -3  -2 14.4821 55.9385   4
   1  -3  -2 25.4034 46.2205   3
   1  -3  -1 8132.23 352.734   3
   1  -3  -1 8309.06 382.085   4
   1  -3   0 39655.6 836.955   4
   1  -3   1 31176.0 740.215   2
   1  -3   2 72099.9 1180.61   2
   1  -3   3 40365.2 931.974   2
   1  -3   4 67.6371 56.1942   2
   1  -3   5 10406.5 529.472   2
   1  -3   6 21270.4 806.422   2
   1  -3   7 40205.5 1160.41   2
   1  -3   8 633.959 159.969   2
   1  -3   9 4433.50 431.228   2
   1  -3  10 21658.3 995.292   2
   1  -3  11 1200.62 248.147   2
   1  -3  12 2856.01 403.372   2
   1  -3  13 27682.2 1297.90   2
   1  -3  14 434.861 219.640   2
   1  -3  15 6003.34 661.681   2
   1  -2 -17 1729.80 350.690   4
   1  -2 -16 8032.66 719.060   4
   1  -2 -15 117.480 125.415   4
   1  -2 -14 6871.03 608.572   4
   1  -2 -13 48995.5 1540.13   4
   1  -2 -12 4369.47 445.681   4
   1  -2 -11 19753.4 884.137   4
   1  -2 -10 10793.0 619.954   4
   1  -2 -10 11361.0 643.029   2
   1  -2  -9 110104. 1867.50   4
   1  -2  -9 113278. 1911.18   2
   1  -2  -8 21165.1 783.831   2
   1  -2  -8 21146.8 773.254   4
   1  -2  -7 885.434 152.293   4
   1  -2  -7 1437.46 198.193   2
   1  -2  -6 120757. 1645.33   2
   1  -2  -6 124174. 1620.84   4
   1  -2  -5 85456.5 1378.78   3
   1  -2  -5 87854.6 1274.69   2
   1  -2  -5 86198.4 1268.16   4
   1  -2  -4 5807.06 333.440   3
   1  -2  -4 5470.11 297.204   4
   1  -2  -3 10697.1 319.033   1
   1  -2  -3 10273.3 412.330   3
   1  -2  -3 10755.9 385.287   4
   1  -2  -2 150312. 1199.66   1
   1  -2  -2 147993. 1476.15   3
   1  -2  -2 152679. 1364.95   4
   1  -2  -1 42067.8 756.048   3
   1  -2  -1 43783.2 724.577   4
   1  -2   0 151008. 1432.57   3
   1  -2   0 150838. 1346.48   4
   1  -2   1 996375. 3469.96   2
   1  -2   2 98701.2 1173.68   2
   1  -2   3 269.979 80.2064   2
   1  -2   4 62529.0 1112.79   2
   1  -2   5 117510. 1632.11   2
   1  -2   6 37326.1 992.324   2
   1  -2   7 7989.03 487.243   2
   1  -2   8 50065.8 1292.24   2
   1  -2   9 20595.0 879.611   2
   1  -2  10 1237.61 231.559   2
   1  -2  11 9139.52 651.717   2
   1  -2  12 3758.68 444.741   2
   1  -2  13 8714.30 713.148   2
   1  -2  14 1855.50 353.079   2
   1  -2  15 9944.10 830.097   2
   1  -2  16 16684.2 1129.05   2
   1  -1 -17 23059.9 1279.53   4
   1  -1 -16 1168.94 270.909   4
   1  -1 -15 1986.53 356.318   4
   1  -1 -14 11221.1 785.068   4
   1  -1 -13 27629.1 1175.90   4
   1  -1 -12 5338.38 493.056   4
   1  -1 -11 16901.1 828.179   4
   1  -1 -10 34190.9 1122.48   2
   1  -1 -10 32094.4 1075.71   4
   1  -1  -9 266.443 89.0312   2
   1  -1  -9 292.777 105.738   4
   1  -1  -8 16086.2 676.879   2
   1  -1  -8 15614.8 665.176   4
   1  -1  -7 89229.8 1476.14   4
   1  -1  -7 92269.1 1494.97   2
   1  -1  -6 21721.9 673.273   2
   1  -1  -6 21456.5 670.551   4
   1  -1  -5 63802.5 1050.81   2
   1  -1  -5 65233.1 1053.15   4
   1  -1  -4 74137.2 1171.83   3
   1  -1  -4 77631.3 1032.62   2
   1  -1  -4 77025.9 1031.02   4
   1  -1  -3 146008. 1500.11   3
   1  -1  -3 145112. 1287.17   2
   1  -1  -3 148377. 1260.08   4
   1  -1  -2 3026.79 203.803   3
   1  -1  -2 3352.40 183.899   1
   1  -1  -2 3243.69 165.117   4
   1  -1  -1 4994.24 244.635   3
   1  -1  -1 5410.55 231.607   1
   1  -1  -1 5308.75 190.794   4
   1  -1   0 141171. 1299.65   3
   1  -1   0 140833. 969.219   4
   1  -1   1 97410.3 819.958   2
   1  -1   2 13785.5 363.501   2
   1  -1   3 52212.1 806.528   2
   1  -1   4 12566.9 447.328   2
   1  -1   5 41350.5 898.919   2
   1  -1   6 42971.9 992.069   2
   1  -1   7 93007.2 1568.97   2
   1  -1   8 42576.9 1141.06   2
   1  -1   9 18636.3 801.937   2
   1  -1  10 38494.1 1229.69   2
   1  -1  11 9687.63 649.959   2
   1  -1  12 27643.7 1158.91   2
   1  -1  13 2624.34 384.317   2
   1  -1  14 8628.02 726.839   2
   1  -1  15 11573.3 879.063   2
   1  -1  16 2806.37 458.482   2
   1   0 -17 1050.44 270.772   4
   1   0 -16 4640.58 559.458   4
   1   0  -9 42785.7 1202.19   2
   1   0  -8 37562.3 1060.85   2
   1   0  -7 5620.82 382.486   2
   1   0  -6 57733.0 1117.90   2
   1   0  -5 53836.0 988.418   2
   1   0  -4 10088.5 380.492   2
   1   0  -4 10161.7 422.737   3
   1   0  -3 2043.93 150.093   2
   1   0  -3 2037.18 177.285   3
   1   0  -2 2539.29 135.667   2
   1   0  -2 2626.08 182.521   3
   1   0  -1 22936.3 293.040   2
   1   0  -1 23199.2 497.170   3
   1   0  -1 22803.3 284.492   4
   1   0   0 71712.5 847.044   1
   1   0   0 70315.5 855.297   3
   1   0   1 917.159 104.481   1
   1   0   2 29629.6 435.080   2
   1   0   3 8750.94 294.927   2
   1   0   4 306.235 70.6366   2
   1   0   5 29549.2 714.964   2
   1   0   6 66484.4 1173.26   2
   1   0   7 17675.6 660.882   2
   1   0   8 50280.1 1193.97   2
   1   0   9 38565.6 1123.77   2
   1   0  10 12331.3 680.675   2
   1   0  11 5214.98 473.552   2
   1   0  12 50555.4 1541.88   2
   1   0  13 158.154 115.397   2
   1   0  14 8435.54 701.609   2
   1   0  15 12829.5 911.391   2
   1   0  16 10257.6 844.897   2
   1   0  17 1101.08 295.681   2
   1   1  -9 16567.4 773.903   2
   1   1  -8 4004.45 361.176   2
   1   1  -7 11494.5 565.175   2
   1   1  -6 167955. 2022.49   2
   1   1  -5 175.075 74.4589   2
   1   1  -4 46119.1 877.004   2
   1   1  -3 86161.3 1097.47   3
   1   1  -3 90081.2 1083.30   2
   1   1  -2 172746. 1374.51   3
   1   1  -2 168925. 1329.68   2
   1   1  -1 3367.75 180.240   3
   1   1  -1 3792.96 165.922   2
   1   1   0 61482.7 736.371   3
   1   1   0 63064.0 512.057   4
   1   1   1 229988. 1533.35   1
   1   1   1 228966. 965.804   4
   1   1   2 1856.67 144.348   1
   1   1   4 1531.87 147.280   2
   1   1   5 89.6344 71.2507   2
   1   1   6 256.000 91.7511   2
   1   1   7 6585.45 399.050   2
   1   1   8 41372.8 1073.77   2
   1   1   9 847.958 175.596   2
   1   1  10-3.93674 84.9522   2
   1   1  11 32738.7 1156.66   2
   1   1  12 7587.12 586.914   2
   1   1  13 3262.59 413.680   2
   1   1  14 17187.9 982.161   2
   1   1  15 14467.5 945.308   2
   1   1  16 5282.10 603.385   2
   1   2  -8 25735.6 957.584   2
   1   2  -7 26271.0 914.919   2
   1   2  -6 3100.68 295.586   2
   1   2  -5 8899.78 468.046   2
   1   2  -4 16332.5 577.596   2
   1   2  -3 8881.46 345.205   3
   1   2  -3 9239.74 400.571   2
   1   2  -2 9386.27 308.815   3
   1   2  -2 9915.79 376.891   2
   1   2  -1 35214.8 530.310   3
   1   2  -1 37373.5 671.398   2
   1   2   0 87656.8 786.961   3
   1   2   0 87067.8 922.021   4
   1   2   1 12104.9 329.210   4
   1   2   2 76186.6 843.074   4
   1   2   2 75486.8 890.730   1
   1   2   3 52899.5 769.131   4
   1   2   3 52181.5 739.239   1
   1   2   4 5321.24 272.898   4
   1   3  -7 23628.6 916.194   2
   1   3  -6 10899.0 601.193   2
   1   3  -5 35612.5 1002.58   2
   1   3  -4 2859.29 269.896   2
   1   3  -3 4805.73 245.670   3
   1   3  -3 4223.52 308.525   2
   1   3  -2 68915.1 798.039   3
   1   3  -2 68803.5 1185.65   2
   1   3  -1 33401.8 465.972   3
   1   3  -1 34182.3 751.757   4
   1   3   0 37467.7 759.795   4
   1   3   1 78695.8 1054.16   4
   1   3   2 87449.5 1122.50   4
   1   3   3 12656.5 372.157   1
   1   3   3 12074.8 425.351   4
   1   3   4 99919.0 1030.80   1
   1   3   4 99717.1 1294.62   4
   1   3   5 48946.6 958.533   4
   1   3   6 2097.28 215.829   4
   1   4  -6 19109.3 840.472   2
   1   4  -5 1054.19 200.712   2
   1   4  -4 22898.5 858.002   2
   1   4  -3 28920.9 586.274   3
   1   4  -3 30653.9 923.614   2
   1   4  -2 5073.82 203.718   3
   1   4  -2 5254.33 363.502   4
   1   4  -1 48955.2 469.978   3
   1   4  -1 51735.3 1073.90   4
   1   4   0 120284. 1598.98   4
   1   4   1 7742.02 394.773   4
   1   4   2 117421. 1511.96   4
   1   4   3 151820. 1730.86   4
   1   4   4 21341.9 486.609   1
   1   4   4 20418.9 646.639   4
   1   4   5 24004.4 502.094   1
   1   4   5 24696.7 744.557   4
   1   4   6 73922.7 1341.72   4
   1   4   7 54214.0 1212.74   4
   1   4   8 24406.8 859.596   4
   1   5  -5 36588.2 1214.65   2
   1   5  -4 620.880 166.554   2
   1   5  -3 10874.7 342.124   3
   1   5  -3 10369.4 587.005   4
   1   5  -2 28692.6 424.873   3
   1   5  -2 29902.1 953.432   4
   1   5  -1 14409.0 647.596   4
   1   5   0 22066.7 776.099   4
   1   5   1 27760.7 845.465   4
   1   5   2 18258.9 676.015   4
   1   5   3 519.010 125.153   4
   1   5   4 3985.08 321.414   4
   1   5   5 26101.5 538.455   1
   1   5   5 26019.3 836.966   4
   1   5   6 52856.5 1225.55   4
   1   5   7 25317.6 873.503   4
   1   5   8 54263.6 1325.85   4
   1   5   9 75001.4 1634.77   4
   1   6  -4 6724.67 303.333   3
   1   6  -3 21029.4 429.143   3
   1   6  -3 21807.0 924.800   4
   1   6  -2 28025.6 1018.63   4
   1   6  -1 21100.3 864.967   4
   1   6   0 9154.37 557.889   4
   1   6   1 62559.9 1412.18   4
   1   6   2 3407.08 327.454   4
   1   6   3 11064.5 589.665   4
   1   6   4 37524.3 1082.18   4
   1   6   5 395.965 116.860   4
   1   6   5 323.174 68.7918   1
   1   6   6 60.1577 55.9043   4
   1   6   6 90.6371 34.2672   1
   1   6   7 50869.7 1321.12   4
   1   6   8 10162.2 606.078   4
   1   7  -5 29898.5 694.212   3
   1   7  -4 4423.31 218.774   3
   1   7   0 14867.0 772.738   4
   1   7   1-218.597 104.953   4
   1   7   2 38610.3 1202.47   4
   1   7   3 9527.56 595.392   4
   1   7   4 2139.09 281.802   4
   1   7   5 4207.28 393.211   4
   1   7   6 33007.9 633.388   1
   1   7   6 35807.3 1159.40   4
   1   8   6 26456.6 615.116   1
   1   8   7 2350.36 152.071   1
   1   9   6 15566.9 509.212   1
   1   9   7 15416.6 416.989   1
   2 -12  -5 189.103 145.964   2
   2 -12  -4 4026.60 580.054   2
   2 -11 -10 4855.25 642.041   4
   2 -11  -9 5136.81 635.902   4
   2 -11  -8 10153.4 901.096   4
   2 -11  -7 3172.16 499.873   4
   2 -11  -6 2454.17 454.176   4
   2 -11  -5 9154.28 826.712   4
   2 -11  -4 10669.7 898.959   4
   2 -11  -4 11797.8 921.705   2
   2 -11  -3 4424.14 572.262   2
   2 -11  -2 858.642 286.210   2
   2 -11  -1 4127.97 549.081   2
   2 -11   0 3387.76 501.170   2
   2 -11   1-96.4363 110.468   2
   2 -11   2 6759.26 722.080   2
   2 -10 -12 6217.30 702.102   4
   2 -10 -11 4176.99 582.091   4
   2 -10 -10 6628.80 713.494   4
   2 -10  -9 7734.63 757.757   4
   2 -10  -8 5278.08 617.576   4
   2 -10  -7 3963.75 532.664   4
   2 -10  -6 10320.1 840.148   4
   2 -10  -5 14540.2 979.880   4
   2 -10  -4 7381.51 705.020   4
   2 -10  -3 11019.7 840.260   2
   2 -10  -2 13506.4 929.370   2
   2 -10  -1 3128.24 457.025   2
   2 -10   0 745.607 241.965   2
   2 -10   1 9432.49 788.370   2
   2 -10   2 1505.11 309.949   2
   2 -10   3 627.717 222.120   2
   2 -10   4 6584.53 690.266   2
   2 -10   5 2708.54 448.209   2
   2  -9 -14 13535.1 1033.25   4
   2  -9 -13 8815.06 817.714   4
   2  -9 -12 692.679 233.671   4
   2  -9 -11 32053.8 1492.22   4
   2  -9 -10 21956.0 1216.37   4
   2  -9  -9 38.7929 157.551   4
   2  -9  -8 9318.03 771.500   4
   2  -9  -7 22162.0 1168.62   4
   2  -9  -6 8843.11 728.578   4
   2  -9  -5 2044.39 357.412   4
   2  -9  -4 28889.5 1295.82   4
   2  -9  -3 22152.4 1132.75   4
   2  -9  -2 4985.31 529.129   2
   2  -9  -1 15346.6 934.171   2
   2  -9   0 15583.7 938.118   2
   2  -9   1 9724.25 752.902   2
   2  -9   2 5711.52 587.334   2
   2  -9   3 16665.2 1009.67   2
   2  -9   4 9505.27 788.510   2
   2  -9   5 3504.50 490.328   2
   2  -9   6 2726.77 432.932   2
   2  -9   7 1801.63 362.515   2
   2  -8 -15 7281.10 757.939   4
   2  -8 -14 407.382 147.387   4
   2  -8 -13 3698.96 509.303   4
   2  -8 -12 20543.8 1163.57   4
   2  -8 -11 5405.13 589.461   4
   2  -8 -10 605.187 222.814   4
   2  -8  -9 7901.49 674.978   4
   2  -8  -8 6112.06 590.162   4
   2  -8  -7 1749.50 314.474   4
   2  -8  -6 13016.2 832.938   4
   2  -8  -5 7808.65 558.079   3
   2  -8  -5 6504.31 583.893   4
   2  -8  -4 27337.9 1025.15   3
   2  -8  -4 26120.2 1147.49   4
   2  -8  -3 11875.9 775.964   4
   2  -8  -2 31286.0 1259.42   4
   2  -8  -1 28386.4 1175.13   2
   2  -8   0 9311.07 676.317   2
   2  -8   1 16238.8 893.349   2
   2  -8   2 20994.8 1038.79   2
   2  -8   3 13014.7 830.870   2
   2  -8   4 12596.0 838.873   2
   2  -8   5 6095.91 603.430   2
   2  -8   6 2819.85 422.740   2
   2  -8   7 1676.87 335.758   2
   2  -8   8 6597.21 678.513   2
   2  -8   9 7870.94 757.821   2
   2  -7 -16 4507.81 603.247   4
   2  -7 -15 4407.82 575.522   4
   2  -7 -14 9641.27 822.360   4
   2  -7 -13 16885.2 1046.35   4
   2  -7 -12 20651.7 1118.14   4
   2  -7 -11 25786.8 1212.95   4
   2  -7 -10 25937.9 1180.36   4
   2  -7  -9 1730.86 300.947   4
   2  -7  -8 13099.5 801.810   4
   2  -7  -7 23688.2 1059.82   4
   2  -7  -6 265.085 136.210   4
   2  -7  -6 150.844 106.283   3
   2  -7  -5 2566.44 341.413   4
   2  -7  -5 2927.80 338.540   3
   2  -7  -4 2633.96 312.469   3
   2  -7  -4 2576.98 345.447   4
   2  -7  -3 4179.87 391.320   3
   2  -7  -3 4012.44 417.830   4
   2  -7  -2 78.3402 78.3257   4
   2  -7  -1 861.607 202.764   2
   2  -7   0 13539.2 751.555   2
   2  -7   1-13.2959 76.5824   2
   2  -7   2 6065.69 516.122   2
   2  -7   3 44625.9 1432.18   2
   2  -7   4 19238.4 963.709   2
   2  -7   5 3844.47 440.201   2
   2  -7   6 2651.48 385.547   2
   2  -7   7 31162.4 1336.30   2
   2  -7   8 3336.57 469.043   2
   2  -7   9 3075.88 455.268   2
   2  -7  10 11940.4 917.171   2
   2  -7  11 3801.43 549.099   2
   2  -6 -16 236.730 107.478   4
   2  -6 -15 7032.78 688.417   4
   2  -6 -14 3226.60 458.532   4
   2  -6 -13 1629.52 331.836   4
   2  -6 -12 5920.39 306.826   1
   2  -6 -12 5145.21 540.956   4
   2  -6 -11 50118.3 1616.60   4
   2  -6 -10 130.420 86.4717   4
   2  -6  -9 7440.62 588.172   4
   2  -6  -8 30774.6 1156.07   4
   2  -6  -7 16041.5 812.664   4
   2  -6  -6 2345.67 314.074   4
   2  -6  -6 2211.22 295.394   3
   2  -6  -5 25425.9 955.023   3
   2  -6  -5 24711.4 980.194   4
   2  -6  -4 12393.0 654.185   3
   2  -6  -4 11967.8 675.245   4
   2  -6  -3 13245.4 664.894   3
   2  -6  -3 12361.5 675.726   4
   2  -6  -2 15433.5 713.556   3
   2  -6  -2 15823.1 761.625   4
   2  -6  -1 11319.6 649.687   4
   2  -6   0 266.173 109.190   2
   2  -6   1 7505.23 519.360   2
   2  -6   2 3843.14 381.391   2
   2  -6   3 31320.7 1101.88   2
   2  -6   4 1701.80 268.528   2
   2  -6   5 255.242 114.608   2
   2  -6   6 3832.52 426.554   2
   2  -6   7 2879.73 389.121   2
   2  -6   8 625.911 192.401   2
   2  -6   9 9722.63 755.136   2
   2  -6  10 3327.67 463.028   2
   2  -6  11-45.2194 149.951   2
   2  -6  12 2585.04 433.500   2
   2  -5 -17 7289.78 737.359   4
   2  -5 -16 5149.91 597.782   4
   2  -5 -15-71.3286 187.005   4
   2  -5 -14 2259.24 372.936   4
   2  -5 -13 6140.54 584.432   4
   2  -5 -13 5674.94 372.771   1
   2  -5 -12 9513.32 466.878   1
   2  -5 -12 8396.80 657.077   4
   2  -5 -11 20094.7 645.338   1
   2  -5 -11 18149.3 928.255   4
   2  -5 -10-4.33315 82.7155   4
   2  -5 -10-1.26110 46.9668   1
   2  -5  -9 36147.4 816.852   1
   2  -5  -9 34795.2 1198.35   4
   2  -5  -8 10300.1 432.741   1
   2  -5  -8 10119.1 628.568   4
   2  -5  -7 17332.7 824.547   3
   2  -5  -7 15698.8 753.677   4
   2  -5  -6 26990.5 994.755   3
   2  -5  -6 26873.8 956.937   4
   2  -5  -5 8395.56 538.917   3
   2  -5  -5 9393.05 551.517   4
   2  -5  -4 17404.3 753.170   3
   2  -5  -4 17569.7 746.336   4
   2  -5  -3 18037.4 753.790   3
   2  -5  -3 18955.5 764.632   4
   2  -5  -2 23301.4 852.923   3
   2  -5  -2 22904.3 829.651   4
   2  -5  -1 829.238 164.025   4
   2  -5   0 177.428 86.9372   2
   2  -5   1 16872.5 697.671   2
   2  -5   2 10303.7 562.040   2
   2  -5   3 18113.6 770.862   2
   2  -5   4 22508.4 888.426   2
   2  -5   5 3405.16 364.388   2
   2  -5   6 6695.81 523.940   2
   2  -5   7 7896.01 593.708   2
   2  -5   8 30548.8 1213.87   2
   2  -5   9 6781.82 595.207   2
   2  -5  10 1369.80 298.931   2
   2  -5  11 9413.62 762.612   2
   2  -5  12 2205.08 387.769   2
   2  -5  13 397.758 187.443   2
   2  -4 -17 7888.67 771.909   4
   2  -4 -16 2606.66 431.517   4
   2  -4 -15 15190.4 984.570   4
   2  -4 -14 2780.50 408.505   4
   2  -4 -13 1729.31 313.370   4
   2  -4 -12 32968.2 1270.20   4
   2  -4 -11 4058.14 432.619   4
   2  -4 -10 13518.2 562.963   1
   2  -4 -10 13137.2 726.907   4
   2  -4  -9 348.393 128.746   4
   2  -4  -9 126.174 74.0058   2
   2  -4  -9 246.387 86.2743   1
   2  -4  -8 45327.4 957.294   1
   2  -4  -8 46281.1 1248.43   2
   2  -4  -8 42990.5 1210.88   4
   2  -4  -7 40116.0 1229.39   3
   2  -4  -7 39308.9 868.382   1
   2  -4  -7 37537.0 1076.58   2
   2  -4  -7 38414.4 1103.16   4
   2  -4  -6 914.572 173.111   4
   2  -4  -6 637.699 149.839   3
   2  -4  -6 842.292 132.347   1
   2  -4  -5 46945.0 1244.63   3
   2  -4  -5 48053.7 1145.10   4
   2  -4  -4 100444. 1756.79   3
   2  -4  -4 102273. 1624.90   4
   2  -4  -3 34537.2 1008.65   3
   2  -4  -3 35722.5 954.599   4
   2  -4  -2 2570.41 274.429   3
   2  -4  -2 2336.01 242.753   4
   2  -4  -1 44235.1 1123.18   3
   2  -4  -1 45042.7 1042.77   4
   2  -4   0 82607.1 1362.89   2
   2  -4   1 75890.2 1320.66   2
   2  -4   2 116578. 1701.49   2
   2  -4   3 56423.3 1229.76   2
   2  -4   4 136.090 99.4664   2
   2  -4   5 890.001 176.903   2
   2  -4   6 23815.8 917.096   2
   2  -4   7 26125.9 1001.81   2
   2  -4   8 4457.04 440.848   2
   2  -4   9 14906.1 832.379   2
   2  -4  10 28078.3 1196.58   2
   2  -4  11 1629.42 307.552   2
   2  -4  12 7379.34 677.692   2
   2  -4  13 4410.01 547.201   2
   2  -4  14 13264.7 972.528   2
   2  -3 -17 1207.70 297.759   4
   2  -3 -16 24360.3 1273.55   4
   2  -3 -15 9364.00 764.194   4
   2  -3 -14 2832.50 403.741   4
   2  -3 -13 5497.63 532.733   4
   2  -3 -12 54670.2 1594.36   4
   2  -3 -11 116.478 72.7950   4
   2  -3 -10 5553.81 466.351   4
   2  -3  -9 32455.5 1065.52   4
   2  -3  -9 33738.6 1069.51   2
   2  -3  -8 3421.93 374.643   3
   2  -3  -8 2884.00 300.737   4
   2  -3  -8 3320.83 318.425   2
   2  -3  -7 1010.13 172.247   4
   2  -3  -7 602.064 145.927   3
   2  -3  -7 830.924 139.943   1
   2  -3  -7 640.571 148.018   2
   2  -3  -6 49576.0 1000.79   1
   2  -3  -6 49746.4 1294.75   3
   2  -3  -6 47857.7 1096.93   2
   2  -3  -6 46906.4 1085.40   4
   2  -3  -5 31860.7 999.852   3
   2  -3  -5 30707.5 776.313   1
   2  -3  -5 31428.1 853.243   4
   2  -3  -4 37591.6 1052.58   3
   2  -3  -4 38323.6 898.530   4
   2  -3  -4 38100.6 861.092   1
   2  -3  -3 31498.1 934.451   3
   2  -3  -3 31593.9 791.137   1
   2  -3  -3 31620.8 786.642   4
   2  -3  -2 116280. 1766.49   3
   2  -3  -2 119839. 1506.71   4
   2  -3  -1 51083.2 1172.14   3
   2  -3  -1 47088.8 939.098   4
   2  -3   0 14930.3 501.195   2
   2  -3   1 86774.8 1229.36   2
   2  -3   2 110392. 1446.49   2
   2  -3   3 17332.7 606.099   2
   2  -3   4 25485.0 782.493   2
   2  -3   5 11858.9 566.206   2
   2  -3   6 12230.5 608.282   2
   2  -3   7 5278.93 422.501   2
   2  -3   8 23060.9 925.399   2
   2  -3   9 17380.5 850.870   2
   2  -3  10 3606.36 408.905   2
   2  -3  11 15065.6 871.037   2
   2  -3  12 4794.74 523.775   2
   2  -3  13 15377.0 974.962   2
   2  -3  14 3293.35 489.857   2
   2  -3  15 4880.72 593.480   2
   2  -2 -17 13623.6 986.213   4
   2  -2 -16 6231.20 648.370   4
   2  -2 -15 1668.62 327.112   4
   2  -2 -14 31485.7 1317.88   4
   2  -2 -13 14436.5 850.185   4
   2  -2 -12 3348.56 389.856   4
   2  -2 -11 41965.5 1313.33   4
   2  -2 -10 27827.9 1013.18   2
   2  -2 -10 25761.4 974.205   4
   2  -2  -9 2498.83 291.714   4
   2  -2  -9 2414.45 282.533   2
   2  -2  -8 9307.07 599.853   3
   2  -2  -8 9667.11 531.159   4
   2  -2  -8 10101.8 544.315   2
   2  -2  -7 30162.6 1033.78   3
   2  -2  -7 30672.0 887.837   4
   2  -2  -7 29083.7 876.031   2
   2  -2  -6 6705.69 470.369   3
   2  -2  -6 6382.34 383.747   4
   2  -2  -6 6825.58 391.513   2
   2  -2  -5 19420.3 760.376   3
   2  -2  -5 17845.2 589.880   2
   2  -2  -5 18143.4 617.234   1
   2  -2  -5 17621.2 585.584   4
   2  -2  -4 35681.0 847.129   1
   2  -2  -4 35791.7 999.374   3
   2  -2  -4 34996.7 758.058   2
   2  -2  -4 36481.9 788.928   4
   2  -2  -3 19111.8 704.556   3
   2  -2  -3 18935.4 614.042   1
   2  -2  -3 18877.6 534.062   4
   2  -2  -2 9335.57 484.118   3
   2  -2  -2 8544.56 342.857   4
   2  -2  -2 9137.22 426.945   1
   2  -2  -1 17005.5 647.710   3
   2  -2  -1 16036.7 458.204   4
   2  -2   0 52.1707 39.2309   2
   2  -2   0 208.793 84.4118   3
   2  -2   1 74209.4 934.226   2
   2  -2   2 4471.81 248.144   2
   2  -2   3 23703.8 621.536   2
   2  -2   4 24953.1 694.067   2
   2  -2   5 3767.02 293.656   2
   2  -2   6 8164.26 459.053   2
   2  -2   7 30536.3 947.319   2
   2  -2   8 11386.2 615.039   2
   2  -2   9 17314.7 804.732   2
   2  -2  10 25577.1 1038.85   2
   2  -2  11 14626.8 829.895   2
   2  -2  12 2054.52 333.746   2
   2  -2  13 34420.5 1403.88   2
   2  -2  14 2232.08 398.405   2
   2  -2  15 6211.52 668.896   2
   2  -2  16 8213.21 795.621   2
   2  -1 -17 335.275 154.230   4
   2  -1 -16 8261.76 745.459   4
   2  -1 -15 19116.0 1076.20   4
   2  -1 -14 366.746 184.672   4
   2  -1 -13 12180.9 782.469   4
   2  -1 -12 33420.9 1231.58   4
   2  -1 -11 23982.2 990.144   4
   2  -1 -10 8406.25 552.636   4
   2  -1  -9 7717.25 508.360   2
   2  -1  -9 7257.71 483.490   4
   2  -1  -8 44686.1 1142.05   2
   2  -1  -8 45900.4 1320.04   3
   2  -1  -8 42939.1 1099.59   4
   2  -1  -7 489.593 121.218   2
   2  -1  -7 729.169 138.190   4
   2  -1  -7 573.245 156.515   3
   2  -1  -6 393.597 93.8138   2
   2  -1  -6 267.403 83.2033   4
   2  -1  -6 281.132 111.417   3
   2  -1  -5 123853. 1890.58   3
   2  -1  -5 123664. 1474.09   4
   2  -1  -5 123479. 1471.27   2
   2  -1  -4 533.390 89.5270   2
   2  -1  -4 579.717 96.1497   4
   2  -1  -4 489.778 122.064   3
   2  -1  -3 1752.81 209.889   3
   2  -1  -3 1463.71 133.161   4
   2  -1  -3 1358.99 174.497   1
   2  -1  -3 1281.34 121.267   2
   2  -1  -2 4798.29 315.233   1
   2  -1  -2 4784.17 338.229   3
   2  -1  -2 5353.13 224.653   4
   2  -1  -2 4774.08 197.544   2
   2  -1  -1 95402.4 1480.10   3
   2  -1  -1 95438.0 865.989   4
   2  -1  -1 95912.8 1393.60   1
   2  -1   0 17735.5 606.391   1
   2  -1   0 17761.7 635.698   3
   2  -1   0 16804.5 282.469   2
   2  -1   1 12189.3 273.294   2
   2  -1   2 119551. 1022.29   2
   2  -1   3 47814.9 754.559   2
   2  -1   4 3135.63 223.065   2
   2  -1   5 9967.54 432.362   2
   2  -1   6 6194.53 373.365   2
   2  -1   7 4610.94 350.674   2
   2  -1   8 4351.76 365.667   2
   2  -1   9 13167.1 675.522   2
   2  -1  10 3035.76 343.669   2
   2  -1  11 1672.49 277.314   2
   2  -1  12 5664.80 532.356   2
   2  -1  13 4938.57 526.844   2
   2  -1  14 2247.88 386.000   2
   2  -1  15 8765.96 768.289   2
   2  -1  16 13589.8 988.389   2
   2   0 -16 2096.46 393.149   4
   2   0 -15-177.652 142.198   4
   2   0 -14 223.312 127.234   4
   2   0 -13 3377.74 427.737   4
   2   0 -12 3507.21 411.963   4
   2   0  -9 16516.7 756.154   2
   2   0  -8 320.796 113.076   2
   2   0  -8 208.873 94.1569   3
   2   0  -7 20012.4 731.780   2
   2   0  -7 20614.1 839.508   3
   2   0  -6 68255.6 1241.05   2
   2   0  -6 68041.6 1450.80   3
   2   0  -5 22368.2 646.405   2
   2   0  -5 22106.9 786.688   3
   2   0  -4 10215.5 388.453   2
   2   0  -4 10313.7 510.689   3
   2   0  -4 10141.2 377.804   4
   2   0  -3 13409.8 387.039   2
   2   0  -3 14015.7 572.725   3
   2   0  -3 14500.3 384.225   4
   2   0  -2 8801.32 254.259   2
   2   0  -2 9398.48 450.478   3
   2   0  -2 8953.15 437.890   1
   2   0  -2 8789.30 246.273   4
   2   0  -1 3770.55 283.717   1
   2   0  -1 3644.93 280.489   3
   2   0   0 7811.91 399.722   1
   2   0   0 8549.91 425.835   3
   2   0   1 48151.8 997.381   1
   2   0   2 4481.69 157.935   2
   2   0   3 20669.1 440.032   2
   2   0   4 53550.1 839.179   2
   2   0   5 12924.4 466.169   2
   2   0   6 20689.3 652.500   2
   2   0   7 3691.84 304.333   2
   2   0   8 47703.1 1171.70   2
   2   0   9 7980.11 514.485   2
   2   0  10 4414.85 410.086   2
   2   0  11 19127.3 902.036   2
   2   0  12 556.783 178.332   2
   2   0  13 871.873 225.286   2
   2   0  14 13324.7 880.815   2
   2   0  15 4394.89 539.728   2
   2   0  16 134.759 128.064   2
   2   0  17 1792.72 374.332   2
   2   1 -16 2278.12 414.537   4
   2   1  -9 93.0609 74.2328   2
   2   1  -8 13038.6 695.256   3
   2   1  -8 12483.1 638.404   2
   2   1  -7 15676.6 724.183   3
   2   1  -7 15724.1 677.954   2
   2   1  -6 25418.2 881.811   3
   2   1  -6 25708.9 798.926   2
   2   1  -5 2926.15 280.950   3
   2   1  -5 2567.54 238.647   2
   2   1  -4 27592.0 815.671   3
   2   1  -4 28506.0 696.865   2
   2   1  -3 3799.49 292.345   3
   2   1  -3 3725.56 228.235   2
   2   1  -2 3089.58 253.102   3
   2   1  -2 2975.99 176.156   2
   2   1  -1 21503.7 649.753   3
   2   1   0 27574.0 730.585   3
   2   1   0 26481.0 749.084   1
   2   1   1 6508.01 372.396   1
   2   1   2 15555.9 573.311   1
   2   1   7 2427.46 241.691   2
   2   1   8 32776.5 949.849   2
   2   1   9 51666.5 1281.18   2
   2   1  10 30836.8 1057.19   2
   2   1  11 748.541 185.592   2
   2   1  12 7710.07 591.779   2
   2   1  13 16498.1 911.101   2
   2   1  14-21.1196 104.394   2
   2   2  -9 26412.3 1034.43   3
   2   2  -8 14108.3 718.877   3
   2   2  -8 14988.6 740.241   2
   2   2  -7 4762.50 396.227   3
   2   2  -7 5619.28 435.204   2
   2   2  -6 96391.7 1696.12   3
   2   2  -6 102222. 1701.12   2
   2   2  -5 89540.6 1516.70   3
   2   2  -5 91144.8 1489.95   2
   2   2  -4 19142.4 665.025   3
   2   2  -4 17945.8 629.058   2
   2   2  -3 33154.0 832.937   3
   2   2  -3 34438.9 776.849   2
   2   2  -2 68573.5 1137.18   3
   2   2  -2 70502.9 1039.59   2
   2   2  -1 18171.0 574.999   3
   2   2  -1 18229.7 427.337   4
   2   2   0 17492.6 555.510   3
   2   2   0 17794.5 373.243   4
   2   2   1 86133.4 759.092   4
   2   2   1 87303.2 1365.60   1
   2   2   2 92.3740 31.5989   4
   2   2   2 147.591 77.7315   1
   2   2   3 13695.1 537.868   1
   2   3  -9 75.1774 101.581   3
   2   3  -8 10277.0 610.561   3
   2   3  -7 42332.5 1159.49   3
   2   3  -7 45865.0 1284.35   2
   2   3  -6 7583.67 468.107   3
   2   3  -6 9048.33 542.109   2
   2   3  -5 31669.0 884.592   3
   2   3  -5 34344.2 995.525   2
   2   3  -4 67853.8 1224.10   3
   2   3  -4 72631.3 1364.54   2
   2   3  -3 9625.80 436.519   3
   2   3  -3 10506.0 492.000   2
   2   3  -2 15274.9 516.882   3
   2   3  -2 15075.0 520.049   4
   2   3  -1 65044.9 1035.54   3
   2   3  -1 65020.7 1004.73   4
   2   3   0 135764. 1366.66   4
   2   3   1 786.024 102.022   4
   2   3   2 30265.4 608.575   4
   2   3   2 30655.4 820.666   1
   2   3   3 64950.4 1178.24   1
   2   3   3 64327.5 928.422   4
   2   3   4 17420.7 608.840   1
   2   3   4 17811.3 522.816   4
   2   3   5 793.221 120.527   4
   2   4  -9 4240.83 410.852   3
   2   4  -8 7567.10 515.812   3
   2   4  -7 7184.65 477.598   3
   2   4  -6 30060.5 906.039   3
   2   4  -6 32523.6 1120.75   2
   2   4  -5 7384.64 419.483   3
   2   4  -5 7253.34 509.939   2
   2   4  -4 22511.7 681.920   3
   2   4  -4 24665.8 880.810   2
   2   4  -3 4224.03 276.442   3
   2   4  -3 3914.42 325.671   4
   2   4  -2 13760.8 465.806   3
   2   4  -2 15747.0 604.588   4
   2   4  -1 38072.6 747.837   3
   2   4  -1 37614.3 900.627   4
   2   4   0 40173.2 891.309   4
   2   4   1 2120.77 199.710   4
   2   4   2 92934.3 1293.13   4
   2   4   3 18075.2 567.829   4
   2   4   3 17117.4 620.296   1
   2   4   4 1749.83 200.048   1
   2   4   4 1523.53 174.624   4
   2   4   5 39390.2 908.978   4
   2   4   5 40549.2 929.253   1
   2   4   6 4971.79 344.454   4
   2   5  -9 2834.39 341.789   3
   2   5  -8 1099.04 201.315   3
   2   5  -7 14620.5 665.886   3
   2   5  -6 12423.5 570.075   3
   2   5  -5 15.6280 46.1259   3
   2   5  -5-11.4684 73.7038   2
   2   5  -4 25042.7 692.612   3
   2   5  -4 26335.3 964.456   4
   2   5  -3 6462.61 322.629   3
   2   5  -3 7186.73 482.085   4
   2   5  -2 11219.3 393.110   3
   2   5  -2 11213.5 574.695   4
   2   5  -1 21487.0 775.279   4
   2   5   0 33339.0 926.826   4
   2   5   1 63402.6 1239.39   4
   2   5   2 1918.45 218.752   4
   2   5   3 40053.8 976.623   1
   2   5   3 39364.4 963.233   4
   2   5   4 47305.0 1036.99   1
   2   5   4 47202.1 1064.33   4
   2   5   5 38.3700 49.9771   4
   2   5   5-11.4474 42.4110   1
   2   5   6 192.982 80.4800   4
   2   5   6 207.229 72.3023   1
   2   5   7 21039.6 781.969   4
   2   5   8 7308.79 483.808   4
   2   6  -7 11665.6 575.421   3
   2   6  -6 9314.05 476.259   3
   2   6  -5 54933.1 1056.71   3
   2   6  -4 997.366 132.651   3
   2   6  -3 3926.95 226.906   3
   2   6  -3 4180.00 400.821   4
   2   6  -2 2567.22 308.663   4
   2   6  -1 29629.6 1002.04   4
   2   6   0 1773.60 244.518   4
   2   6   1 6838.90 458.724   4
   2   6   2 36143.6 1033.11   4
   2   6   3 50810.7 1222.90   4
   2   6   4 2655.43 283.987   4
   2   6   4 2595.40 252.505   1
   2   6   5 10848.1 502.420   1
   2   6   5 10272.2 559.808   4
   2   6   6 29705.3 814.808   1
   2   6   6 31235.4 990.215   4
   2   6   7 96790.1 1791.72   4
   2   6   8 1127.64 203.804   4
   2   7  -4 358.249 70.2468   3
   2   7  -1 3615.23 386.183   4
   2   7   0 7274.19 530.272   4
   2   7   1 40129.3 1214.30   4
   2   7   2 8262.78 548.608   4
   2   7   3 2302.26 294.507   4
   2   7   4 18541.2 810.650   4
   2   7   5 4324.43 388.754   4
   2   7   5 4531.06 342.377   1
   2   7   6 5985.46 375.219   1
   2   7   6 6755.66 498.168   4
   2   7   7 7699.31 414.048   1
   2   8   5 1407.38 205.410   1
   2   8   6 79157.5 1404.25   1
   2   8   7 1225.41 172.403   1
   2   9   5 13747.2 642.608   1
   2   9   6 18925.9 712.500   1
   2   9   7 3887.57 308.060   1
   2   9   8 5842.08 351.119   1
   2  10   5 2142.11 268.717   1
   2  10   6 4460.55 362.722   1
   3 -11  -7 981.477 265.255   4
   3 -11  -6 9532.75 860.948   4
   3 -11  -5 8376.70 787.541   2
   3 -11  -4 607.218 230.504   2
   3 -11  -3 5140.62 615.930   2
   3 -11  -2 8913.94 810.099   2
   3 -11  -1 3378.92 501.671   2
   3 -11   0 2989.52 475.015   2
   3 -11   1 4613.11 593.906   2
   3 -10 -11 12417.3 998.092   4
   3 -10 -10 14179.8 1050.47   4
   3 -10  -9 3424.58 512.257   4
   3 -10  -8 3678.45 533.502   4
   3 -10  -7 10148.2 852.248   4
   3 -10  -6 4842.82 594.816   4
   3 -10  -5 8372.71 769.514   4
   3 -10  -4 4339.76 535.630   2
   3 -10  -3 12058.5 889.981   2
   3 -10  -2 4974.27 577.967   2
   3 -10  -1 7342.64 689.299   2
   3 -10   0 12095.4 894.736   2
   3 -10   1 5734.94 626.816   2
   3 -10   2 4075.32 534.914   2
   3 -10   3 8426.18 770.502   2
   3 -10   4 9989.94 844.787   2
   3  -9 -13 1721.41 359.596   4
   3  -9 -12 3287.14 498.551   4
   3  -9 -11 8800.64 809.724   4
   3  -9 -10 7343.87 726.635   4
   3  -9  -9 14346.7 994.685   4
   3  -9  -8 2157.26 383.743   4
   3  -9  -7 6891.78 670.217   4
   3  -9  -6 23076.5 1206.12   4
   3  -9  -5 4153.20 505.006   4
   3  -9  -4 4555.34 536.713   4
   3  -9  -3 5253.45 547.404   2
   3  -9  -2 6047.56 593.145   2
   3  -9  -1 2631.19 390.382   2
   3  -9   0 58.1879 104.801   2
   3  -9   1 5639.48 577.757   2
   3  -9   2 641.950 230.781   2
   3  -9   3 208.530 128.405   2
   3  -9   4 11532.4 867.298   2
   3  -9   5 12741.7 920.078   2
   3  -9   6 5029.85 597.632   2
   3  -9   7 672.410 209.481   2
   3  -8 -14 7675.69 770.297   4
   3  -8 -13 9276.09 817.507   4
   3  -8 -12 5035.59 589.317   4
   3  -8 -11 1557.68 337.027   4
   3  -8 -10 34641.8 1478.80   4
   3  -8  -9 1948.71 348.055   4
   3  -8  -8 855.473 225.857   4
   3  -8  -7 10559.9 777.801   4
   3  -8  -6 12199.7 822.093   4
   3  -8  -5 1240.23 271.733   4
   3  -8  -4 9061.32 693.327   4
   3  -8  -3 8664.99 680.502   4
   3  -8  -2 8949.56 666.261   2
   3  -8  -1 7065.20 585.434   2
   3  -8   0 8199.68 630.948   2
   3  -8   1 546.362 188.150   2
   3  -8   2 3323.50 417.415   2
   3  -8   3 900.595 231.195   2
   3  -8   4 11060.4 788.333   2
   3  -8   5 2477.15 398.588   2
   3  -8   6-165.719 207.460   2
   3  -8   7 900.717 246.723   2
   3  -8   8 2465.55 422.812   2
   3  -8   9 852.734 283.952   2
   3  -7 -15 4958.07 606.599   4
   3  -7 -14 529.312 185.201   4
   3  -7 -13 357.342 170.673   4
   3  -7 -12 1539.62 326.575   4
   3  -7 -11 2826.91 426.901   4
   3  -7 -10 13511.7 885.110   4
   3  -7  -9 740.615 207.858   4
   3  -7  -8 12242.7 800.966   4
   3  -7  -7 7894.03 631.914   4
   3  -7  -6 7144.36 593.621   4
   3  -7  -5 18669.7 940.495   4
   3  -7  -4 12081.4 751.376   4
   3  -7  -3 13716.3 792.120   4
   3  -7  -2 14168.7 769.846   2
   3  -7  -1 22876.5 975.233   2
   3  -7   0 8751.81 610.708   2
   3  -7   1 591.329 173.224   2
   3  -7   2 6462.46 536.448   2
   3  -7   3 4921.30 478.277   2
   3  -7   4 3296.86 400.552   2
   3  -7   5 3867.32 450.921   2
   3  -7   6 609.430 198.975   2
   3  -7   7 1610.15 311.250   2
   3  -7   8 181.629 127.469   2
   3  -7   9 8925.15 762.443   2
   3  -7  10 6333.57 666.726   2
   3  -6 -16 9820.90 874.250   4
   3  -6 -15 2788.12 449.572   4
   3  -6 -14 16250.5 1056.15   4
   3  -6 -13 10757.9 832.087   4
   3  -6 -12 2056.22 360.538   4
   3  -6 -11 22435.8 1114.03   4
   3  -6 -10 4839.27 501.708   4
   3  -6  -9 13260.0 800.758   4
   3  -6  -8 367.049 144.196   4
   3  -6  -7 3315.68 384.426   4
   3  -6  -6 13071.7 752.954   4
   3  -6  -5 58.4891 73.0369   4
   3  -6  -4 899.451 197.784   4
   3  -6  -3 18677.1 847.277   4
   3  -6  -2 18749.6 856.380   4
   3  -6  -1 823.533 182.674   2
   3  -6   0 6672.78 483.400   2
   3  -6   1 72341.9 1605.24   2
   3  -6   2 2127.89 287.581   2
   3  -6   3 24113.0 970.137   2
   3  -6   4 43164.5 1331.70   2
   3  -6   5 8080.47 601.102   2
   3  -6   6 1038.78 227.645   2
   3  -6   7 4548.10 490.080   2
   3  -6   8 10781.0 768.311   2
   3  -6   9 2724.27 409.911   2
   3  -6  10 1228.81 293.349   2
   3  -6  11 8144.22 738.354   2
   3  -6  12 1906.65 392.491   2
   3  -5 -16 460.380 211.865   4
   3  -5 -15 10172.9 827.429   4
   3  -5 -14 11264.8 843.104   4
   3  -5 -13 5796.40 449.375   1
   3  -5 -13 5111.01 554.419   4
   3  -5 -12 1719.90 320.157   4
   3  -5 -12 1757.32 253.926   1
   3  -5 -11 54171.0 1312.95   1
   3  -5 -11 50925.2 1607.85   4
   3  -5 -10 7424.60 596.531   4
   3  -5 -10 7913.65 498.560   1
   3  -5  -9 7266.19 469.724   1
   3  -5  -9 7179.35 559.679   4
   3  -5  -8 26326.8 895.674   1
   3  -5  -8 28684.5 1083.06   4
   3  -5  -8 25917.5 977.718   2
   3  -5  -7 15251.5 764.136   4
   3  -5  -7 16211.9 752.820   2
   3  -5  -6 1490.21 252.583   4
   3  -5  -5 16718.3 768.989   4
   3  -5  -4 18031.9 781.861   4
   3  -5  -3 17822.3 765.645   4
   3  -5  -2 3509.49 339.511   4
   3  -5  -1 21274.5 776.366   2
   3  -5   0 22259.4 793.146   2
   3  -5   1 2882.28 294.720   2
   3  -5   2 14374.1 665.771   2
   3  -5   3 40841.5 1153.56   2
   3  -5   4 10104.0 596.627   2
   3  -5   5 8388.51 564.313   2
   3  -5   6 6352.83 514.654   2
   3  -5   7 8722.75 624.059   2
   3  -5   8 2299.68 331.595   2
   3  -5   9 5834.37 553.809   2
   3  -5  10 8315.72 695.133   2
   3  -5  11 2395.68 397.091   2
   3  -5  12 5706.57 617.231   2
   3  -5  13 2197.35 404.450   2
   3  -4 -16 10187.6 842.300   4
   3  -4 -15 10031.9 806.900   4
   3  -4 -14 60.5358 125.359   4
   3  -4 -14 274.016 117.629   1
   3  -4 -13 14286.0 887.302   4
   3  -4 -13 13640.8 732.724   1
   3  -4 -12 19421.8 989.777   4
   3  -4 -12 20904.5 887.304   1
   3  -4 -11 2367.77 337.572   4
   3  -4 -11 2239.48 291.915   1
   3  -4 -10 22388.2 874.732   1
   3  -4 -10 20725.4 943.155   4
   3  -4  -9 36030.3 1084.94   1
   3  -4  -9 35998.9 1201.08   4
   3  -4  -9 37123.1 1160.12   2
   3  -4  -8 11049.7 592.616   1
   3  -4  -8 11892.9 664.019   4
   3  -4  -8 11894.9 631.646   2
   3  -4  -7 4702.00 398.473   4
   3  -4  -7 4443.54 374.734   1
   3  -4  -7 4732.73 385.542   2
   3  -4  -6 21924.1 819.288   1
   3  -4  -6 21295.8 816.757   4
   3  -4  -6 20685.4 762.523   2
   3  -4  -5 19506.7 770.965   1
   3  -4  -5 19286.8 751.504   4
   3  -4  -4 12850.8 602.305   4
   3  -4  -3 17415.6 680.875   4
   3  -4  -2 15365.3 795.680   3
   3  -4  -2 13826.8 595.690   4
   3  -4  -1 8585.46 434.830   2
   3  -4   0 12529.4 523.864   2
   3  -4   1 1255.12 172.373   2
   3  -4   2 46570.4 1064.99   2
   3  -4   3 10329.3 522.202   2
   3  -4   4 12978.7 614.422   2
   3  -4   5 24455.2 886.525   2
   3  -4   6 11668.1 639.762   2
   3  -4   7 5288.14 452.916   2
   3  -4   8 13616.5 759.623   2
   3  -4   9 7891.29 607.713   2
   3  -4  10 6171.69 564.915   2
   3  -4  11 7598.14 650.998   2
   3  -4  12 7342.95 673.998   2
   3  -4  13 34.5153 123.098   2
   3  -4  14 9680.73 832.816   2
   3  -3 -16 2023.48 382.797   4
   3  -3 -15 2708.94 433.955   4
   3  -3 -14 20976.9 1112.19   4
   3  -3 -13 1293.94 266.730   4
   3  -3 -12 3104.74 393.438   4
   3  -3 -11 16527.5 805.134   1
   3  -3 -11 17625.0 882.973   4
   3  -3 -10 32900.3 1104.00   1
   3  -3 -10 32488.2 1140.95   4
   3  -3  -9 19500.6 839.402   4
   3  -3  -9 19519.4 831.222   1
   3  -3  -9 20616.4 841.344   2
   3  -3  -8 3101.23 328.726   1
   3  -3  -8 3318.22 331.939   4
   3  -3  -8 3566.65 332.549   2
   3  -3  -7 40016.4 1131.85   1
   3  -3  -7 40236.4 1101.13   4
   3  -3  -7 40939.3 1064.31   2
   3  -3  -6 22863.4 843.538   1
   3  -3  -6 23131.3 793.198   4
   3  -3  -6 21298.2 724.862   2
   3  -3  -5 145.238 84.1803   4
   3  -3  -5 179.713 96.8293   1
   3  -3  -5 75.1881 51.4277   2
   3  -3  -4 72182.0 1482.34   1
   3  -3  -4 71043.8 1693.77   3
   3  -3  -4 70311.0 1263.22   4
   3  -3  -4 67819.6 1146.12   2
   3  -3  -3 15207.5 774.891   3
   3  -3  -3 15577.3 696.558   1
   3  -3  -3 14894.4 564.219   4
   3  -3  -2 2664.49 327.505   3
   3  -3  -2 2072.69 206.668   4
   3  -3  -1 658.594 104.835   2
   3  -3  -1 359.260 144.292   3
   3  -3   0 14156.0 470.138   2
   3  -3   1 9288.09 393.651   2
   3  -3   2 138.285 59.3316   2
   3  -3   3 13989.4 537.407   2
   3  -3   4 23258.6 739.818   2
   3  -3   5 6704.12 424.256   2
   3  -3   6 9199.93 526.814   2
   3  -3   7 10257.2 588.687   2
   3  -3   8 19120.1 843.458   2
   3  -3   9 566.159 150.549   2
   3  -3  10 11567.5 734.908   2
   3  -3  11 13871.2 846.226   2
   3  -3  12 77.1177 106.036   2
   3  -3  13 1629.14 312.044   2
   3  -3  14 2090.02 393.984   2
   3  -3  15 1270.40 320.244   2
   3  -2 -16 6650.51 681.519   4
   3  -2 -15 6602.06 646.011   4
   3  -2 -14 919.073 252.836   4
   3  -2 -13-16.4829 135.362   4
   3  -2 -12 1226.06 252.865   4
   3  -2 -11 4749.78 457.723   4
   3  -2 -10 19.7858 61.0527   4
   3  -2  -9 7709.87 511.203   2
   3  -2  -9 7047.67 497.490   4
   3  -2  -8 16474.8 697.159   2
   3  -2  -8 15688.6 746.212   1
   3  -2  -8 15428.7 688.758   4
   3  -2  -7 38.0154 67.2670   2
   3  -2  -7 65.4638 49.8949   4
   3  -2  -7-101.884 96.8755   1
   3  -2  -6 3867.99 360.715   1
   3  -2  -6 4450.72 324.876   4
   3  -2  -6 4175.00 301.875   2
   3  -2  -5 54778.8 1321.27   1
   3  -2  -5 52332.5 1457.18   3
   3  -2  -5 53477.6 1059.54   4
   3  -2  -5 52614.5 984.126   2
   3  -2  -4 46668.0 1341.31   3
   3  -2  -4 45816.7 1197.11   1
   3  -2  -4 45066.0 904.658   4
   3  -2  -4 43784.7 820.137   2
   3  -2  -3 22696.3 923.145   3
   3  -2  -3 21843.8 597.254   4
   3  -2  -3 21704.4 820.851   1
   3  -2  -3 21627.9 522.460   2
   3  -2  -2 25724.9 894.382   1
   3  -2  -2 25933.4 979.288   3
   3  -2  -2 25810.5 611.031   4
   3  -2  -2 25046.9 514.914   2
   3  -2  -1 29133.2 1033.19   3
   3  -2  -1 26293.5 496.670   2
   3  -2   0 15732.7 370.206   2
   3  -2   1 10226.8 318.114   2
   3  -2   2 28103.6 584.000   2
   3  -2   3 4064.54 248.513   2
   3  -2   4 456.639 95.3698   2
   3  -2   5 9679.33 459.022   2
   3  -2   6 2636.25 260.812   2
   3  -2   7 2497.52 277.229   2
   3  -2   8 94.8264 83.7969   2
   3  -2   9 12683.5 695.656   2
   3  -2  10 8439.15 599.453   2
   3  -2  11 1031.26 228.695   2
   3  -2  12 10533.8 744.756   2
   3  -2  13 5705.16 587.074   2
   3  -2  14 357.050 160.477   2
   3  -2  15 6276.42 672.592   2
   3  -1 -16 9055.30 788.162   4
   3  -1 -15 930.994 245.797   4
   3  -1 -14 6166.80 594.414   4
   3  -1 -13 9175.39 694.769   4
   3  -1 -12 7743.32 605.537   4
   3  -1 -11 121.210 94.3773   4
   3  -1 -10 20577.9 879.944   4
   3  -1  -9 22684.2 879.877   2
   3  -1  -9 23432.8 880.017   4
   3  -1  -8 443.318 119.757   4
   3  -1  -8 409.759 130.278   2
   3  -1  -7 336.815 97.0919   4
   3  -1  -7 277.021 88.8432   2
   3  -1  -6 7817.84 410.177   2
   3  -1  -6 7698.19 516.239   1
   3  -1  -6 8134.85 424.313   4
   3  -1  -5 24779.6 660.459   2
   3  -1  -5 25414.2 995.673   3
   3  -1  -5 25423.1 678.183   4
   3  -1  -5 25988.7 929.455   1
   3  -1  -4 1434.16 142.896   2
   3  -1  -4 1478.12 220.605   1
   3  -1  -4 1553.94 239.485   3
   3  -1  -4 1731.03 164.938   4
   3  -1  -3 17064.7 412.100   2
   3  -1  -3 15690.6 704.591   1
   3  -1  -3 16657.0 772.264   3
   3  -1  -3 16606.7 447.171   4
   3  -1  -2 15043.2 300.137   2
   3  -1  -2 16133.3 753.864   3
   3  -1  -2 14526.7 675.002   1
   3  -1  -2 14614.4 368.540   4
   3  -1  -1 40.8154 60.5019   1
   3  -1  -1 11.6472 76.3904   3
   3  -1   0 7793.40 504.273   1
   3  -1   2 9813.05 245.807   2
   3  -1   3 1883.69 139.163   2
   3  -1   4 40146.1 750.838   2
   3  -1   5 9118.72 404.768   2
   3  -1   6 9045.42 445.408   2
   3  -1   7 36539.5 974.398   2
   3  -1   8 5680.49 419.933   2
   3  -1   9 14227.5 708.085   2
   3  -1  10 19903.2 890.830   2
   3  -1  11 31574.0 1186.07   2
   3  -1  12 1097.31 240.741   2
   3  -1  13 508.658 202.578   2
   3  -1  14 10374.5 795.801   2
   3  -1  15 550.985 218.154   2
   3  -1  16 1835.96 350.002   2
   3   0 -16 4653.53 566.492   4
   3   0 -15 14466.8 965.404   4
   3   0 -14 23940.3 1178.52   4
   3   0 -13 3937.38 453.387   4
   3   0 -12 5468.49 511.334   4
   3   0 -11 20196.6 925.175   4
   3   0 -10 33753.6 1129.78   4
   3   0  -9 328.842 120.148   4
   3   0  -9 457.120 132.100   2
   3   0  -8 8374.63 513.424   2
   3   0  -8 8307.02 494.280   4
   3   0  -7 12919.1 589.756   2
   3   0  -7 11919.6 549.683   4
   3   0  -6 57.8453 45.5651   4
   3   0  -6 37.8981 78.4266   3
   3   0  -5 22643.3 648.125   2
   3   0  -5 22687.9 928.230   3
   3   0  -5 22153.9 620.805   4
   3   0  -4 51039.6 859.316   2
   3   0  -4 51068.1 1350.62   3
   3   0  -4 51460.1 1316.88   1
   3   0  -4 52938.3 850.942   4
   3   0  -3 13403.7 373.304   2
   3   0  -3 13145.3 672.374   3
   3   0  -3 13078.8 354.576   4
   3   0  -3 13658.9 670.860   1
   3   0  -2 7416.79 489.655   1
   3   0  -2 7733.13 512.806   3
   3   0  -2 7489.33 200.517   2
   3   0  -2 7504.52 196.923   4
   3   0  -1 38733.3 1105.64   1
   3   0  -1 39174.9 1139.31   3
   3   0   0 30891.2 988.253   1
   3   0   1 12383.6 633.408   1
   3   0   5 20293.3 563.428   2
   3   0   6 7918.60 396.227   2
   3   0   7 127.503 72.1226   2
   3   0   8 947.797 171.074   2
   3   0   9 10861.7 596.350   2
   3   0  10 12821.1 695.015   2
   3   0  11 8554.08 600.098   2
   3   0  12 9406.81 668.350   2
   3   0  13 11552.0 778.504   2
   3   0  14 7120.91 646.088   2
   3   0  15 14164.2 952.091   2
   3   1 -16 15745.2 1058.76   4
   3   1 -15 352.901 146.519   4
   3   1 -14 849.842 244.533   4
   3   1 -13 19203.1 1030.26   4
   3   1 -12 5721.50 535.272   4
   3   1 -11 7467.43 580.900   4
   3   1  -8 4292.02 383.331   2
   3   1  -7 8220.67 493.290   2
   3   1  -6 58983.2 1512.21   3
   3   1  -6 59893.6 1231.27   2
   3   1  -5 20810.9 872.701   3
   3   1  -5 20701.0 659.080   2
   3   1  -4 14076.1 693.779   3
   3   1  -4 13831.6 484.820   2
   3   1  -4 13850.5 449.624   4
   3   1  -3 51586.7 1299.71   3
   3   1  -3 50967.9 819.498   2
   3   1  -3 50941.2 1314.67   1
   3   1  -3 50618.3 715.949   4
   3   1  -2 18170.9 764.779   3
   3   1  -2 16919.6 750.223   1
   3   1  -2 17747.7 316.018   4
   3   1  -1 3904.47 359.447   1
   3   1  -1 4267.58 369.646   3
   3   1   0 17500.6 751.699   1
   3   1   1 130361. 2025.88   1
   3   1   2 10265.5 577.847   1
   3   1   3 13597.5 668.301   1
   3   2 -15 2728.12 434.970   4
   3   2  -8 4281.38 396.515   2
   3   2  -7 11056.9 601.869   2
   3   2  -6 8747.60 575.964   3
   3   2  -6 8572.09 494.495   2
   3   2  -5 24655.4 930.625   3
   3   2  -5 25423.4 791.669   2
   3   2  -4 7338.86 489.186   3
   3   2  -4 6986.73 385.917   2
   3   2  -3 27433.5 923.986   3
   3   2  -3 27552.7 698.800   2
   3   2  -2 4823.11 385.435   3
   3   2  -2 4626.52 223.838   4
   3   2  -1 5316.04 404.969   3
   3   2  -1 4934.30 175.723   4
   3   2  -1 5163.10 420.171   1
   3   2   0 22786.2 868.458   1
   3   2   1 52357.0 1303.41   1
   3   2   2 522.827 142.039   1
   3   2   3 60999.4 1395.95   1
   3   2   4 48021.6 1253.55   1
   3   3  -7 874.741 181.949   2
   3   3  -7 812.864 179.136   3
   3   3  -6 16386.4 770.898   3
   3   3  -6 17013.7 753.998   2
   3   3  -5 36828.4 1113.41   3
   3   3  -5 38854.2 1074.44   2
   3   3  -4 1386.85 193.998   2
   3   3  -4 1589.27 234.483   3
   3   3  -3 20408.2 773.258   3
   3   3  -3 21518.7 645.959   4
   3   3  -2 5187.46 390.373   3
   3   3  -2 5344.98 294.082   4
   3   3  -1 4838.55 368.998   3
   3   3  -1 4811.32 251.411   4
   3   3   0 6901.09 267.719   4
   3   3   0 7216.48 502.847   1
   3   3   1 3931.62 188.403   4
   3   3   1 3956.38 371.077   1
   3   3   2 45975.6 1226.82   1
   3   3   2 44867.1 632.856   4
   3   3   3 2204.86 272.693   1
   3   3   4 9412.37 554.667   1
   3   3   5 46376.2 1232.27   1
   3   4  -7 19784.8 865.472   3
   3   4  -6 44803.3 1253.97   3
   3   4  -6 44827.2 1343.92   2
   3   4  -5 11472.0 609.754   3
   3   4  -5 11899.2 648.087   2
   3   4  -4 41687.7 1112.06   3
   3   4  -4 41906.5 1084.41   4
   3   4  -3 26463.0 858.580   3
   3   4  -3 27021.8 814.537   4
   3   4  -2 3314.36 303.865   3
   3   4  -2 3509.07 278.465   4
   3   4  -1 4792.59 303.588   4
   3   4   0 21098.2 596.426   4
   3   4   1 25848.6 631.911   4
   3   4   1 26542.1 964.731   1
   3   4   2 5711.88 291.791   4
   3   4   2 5918.44 452.095   1
   3   4   3 1932.82 259.082   1
   3   4   3 1986.02 174.955   4
   3   4   4 38047.6 1121.31   1
   3   4   4 37300.7 788.868   4
   3   4   5 2924.91 312.534   1
   3   5  -7 7613.05 529.952   3
   3   5  -6 1029.39 199.691   3
   3   5  -5 2357.49 274.126   3
   3   5  -5 2276.17 285.653   4
   3   5  -4 48220.0 1157.24   3
   3   5  -4 47618.9 1264.55   4
   3   5  -3 139.508 99.4984   3
   3   5  -3 147.538 78.5694   4
   3   5  -2 3978.84 316.996   3
   3   5  -2 4029.89 342.260   4
   3   5  -1 22177.5 752.340   4
   3   5   0 7472.22 418.992   4
   3   5   1 1054.73 155.068   4
   3   5   2 27973.5 763.001   4
   3   5   2 27384.0 991.706   1
   3   5   3 18390.1 802.931   1
   3   5   3 17391.4 603.807   4
   3   5   4 358.444 90.2948   4
   3   5   4 378.763 117.793   1
   3   5   5 5524.13 433.067   1
   3   5   5 5755.47 366.031   4
   3   5   6 4728.14 404.821   1
   3   5   6 4997.20 357.177   4
   3   6  -5 27716.6 874.564   3
   3   6  -4 5842.06 386.570   3
   3   6  -4 6167.55 501.216   4
   3   6  -3 69236.8 1261.87   3
   3   6  -3 69893.4 1608.76   4
   3   6  -2 31318.9 1046.02   4
   3   6  -1 6646.87 462.897   4
   3   6   0 24957.9 860.666   4
   3   6   1 38040.3 1035.55   4
   3   6   2 15879.9 781.943   1
   3   6   2 16754.7 678.923   4
   3   6   3 7113.21 436.676   4
   3   6   3 7077.17 514.135   1
   3   6   4 17588.5 792.266   1
   3   6   4 19525.8 730.294   4
   3   6   5 3184.78 336.258   1
   3   6   5 3674.14 323.642   4
   3   6   6 3968.06 372.315   1
   3   6   6 4054.55 352.171   4
   3   6   7 44420.5 1230.33   1
   3   6   7 43276.4 1166.62   4
   3   6   8 53.3644 81.3402   4
   3   7  -1 923.412 190.292   4
   3   7   0 24689.2 948.299   4
   3   7   1 42190.4 1210.85   4
   3   7   2 4560.38 399.891   4
   3   7   3 67877.9 1633.81   1
   3   7   3 63780.6 1447.49   4
   3   7   4 29519.5 982.778   4
   3   7   4 28617.8 1043.22   1
   3   7   5 4635.32 413.947   1
   3   7   5 4152.42 380.273   4
   3   7   6 18486.6 809.704   1
   3   7   6 17397.9 773.626   4
   3   7   7 38741.2 1154.12   1
   3   7   7 40024.1 1204.07   4
   3   8   3 2227.91 314.962   1
   3   8   4 1306.77 233.526   1
   3   8   5 12088.7 683.293   1
   3   8   6 6594.64 492.615   1
   3   8   7 2848.04 322.109   1
   3   9   4 8027.25 590.827   1
   3   9   5 888.931 191.887   1
   3   9   6 11241.3 658.699   1
   3   9   7 30866.1 1062.09   1
   3   9   8 1299.41 217.650   1
   3  10   4 265.822 119.540   1
   3  10   5 2314.00 321.267   1
   3  10   6 16157.8 809.829   1
   3  11   4 9692.92 693.271   1
   4 -10  -9 16371.0 1121.67   4
   4 -10  -8 5431.57 639.077   4
   4 -10  -7 1009.04 316.071   4
   4 -10  -6 2229.96 424.574   4
   4  -9 -11 3159.95 498.510   4
   4  -9 -10 1849.33 370.627   4
   4  -9  -9 14132.5 995.748   4
   4  -9  -8 158.645 174.883   4
   4  -9  -7 5755.19 619.532   4
   4  -9  -6 6270.47 642.741   4
   4  -9  -5 2546.83 397.509   2
   4  -9  -5 2912.73 445.686   4
   4  -9  -4 7015.74 636.106   2
   4  -9  -3 7199.35 642.689   2
   4  -9  -2 7746.39 650.033   2
   4  -9  -1 6082.70 587.600   2
   4  -9   0 8490.51 691.751   2
   4  -9   1 8033.01 681.160   2
   4  -9   2 1119.94 278.011   2
   4  -8 -13 3478.58 517.372   4
   4  -8 -12 3992.08 543.770   4
   4  -8 -11 1026.06 294.641   4
   4  -8 -10 10597.7 849.626   4
   4  -8  -9 3086.23 460.375   4
   4  -8  -8 12250.1 866.981   4
   4  -8  -7 2730.40 417.711   4
   4  -8  -6 1430.94 297.357   4
   4  -8  -5 8592.87 693.019   4
   4  -8  -4 1401.11 267.940   2
   4  -8  -3-61.8294 136.312   2
   4  -8  -2 2840.35 372.272   2
   4  -8  -1 7458.54 595.345   2
   4  -8   0 484.135 167.033   2
   4  -8   1 216.404 141.606   2
   4  -8   2 26557.8 1152.85   2
   4  -8   3 465.486 180.628   2
   4  -8   4 5631.53 561.262   2
   4  -8   5 19157.7 1052.11   2
   4  -7 -14 5310.66 636.479   4
   4  -7 -13 10246.1 841.243   4
   4  -7 -12 7497.03 708.472   4
   4  -7 -11 195.022 176.237   4
   4  -7 -10 17219.4 1018.05   4
   4  -7  -9 7644.89 669.536   4
   4  -7  -8 3693.04 449.962   4
   4  -7  -7 8010.43 644.748   4
   4  -7  -6 10650.7 730.570   4
   4  -7  -5 1688.66 293.769   4
   4  -7  -4 5475.80 513.028   4
   4  -7  -3 8790.84 602.492   2
   4  -7  -2 13187.5 724.435   2
   4  -7  -1 2245.82 302.359   2
   4  -7   0 3446.08 369.016   2
   4  -7   1 8616.01 599.338   2
   4  -7   2 1414.12 260.982   2
   4  -7   3 495.451 183.545   2
   4  -7   4 12449.8 766.203   2
   4  -7   5 4244.82 466.066   2
   4  -7   6 3081.89 409.822   2
   4  -7   7 2338.97 370.297   2
   4  -6 -14 12258.5 926.144   4
   4  -6 -13 599.434 199.914   4
   4  -6 -12 3112.08 441.847   4
   4  -6 -11 15212.2 928.790   4
   4  -6 -10 2894.58 398.968   4
   4  -6  -9 7674.72 621.684   4
   4  -6  -8 26192.1 1130.97   4
   4  -6  -7 20272.6 968.583   4
   4  -6  -6 6024.54 513.671   4
   4  -6  -5 10301.3 656.676   4
   4  -6  -4 22206.1 950.594   4
   4  -6  -3 18483.2 791.844   2
   4  -6  -2 14395.2 689.103   2
   4  -6  -1 8696.01 532.076   2
   4  -6   0 5718.32 434.331   2
   4  -6   1 7274.14 499.017   2
   4  -6   2 113.347 98.5361   2
   4  -6   3 14288.4 732.357   2
   4  -6   4 4966.95 447.368   2
   4  -6   5 2463.77 327.210   2
   4  -6   6 5864.60 520.109   2
   4  -6   7 7121.15 592.871   2
   4  -6   8 3093.04 417.411   2
   4  -5 -15 6277.95 677.811   4
   4  -5 -14 1701.57 345.172   4
   4  -5 -13 16641.2 1007.17   4
   4  -5 -12 7402.21 656.096   4
   4  -5 -11 1740.64 308.661   4
   4  -5 -11 1420.27 255.773   1
   4  -5 -10 2727.00 370.863   4
   4  -5 -10 2705.43 349.581   1
   4  -5  -9 13742.0 777.838   1
   4  -5  -9 12678.7 758.871   4
   4  -5  -8 13881.8 771.810   4
   4  -5  -7 347.393 135.142   4
   4  -5  -6 5996.98 481.498   4
   4  -5  -6 6710.12 464.062   2
   4  -5  -5 17537.4 792.026   4
   4  -5  -5 15416.0 681.888   2
   4  -5  -4 340.883 124.457   4
   4  -5  -3 27383.8 957.069   4
   4  -5  -3 26879.9 854.639   2
   4  -5  -2 21602.7 751.699   2
   4  -5  -1 13173.7 579.925   2
   4  -5   0 1914.23 224.855   2
   4  -5   1 8425.03 476.129   2
   4  -5   2 17047.8 694.033   2
   4  -5   3 4044.52 357.116   2
   4  -5   4 3382.69 338.731   2
   4  -5   5 9377.38 583.564   2
   4  -5   6 4694.13 430.125   2
   4  -5   7 2784.47 351.386   2
   4  -5   8 1776.35 297.917   2
   4  -5   9 8880.30 670.009   2
   4  -5  10 1292.06 287.264   2
   4  -4 -15 3219.97 466.775   4
   4  -4 -14 8472.10 726.439   4
   4  -4 -13 7240.87 610.243   1
   4  -4 -13 7022.07 643.484   4
   4  -4 -12 3303.58 427.895   4
   4  -4 -12 2510.57 353.251   1
   4  -4 -11 3071.72 391.995   4
   4  -4 -11 2332.76 336.018   1
   4  -4 -10 11568.6 732.617   1
   4  -4 -10 11785.9 729.071   4
   4  -4  -9 3651.63 391.901   4
   4  -4  -9 4528.00 455.254   1
   4  -4  -8 5247.46 449.154   4
   4  -4  -8 5243.62 481.385   1
   4  -4  -7 12462.5 739.060   1
   4  -4  -7 12500.1 657.719   4
   4  -4  -7 12205.3 597.515   2
   4  -4  -6 1228.03 206.018   4
   4  -4  -6 1201.75 239.063   1
   4  -4  -6 666.307 144.351   2
   4  -4  -5 26.9463 76.8520   4
   4  -4  -5 75.4835 66.6830   2
   4  -4  -4 13180.6 605.923   4
   4  -4  -4 13339.8 535.866   2
   4  -4  -3 21713.3 763.513   4
   4  -4  -3 20672.6 643.978   2
   4  -4  -2 8018.69 394.853   2
   4  -4  -1 7871.01 382.614   2
   4  -4   0 13085.5 496.942   2
   4  -4   1 11781.6 478.576   2
   4  -4   2 8958.31 440.481   2
   4  -4   3 16457.5 626.365   2
   4  -4   4 10002.2 514.020   2
   4  -4   5 1094.31 185.243   2
   4  -4   6 4889.57 406.874   2
   4  -4   7 3141.21 342.895   2
   4  -4   8 2339.55 315.707   2
   4  -4   9 77.7629 80.6442   2
   4  -4  10 2562.09 372.903   2
   4  -4  11 6615.48 611.456   2
   4  -3 -15 8448.68 734.017   4
   4  -3 -14 1306.40 288.963   4
   4  -3 -14 1084.02 277.687   1
   4  -3 -13 1109.07 268.157   1
   4  -3 -13 1067.53 265.476   4
   4  -3 -12 2912.20 379.884   4
   4  -3 -12 3555.84 446.940   1
   4  -3 -11 9422.00 693.629   1
   4  -3 -11 10204.6 678.425   4
   4  -3 -10 243.165 113.382   4
   4  -3 -10 38.2679 87.6663   1
   4  -3  -9 6137.99 538.586   1
   4  -3  -9 5978.21 478.526   4
   4  -3  -8 24192.6 853.712   2
   4  -3  -8 24313.4 1056.84   1
   4  -3  -8 24451.3 911.484   4
   4  -3  -7 1576.54 226.396   4
   4  -3  -7 1324.50 195.419   2
   4  -3  -7 1446.45 266.727   1
   4  -3  -6 58.2825 61.6303   4
   4  -3  -6 95.8082 73.7995   2
   4  -3  -6 147.160 116.761   1
   4  -3  -5 1965.17 226.622   4
   4  -3  -5 2756.25 352.560   1
   4  -3  -5 1965.80 197.191   2
   4  -3  -4 21215.8 962.868   1
   4  -3  -4 21255.7 690.092   4
   4  -3  -4 22006.3 592.509   2
   4  -3  -3 2257.51 216.905   4
   4  -3  -3 2533.50 184.949   2
   4  -3  -2 5588.87 258.237   2
   4  -3  -2 4959.94 244.685   2
   4  -3  -1 12517.5 362.671   2
   4  -3   0 1730.81 135.345   2
   4  -3   1 2419.37 169.644   2
   4  -3   2 17138.0 490.577   2
   4  -3   3 16131.2 523.182   2
   4  -3   4 846.768 135.627   2
   4  -3   5 15593.1 606.935   2
   4  -3   6 10833.4 546.203   2
   4  -3   7 2689.29 296.715   2
   4  -3   8 11077.2 632.130   2
   4  -3   9 2059.88 293.799   2
   4  -3  10 3840.66 419.638   2
   4  -3  11 3954.44 452.968   2
   4  -3  12 12436.0 835.781   2
   4  -2 -15 3277.25 475.155   4
   4  -2 -15 3261.32 477.790   1
   4  -2 -14 4484.44 525.055   4
   4  -2 -14 4083.35 510.169   1
   4  -2 -13 21733.7 1130.84   1
   4  -2 -13 22519.3 1091.15   4
   4  -2 -12 8925.96 716.683   1
   4  -2 -12 10494.5 714.091   4
   4  -2 -11 4957.58 459.658   4
   4  -2 -11 4495.65 505.624   1
   4  -2 -10 10501.5 637.268   4
   4  -2 -10 10976.3 759.438   1
   4  -2  -9 46607.9 1528.33   1
   4  -2  -9 48403.7 1295.07   4
   4  -2  -8 4044.54 448.981   1
   4  -2  -8 4552.36 363.572   2
   4  -2  -8 4197.24 366.089   4
   4  -2  -7 2600.83 259.099   2
   4  -2  -7 2353.60 334.038   1
   4  -2  -7 2641.24 273.552   4
   4  -2  -6 10545.2 465.893   2
   4  -2  -6 11437.9 720.411   1
   4  -2  -6 10887.8 507.310   4
   4  -2  -5 141.850 59.7507   4
   4  -2  -5 165.287 60.3163   2
   4  -2  -5 101.649 118.153   1
   4  -2  -4 1336.29 154.034   4
   4  -2  -4 1287.90 127.269   2
   4  -2  -4 1480.01 263.481   1
   4  -2  -3 11293.2 700.113   1
   4  -2  -3 11847.0 297.366   2
   4  -2  -3 11124.3 392.663   4
   4  -2  -2 3636.75 406.206   1
   4  -2   2 3425.78 132.312   2
   4  -2   3 22930.6 478.899   2
   4  -2   4 13369.4 438.354   2
   4  -2   5 8537.54 401.545   2
   4  -2   6 15203.9 592.233   2
   4  -2   7 18018.4 702.912   2
   4  -2   8 3211.64 327.557   2
   4  -2   9 1837.12 263.887   2
   4  -2  10 4299.22 421.106   2
   4  -2  11 7022.19 574.990   2
   4  -2  12 3643.53 437.654   2
   4  -2  13 1798.89 337.488   2
   4  -1 -15 12664.3 902.541   4
   4  -1 -14 2437.59 380.829   4
   4  -1 -13-388.765 167.848   4
   4  -1 -12 8842.75 650.657   4
   4  -1 -11 6833.56 633.400   1
   4  -1 -11 6904.87 546.232   4
   4  -1 -10 3751.34 458.992   1
   4  -1 -10 3460.76 367.243   4
   4  -1  -9 17929.3 783.300   2
   4  -1  -9 17536.6 961.808   1
   4  -1  -9 16810.8 752.213   4
   4  -1  -8 39277.2 1071.50   2
   4  -1  -8 38181.0 1049.35   4
   4  -1  -8 40645.5 1426.26   1
   4  -1  -7 14851.4 607.465   2
   4  -1  -7 15600.4 623.508   4
   4  -1  -7 15632.7 874.588   1
   4  -1  -6 6770.86 569.426   1
   4  -1  -6 6289.56 356.160   2
   4  -1  -6 6195.54 364.265   4
   4  -1  -5 50259.2 1515.00   1
   4  -1  -5 52356.7 894.122   2
   4  -1  -5 52611.0 938.041   4
   4  -1  -4 45428.2 683.035   2
   4  -1  -4 45302.6 1415.63   1
   4  -1  -4 45730.6 761.693   4
   4  -1  -3 16288.2 338.046   4
   4  -1  -3 16786.8 857.253   1
   4  -1  -2 29013.0 1126.50   1
   4  -1  -1 24629.2 1037.96   1
   4  -1   0 5012.15 476.946   1
   4  -1   6 18751.5 597.919   2
   4  -1   7 7130.27 412.922   2
   4  -1   8 68.1840 64.8138   2
   4  -1   9 8967.15 548.363   2
   4  -1  10 17942.2 830.951   2
   4  -1  11 3896.08 411.899   2
   4  -1  12 5450.47 516.253   2
   4  -1  13 8269.33 666.683   2
   4   0 -14 562.368 227.821   4
   4   0 -13 9675.37 711.806   4
   4   0 -12 7899.00 611.373   4
   4   0 -11 1666.75 272.053   4
   4   0 -10 11143.8 647.578   4
   4   0  -9 11063.1 608.810   4
   4   0  -8 12290.1 619.026   2
   4   0  -8 13834.6 853.834   1
   4   0  -8 13594.6 627.742   4
   4   0  -7 3269.99 296.852   2
   4   0  -7 2850.08 389.454   1
   4   0  -7 3382.54 290.826   4
   4   0  -6 9285.87 447.153   2
   4   0  -6 9310.44 426.701   4
   4   0  -6 9370.75 676.104   1
   4   0  -5 11881.3 442.146   2
   4   0  -5 12143.8 428.762   4
   4   0  -5 11952.9 753.310   1
   4   0  -4 24340.4 1057.96   1
   4   0  -4 25521.2 532.010   2
   4   0  -4 24338.3 488.110   4
   4   0  -3 8997.33 638.702   1
   4   0  -2 33034.7 1204.02   1
   4   0  -1 13487.3 771.211   1
   4   0   0 5913.92 513.998   1
   4   0   1 12416.4 745.655   1
   4   1 -14 11009.1 816.974   4
   4   1 -13 2793.68 395.454   4
   4   1 -12 3564.67 420.174   4
   4   1 -11 2681.99 344.389   4
   4   1 -10 8038.12 559.005   4
   4   1  -9 4613.04 395.486   4
   4   1  -8 332.439 107.878   4
   4   1  -8 458.863 141.268   2
   4   1  -7 12155.8 592.965   2
   4   1  -7 12009.1 546.989   4
   4   1  -6 2268.36 239.670   2
   4   1  -6 1724.07 310.415   1
   4   1  -6 1883.87 195.618   4
   4   1  -5 5340.63 323.564   2
   4   1  -5 4574.39 474.235   1
   4   1  -5 4685.51 270.765   4
   4   1  -4 34244.8 585.842   4
   4   1  -4 33725.3 702.464   2
   4   1  -4 33520.8 1263.22   1
   4   1  -3 5460.71 507.771   1
   4   1  -2 22474.5 1010.65   1
   4   1  -1 11506.6 718.904   1
   4   1   0 10472.9 681.628   1
   4   1   1 11978.0 728.111   1
   4   1   2 1241.99 241.812   1
   4   2 -13 3558.01 459.177   4
   4   2 -12 14496.5 862.321   4
   4   2 -11 3609.49 408.305   4
   4   2 -10 211.187 89.1488   4
   4   2  -9 12576.5 677.777   4
   4   2  -8 11282.0 598.746   4
   4   2  -7 2389.27 288.984   2
   4   2  -7 2496.99 262.561   4
   4   2  -6 1306.26 173.827   4
   4   2  -6 1532.20 209.799   2
   4   2  -5 57141.6 1163.74   2
   4   2  -5 55629.5 994.490   4
   4   2  -4 6961.28 317.719   4
   4   2  -4 6239.74 561.334   1
   4   2  -4 6501.85 290.860   4
   4   2  -3 7462.69 242.871   4
   4   2  -3 7017.36 584.447   1
   4   2  -3 7423.38 230.609   4
   4   2  -2 24256.6 1072.36   1
   4   2  -1 21531.1 994.251   1
   4   2   0 675.460 183.233   1
   4   2   1 5570.22 501.200   1
   4   2   2 47834.9 1462.01   1
   4   2   3 2960.39 371.779   1
   4   3  -6 13165.1 659.195   2
   4   3  -5 1770.83 214.897   4
   4   3  -4 1847.84 194.735   4
   4   3  -3 38175.1 743.052   4
   4   3  -3 35988.1 1348.28   1
   4   3  -2 1555.27 255.030   3
   4   3  -2 1795.02 125.766   4
   4   3  -2 1425.06 274.160   1
   4   3  -1-231.068 127.159   1
   4   3   0 7925.02 606.078   1
   4   3   1 10025.6 678.198   1
   4   3   2 755.125 212.754   1
   4   3   3 13431.3 783.365   1
   4   3   4 26821.3 1104.14   1
   4   4  -4 29233.9 850.494   4
   4   4  -3 1001.36 145.527   4
   4   4  -3 964.303 215.871   3
   4   4  -2 26818.6 663.961   4
   4   4  -2 26068.1 1160.58   1
   4   4  -1 24959.3 561.851   4
   4   4  -1 25504.9 1129.25   1
   4   4   0 2333.85 346.139   1
   4   4   0 2603.70 156.775   4
   4   4   1 5606.18 520.832   1
   4   4   1 5891.35 202.927   4
   4   4   2 22226.3 1020.82   1
   4   4   3 24072.6 1052.17   1
   4   4   4 6325.92 542.174   1
   4   4   5 10850.3 710.093   1
   4   5  -2 23083.7 734.357   4
   4   5  -1 9234.51 701.953   1
   4   5  -1 9465.54 439.317   4
   4   5   0 80.6631 51.7681   4
   4   5   0-5.55841 109.415   1
   4   5   1 6605.37 325.788   4
   4   5   1 5402.11 518.723   1
   4   5   2 46362.1 1494.35   1
   4   5   2 44433.9 815.303   4
   4   5   3 1255.92 142.247   4
   4   5   3 1547.78 286.467   1
   4   5   4 26177.8 1112.76   1
   4   5   5 31690.5 1213.42   1
   4   5   6 5365.52 509.906   1
   4   6   0 9469.95 716.541   1
   4   6   1 4176.25 313.215   4
   4   6   1 4385.58 486.555   1
   4   6   2 2358.99 346.385   1
   4   6   2 2017.75 218.725   4
   4   6   3 34297.6 1302.02   1
   4   6   3 34150.8 863.687   4
   4   6   4 11932.2 760.562   1
   4   6   4 12640.4 535.790   4
   4   6   5 245.516 87.3921   4
   4   6   5 145.306 88.5812   1
   4   6   6 7925.38 614.963   1
   4   7   0 675.812 215.780   1
   4   7   1 9481.09 723.616   1
   4   7   2 2719.95 395.450   1
   4   7   3 1458.25 288.986   1
   4   7   4 564.847 186.701   1
   4   7   5 7006.76 589.754   1
   4   7   6 877.976 223.544   1
   4   7   7 289.922 125.730   1
   4   8   1 5739.78 589.423   1
   4   8   2 5008.54 549.917   1
   4   8   3 14175.6 885.829   1
   4   8   4 8768.82 684.228   1
   4   8   5 242.844 145.851   1
   4   8   6-231.296 132.310   1
   4   8   7 10737.4 727.115   1
   4   9   1 2733.30 423.822   1
   4   9   2 19448.4 1082.56   1
   4   9   3 10325.5 772.854   1
   4   9   4 222.458 163.907   1
   4   9   5 6995.72 618.570   1
   4   9   6 8888.54 683.382   1
   4   9   7 1545.36 301.532   1
   4   9   8 291.058 159.319   1
   4  10   1 11850.3 897.089   1
   4  10   2 3849.08 505.534   1
   4  10   3 6580.48 651.784   1
   4  10   4 14465.3 933.202   1
   4  10   5 8270.74 691.004   1
   4  10   6 1370.42 289.919   1
   4  11   1 98.9238 168.787   1
   4  11   2 2335.55 406.790   1
   4  11   3 20604.0 1157.01   1
   5  -4 -11 4998.91 560.769   1
   5  -4 -10 1773.01 346.615   1
   5  -4  -9 213.438 159.314   1
   5  -4  -8 19960.5 1095.11   1
   5  -3 -12 1152.03 288.820   1
   5  -3 -11 6910.35 679.208   1
   5  -3 -10 8033.77 713.664   1
   5  -3  -9 2562.86 411.607   1
   5  -3  -8 4526.56 529.864   1
   5  -3  -7 11322.7 821.283   1
   5  -3  -6 9019.99 728.745   1
   5  -3  -5 359.592 181.929   1
   5  -2 -12 2625.09 438.217   1
   5  -2 -11 9166.96 789.229   1
   5  -2 -10 3348.84 472.700   1
   5  -2  -9 8604.10 746.748   1
   5  -2  -8 7723.45 705.793   1
   5  -2  -7 15347.7 972.539   1
   5  -2  -6 4849.19 547.015   1
   5  -2  -5 7461.58 663.246   1
   5  -2  -4 9628.94 756.472   1
   5  -2  -3 20956.5 1116.03   1
   5  -1 -12 5066.61 640.857   1
   5  -1 -11 7596.47 743.026   1
   5  -1 -10 3348.42 480.112   1
   5  -1  -9 5356.92 607.966   1
   5  -1  -8 6763.35 664.273   1
   5  -1  -7-38.1173 126.381   1
   5  -1  -6 3092.26 447.754   1
   5  -1  -5 1510.85 326.105   1
   5  -1  -4 113.610 140.103   1
   5  -1  -3 9964.16 772.145   1
   5  -1  -2 1715.12 330.447   1
   5  -1  -1 12939.1 879.899   1
   5   0 -11 11642.4 936.901   1
   5   0 -10 12643.0 955.708   1
   5   0  -9 3066.12 468.424   1
   5   0  -8 8885.82 781.438   1
   5   0  -7 26684.2 1315.85   1
   5   0  -6 2235.94 382.392   1
   5   0  -5-65.5239 138.970   1
   5   0  -4 47860.5 1699.19   1
   5   0  -3 325.846 181.418   1
   5   0  -2 549.083 205.890   1
   5   0  -1 3583.08 471.221   1
   5   0   0 13291.5 890.732   1
   5   1 -10 3170.51 495.544   1
   5   1  -9 4752.60 592.250   1
   5   1  -8 10679.8 865.476   1
   5   1  -7 719.223 227.460   1
   5   1  -6 2635.95 427.714   1
   5   1  -5 14130.8 948.532   1
   5   1  -4 10149.8 799.439   1
   5   1  -3 2912.57 435.930   1
   5   1  -2 20049.4 1094.41   1
   5   1  -1 10618.6 799.801   1
   5   1   0 497.897 210.439   1
   5   1   1 2094.81 369.170   1
   5   2  -9 3107.75 490.669   1
   5   2  -8 2915.11 474.415   1
   5   2  -7 5128.91 606.422   1
   5   2  -6 14230.5 994.426   1
   5   2  -5 8124.10 741.314   1
   5   2  -4 1337.20 305.726   1
   5   2  -3 24976.2 1256.13   1
   5   2  -2 2038.92 368.058   1
   5   2  -1 6637.63 647.793   1
   5   2   0 13557.6 905.762   1
   5   2   1 1594.93 316.126   1
   5   2   2 423.212 159.674   1
   5   2   3 3034.85 440.475   1
   5   3  -7 9094.59 825.599   1
   5   3  -6 591.994 221.924   1
   5   3  -5 26352.7 1352.83   1
   5   3  -4 19763.0 1157.19   1
   5   3  -3 7206.18 690.176   1
   5   3  -2 14574.1 962.895   1
   5   3  -1 25973.8 1277.80   1
   5   3   0 25332.0 1245.31   1
   5   3   1 1913.09 364.757   1
   5   3   2 467.583 193.812   1
   5   3   3 36327.9 1478.87   1
   5   4  -6 5678.67 660.604   1
   5   4  -5 4239.72 565.282   1
   5   4  -4-265.899 172.661   1
   5   4  -3 1760.12 348.231   1
   5   4  -2 12488.3 910.465   1
   5   4  -1 7016.58 682.199   1
   5   4   0 2979.73 463.762   1
   5   4   1 8678.20 733.942   1
   5   4   2 12793.2 895.702   1
   5   4   3 2645.57 416.044   1
   5   4   4 25476.1 1252.03   1
   5   5  -5 2248.49 424.312   1
   5   5  -4 6372.54 680.086   1
   5   5  -3 11286.6 901.673   1
   5   5  -2 875.803 265.916   1
   5   5  -1 12949.9 939.792   1
   5   5   0 9694.13 800.365   1
   5   5   1-26.4452 131.779   1
   5   5   2 4650.32 555.187   1
   5   5   3 5096.22 573.760   1
   5   5   4 4904.92 553.924   1
   5   5   5 332.559 186.853   1
   5   6  -3 4499.67 582.369   1
   5   6  -2 4861.81 592.568   1
   5   6  -1 2862.75 459.965   1
   5   6   0 774.566 269.817   1
   5   6   1 2894.74 454.656   1
   5   6   2 5942.28 625.545   1
   5   6   3 4054.72 523.877   1
   5   6   4 8838.42 756.498   1
   5   6   5 12329.8 883.986   1
   5   6   6 4190.98 526.066   1
   5   7  -2 489.832 205.485   1
   5   7  -1 3060.38 481.337   1
   5   7   0 9130.53 811.120   1
   5   7   1 2483.16 430.316   1
   5   7   2 397.603 181.781   1
   5   7   3 9310.42 795.875   1
   5   7   4 14968.7 990.741   1
   5   7   5 750.538 243.736   1
   5   7   6 2132.67 392.794   1
   5   8   0 373.193 203.802   1
   5   8   1 3297.17 501.275   1
   5   8   2 7221.80 714.144   1
   5   8   3 3121.35 475.437   1
   5   8   4 1644.99 349.192   1
   5   8   5 4110.49 529.328   1
   5   8   6 11884.6 888.187   1
   5   8   7 1734.97 362.199   1
   5   9   3 467.048 195.982   1
   5   9   4 16213.3 1058.07   1
   5   9   5 5396.80 608.474   1
   5   9   6 47.8421 126.451   1
   5   9   7 11403.3 870.706   1
   6  -1  -4 7381.55 773.939   1
   6  -1  -3 16043.6 1098.01   1
   6   0  -3 124.552 145.516   1
   6   0  -2 13089.8 997.419   1
   6   0  -1 5452.95 655.749   1
   6   1  -2 2930.29 483.738   1
   6   1  -1 2806.49 476.742   1
   6   1   0 6712.88 713.276   1
   6   2   0 7642.75 765.240   1
   6   2   1 2612.81 464.536   1
   0   0   0    0.00    0.00   0

TITL pvl419 in P1
REM P1 (#1 in standard setting)
CELL 0.71073   4.990751  10.123992  14.661348  74.0672  88.1858  87.1812
ZERR    2.00   0.000232   0.000510   0.000646   0.0041   0.0037   0.0039
LATT -1
SFAC C H N O S Zn
UNIT 20.00 20.00 8.00 20.00 2.00 2.00
TREF
HKLF 4
END
;
_shelx_hkl_checksum   92849

