 
data_pvl301_a
 
_audit_creation_method            'SHELXL-2018/3'
_shelx_SHELXL_version_number      '2018/3'
_chemical_name_systematic         ?
_chemical_name_common             ?
_chemical_melting_point           ?
_chemical_formula_moiety          ?
_chemical_formula_sum
 'C28 H16 N16 O4 S2 Zn' 
_chemical_formula_weight          770.06

loop_
 _atom_type_symbol
 _atom_type_description
 _atom_type_scat_dispersion_real
 _atom_type_scat_dispersion_imag
 _atom_type_scat_source
 'C'  'C'   0.0033   0.0016
 'International Tables Vol C Tables 4.2.6.8 and 6.1.1.4'
 'H'  'H'   0.0000   0.0000
 'International Tables Vol C Tables 4.2.6.8 and 6.1.1.4'
 'N'  'N'   0.0061   0.0033
 'International Tables Vol C Tables 4.2.6.8 and 6.1.1.4'
 'O'  'O'   0.0106   0.0060
 'International Tables Vol C Tables 4.2.6.8 and 6.1.1.4'
 'S'  'S'   0.1246   0.1234
 'International Tables Vol C Tables 4.2.6.8 and 6.1.1.4'
 'Zn'  'Zn'   0.2839   1.4301
 'International Tables Vol C Tables 4.2.6.8 and 6.1.1.4'
 
_space_group_crystal_system       monoclinic
_space_group_IT_number            15
_space_group_name_H-M_alt         'I 2/a'
_space_group_name_Hall            '-I 2ya'
 
_shelx_space_group_comment
;
The symmetry employed for this shelxl refinement is uniquely defined
by the following loop, which should always be used as a source of
symmetry information in preference to the above space-group names.
They are only intended as comments.
;
 
loop_
 _space_group_symop_operation_xyz
 'x, y, z'
 '-x+1/2, y, -z'
 'x+1/2, y+1/2, z+1/2'
 '-x+1, y+1/2, -z+1/2'
 '-x, -y, -z'
 'x-1/2, -y, z'
 '-x+1/2, -y+1/2, -z+1/2'
 'x, -y+1/2, z+1/2'
 
_cell_length_a                    19.9484(7)
_cell_length_b                    5.5061(2)
_cell_length_c                    26.5791(9)
_cell_angle_alpha                 90
_cell_angle_beta                  106.209(4)
_cell_angle_gamma                 90
_cell_volume                      2803.35(18)
_cell_formula_units_Z             4
_cell_measurement_temperature     140(2)
_cell_measurement_reflns_used     ?
_cell_measurement_theta_min       ?
_cell_measurement_theta_max       ?
 
_exptl_crystal_description        ?
_exptl_crystal_colour             ?
_exptl_crystal_density_meas       ?
_exptl_crystal_density_method     ?
_exptl_crystal_density_diffrn     1.825          
_exptl_crystal_F_000              1560
_exptl_transmission_factor_min    ?
_exptl_transmission_factor_max    ?
_exptl_crystal_size_max           ?
_exptl_crystal_size_mid           ?
_exptl_crystal_size_min           ?
_exptl_absorpt_coefficient_mu     1.099
_shelx_estimated_absorpt_T_min    ?
_shelx_estimated_absorpt_T_max    ?
_exptl_absorpt_correction_type    ?
_exptl_absorpt_correction_T_min   ?
_exptl_absorpt_correction_T_max   ?
_exptl_absorpt_process_details    ?
_exptl_absorpt_special_details    ?
_diffrn_ambient_temperature       140(2)
_diffrn_radiation_wavelength      0.71073
_diffrn_radiation_type            MoK\a
_diffrn_source                    ?
_diffrn_measurement_device_type   ?
_diffrn_measurement_method        ?
_diffrn_detector_area_resol_mean  ?
_diffrn_reflns_number             6209
_diffrn_reflns_av_unetI/netI      0.0206
_diffrn_reflns_av_R_equivalents   0.0126
_diffrn_reflns_limit_h_min        -25
_diffrn_reflns_limit_h_max        27
_diffrn_reflns_limit_k_min        -7
_diffrn_reflns_limit_k_max        6
_diffrn_reflns_limit_l_min        -35
_diffrn_reflns_limit_l_max        24
_diffrn_reflns_theta_min          2.126
_diffrn_reflns_theta_max          28.936
_diffrn_reflns_theta_full         25.242
_diffrn_measured_fraction_theta_max   0.839
_diffrn_measured_fraction_theta_full  1.000
_diffrn_reflns_Laue_measured_fraction_max    0.839
_diffrn_reflns_Laue_measured_fraction_full   1.000
_diffrn_reflns_point_group_measured_fraction_max   0.839
_diffrn_reflns_point_group_measured_fraction_full  1.000
_reflns_number_total              3117
_reflns_number_gt                 2889
_reflns_threshold_expression      'I > 2\s(I)'
_reflns_Friedel_coverage          0.000
_reflns_Friedel_fraction_max      .
_reflns_Friedel_fraction_full     .
 
_reflns_special_details
;
 Reflections were merged by SHELXL according to the crystal
 class for the calculation of statistics and refinement.
 
 _reflns_Friedel_fraction is defined as the number of unique
 Friedel pairs measured divided by the number that would be
 possible theoretically, ignoring centric projections and
 systematic absences.
;
 
_computing_data_collection        ?
_computing_cell_refinement        ?
_computing_data_reduction         ?
_computing_structure_solution     'SHELXT 2014/5 (Sheldrick, 2014)'
_computing_structure_refinement 'SHELXL-2018/3 (Sheldrick, 2018)'
_computing_molecular_graphics     ?
_computing_publication_material   ?
_refine_special_details           ?
_refine_ls_structure_factor_coef  Fsqd
_refine_ls_matrix_type            full
_refine_ls_weighting_scheme       calc
_refine_ls_weighting_details
'w=1/[\s^2^(Fo^2^)+(0.0258P)^2^+6.2015P] where P=(Fo^2^+2Fc^2^)/3'
_atom_sites_solution_primary      ?
_atom_sites_solution_secondary    ?
_atom_sites_solution_hydrogens    geom
_refine_ls_hydrogen_treatment     constr
_refine_ls_extinction_method      none
_refine_ls_extinction_coef        .
_refine_ls_number_reflns          3117
_refine_ls_number_parameters      231
_refine_ls_number_restraints      0
_refine_ls_R_factor_all           0.0296
_refine_ls_R_factor_gt            0.0265
_refine_ls_wR_factor_ref          0.0679
_refine_ls_wR_factor_gt           0.0667
_refine_ls_goodness_of_fit_ref    1.043
_refine_ls_restrained_S_all       1.043
_refine_ls_shift/su_max           0.001
_refine_ls_shift/su_mean          0.000
 
loop_
 _atom_site_label
 _atom_site_type_symbol
 _atom_site_fract_x
 _atom_site_fract_y
 _atom_site_fract_z
 _atom_site_U_iso_or_equiv
 _atom_site_adp_type
 _atom_site_occupancy
 _atom_site_site_symmetry_order  
 _atom_site_calc_flag
 _atom_site_refinement_flags_posn
 _atom_site_refinement_flags_adp
 _atom_site_refinement_flags_occupancy
 _atom_site_disorder_assembly
 _atom_site_disorder_group
Zn1 Zn 0.250000 0.35416(5) 0.500000 0.01398(9) Uani 1 2 d S T P . .
O1 O 0.14190(7) 0.4346(2) 0.55423(5) 0.0221(3) Uani 1 1 d . . . . .
O2 O 0.18280(6) 0.1324(2) 0.51531(5) 0.0193(3) Uani 1 1 d . . . . .
C1 C 0.13460(9) 0.2386(3) 0.53142(7) 0.0154(3) Uani 1 1 d . . . . .
C2 C 0.06526(9) 0.1108(3) 0.51664(6) 0.0135(3) Uani 1 1 d . . . . .
C3 C 0.00730(9) 0.2213(3) 0.52615(7) 0.0158(3) Uani 1 1 d . . . . .
H3 H 0.012275 0.372188 0.544142 0.019 Uiso 1 1 calc R U . . .
C4 C -0.05764(9) 0.1118(3) 0.50945(7) 0.0161(3) Uani 1 1 d . . . . .
H4 H -0.097167 0.188523 0.515789 0.019 Uiso 1 1 calc R U . . .
N1 N 0.31257(7) 0.5462(3) 0.55898(5) 0.0144(3) Uani 1 1 d . . . . .
N2 N 0.36044(8) 0.8408(3) 0.61583(6) 0.0175(3) Uani 1 1 d . . . . .
N3 N 0.40643(7) 0.6524(3) 0.61844(6) 0.0129(3) Uani 1 1 d . . . . .
N4 N 0.52217(7) 0.3085(3) 0.61899(6) 0.0141(3) Uani 1 1 d . . . . .
N5 N 0.63686(7) 0.3246(3) 0.68621(5) 0.0141(3) Uani 1 1 d . . . . .
N6 N 0.66875(7) 0.6845(3) 0.77297(6) 0.0141(3) Uani 1 1 d . . . . .
N7 N 0.68529(8) 0.8854(3) 0.80456(6) 0.0199(3) Uani 1 1 d . . . . .
N8 N 0.76750(8) 0.5931(3) 0.83072(6) 0.0205(3) Uani 1 1 d . . . . .
C11 C 0.30499(9) 0.7677(3) 0.57960(7) 0.0170(4) Uani 1 1 d . . . . .
H11 H 0.263317 0.860619 0.568710 0.020 Uiso 1 1 calc R U . . .
C12 C 0.37682(9) 0.4783(3) 0.58458(7) 0.0148(3) Uani 1 1 d . . . . .
H12 H 0.398311 0.329620 0.579612 0.018 Uiso 1 1 calc R U . . .
C13 C 0.47345(8) 0.6604(3) 0.65523(6) 0.0125(3) Uani 1 1 d . . . . .
C14 C 0.48869(9) 0.8369(3) 0.69272(7) 0.0143(3) Uani 1 1 d . . . . .
H14 H 0.454677 0.957330 0.692954 0.017 Uiso 1 1 calc R U . . .
C15 C 0.55413(9) 0.8448(3) 0.73140(7) 0.0149(3) Uani 1 1 d . . . . .
H15 H 0.562746 0.970118 0.756964 0.018 Uiso 1 1 calc R U . . .
C16 C 0.60504(9) 0.6770(3) 0.73284(6) 0.0131(3) Uani 1 1 d . . . . .
C17 C 0.59226(8) 0.4961(3) 0.69310(6) 0.0126(3) Uani 1 1 d . . . . .
C18 C 0.52570(8) 0.4867(3) 0.65411(6) 0.0123(3) Uani 1 1 d . . . . .
C19 C 0.71846(9) 0.5135(4) 0.79002(7) 0.0190(4) Uani 1 1 d . . . . .
H19 H 0.718037 0.357344 0.774722 0.023 Uiso 1 1 calc R U . . .
C20 C 0.74470(9) 0.8201(4) 0.83793(7) 0.0185(4) Uani 1 1 d . . . . .
H20 H 0.769925 0.924112 0.865182 0.022 Uiso 1 1 calc R U . . .
S1 S 0.59682(2) 0.17324(8) 0.63457(2) 0.01505(10) Uani 1 1 d . . . . .
 
loop_
 _atom_site_aniso_label
 _atom_site_aniso_U_11
 _atom_site_aniso_U_22
 _atom_site_aniso_U_33
 _atom_site_aniso_U_23
 _atom_site_aniso_U_13
 _atom_site_aniso_U_12
Zn1 0.00789(13) 0.01582(15) 0.01672(15) 0.000 0.00096(10) 0.000
O1 0.0160(6) 0.0210(7) 0.0255(7) -0.0023(6) -0.0005(5) -0.0012(6)
O2 0.0106(6) 0.0185(6) 0.0289(7) 0.0030(5) 0.0060(5) 0.0003(5)
C1 0.0114(7) 0.0181(8) 0.0147(8) 0.0060(7) 0.0005(6) 0.0009(7)
C2 0.0118(7) 0.0161(8) 0.0122(7) 0.0035(6) 0.0024(6) 0.0005(7)
C3 0.0158(8) 0.0157(8) 0.0160(8) -0.0018(7) 0.0047(7) 0.0006(7)
C4 0.0127(8) 0.0184(8) 0.0183(8) -0.0001(7) 0.0060(7) 0.0023(7)
N1 0.0098(6) 0.0169(7) 0.0150(7) 0.0008(6) 0.0012(5) 0.0003(6)
N2 0.0137(7) 0.0160(7) 0.0211(8) -0.0005(6) 0.0020(6) 0.0050(6)
N3 0.0108(6) 0.0133(7) 0.0139(7) 0.0000(6) 0.0022(5) 0.0012(6)
N4 0.0120(6) 0.0153(7) 0.0136(7) -0.0007(6) 0.0012(5) 0.0011(6)
N5 0.0133(7) 0.0157(7) 0.0124(7) -0.0023(6) 0.0020(5) 0.0002(6)
N6 0.0130(7) 0.0153(7) 0.0125(7) -0.0036(6) 0.0012(5) -0.0009(6)
N7 0.0184(7) 0.0190(8) 0.0185(8) -0.0074(6) -0.0007(6) -0.0011(6)
N8 0.0159(7) 0.0252(8) 0.0170(7) -0.0047(7) -0.0007(6) 0.0015(7)
C11 0.0120(7) 0.0187(9) 0.0193(9) 0.0014(7) 0.0029(7) 0.0027(7)
C12 0.0119(7) 0.0160(8) 0.0158(8) -0.0007(7) 0.0027(6) -0.0003(7)
C13 0.0104(7) 0.0152(8) 0.0114(7) 0.0018(6) 0.0021(6) -0.0013(7)
C14 0.0126(7) 0.0152(8) 0.0152(8) 0.0003(6) 0.0038(6) 0.0012(7)
C15 0.0159(8) 0.0152(8) 0.0129(8) -0.0026(6) 0.0028(6) -0.0019(7)
C16 0.0127(7) 0.0145(8) 0.0113(8) 0.0006(6) 0.0020(6) -0.0019(7)
C17 0.0116(7) 0.0139(8) 0.0117(7) 0.0011(6) 0.0021(6) -0.0004(7)
C18 0.0113(7) 0.0132(8) 0.0119(7) 0.0007(6) 0.0025(6) -0.0019(7)
C19 0.0169(8) 0.0195(9) 0.0179(8) -0.0036(7) 0.0003(7) 0.0037(7)
C20 0.0139(8) 0.0244(9) 0.0152(8) -0.0059(7) 0.0008(7) -0.0020(7)
S1 0.01257(19) 0.0167(2) 0.0137(2) -0.00417(16) 0.00017(15) 0.00218(17)
 
_geom_special_details
;
 All esds (except the esd in the dihedral angle between two l.s. planes)
 are estimated using the full covariance matrix.  The cell esds are taken
 into account individually in the estimation of esds in distances, angles
 and torsion angles; correlations between esds in cell parameters are only
 used when they are defined by crystal symmetry.  An approximate (isotropic)
 treatment of cell esds is used for estimating esds involving l.s. planes.
;
 
loop_
 _geom_bond_atom_site_label_1
 _geom_bond_atom_site_label_2
 _geom_bond_distance
 _geom_bond_site_symmetry_2
 _geom_bond_publ_flag
Zn1 O2 1.9385(13) . ?
Zn1 O2 1.9386(12) 2_556 ?
Zn1 N1 2.0102(14) 2_556 ?
Zn1 N1 2.0102(14) . ?
O1 C1 1.226(2) . ?
O2 C1 1.296(2) . ?
C1 C2 1.503(2) . ?
C2 C3 1.391(2) . ?
C2 C4 1.395(2) 5_556 ?
C3 C4 1.385(2) . ?
C3 H3 0.9500 . ?
C4 H4 0.9500 . ?
N1 C12 1.326(2) . ?
N1 C11 1.363(2) . ?
N2 C11 1.311(2) . ?
N2 N3 1.373(2) . ?
N3 C12 1.335(2) . ?
N3 C13 1.420(2) . ?
N4 C18 1.342(2) . ?
N4 S1 1.6123(14) . ?
N5 C17 1.345(2) . ?
N5 S1 1.6137(14) . ?
N6 C19 1.351(2) . ?
N6 N7 1.372(2) . ?
N6 C16 1.414(2) . ?
N7 C20 1.317(2) . ?
N8 C19 1.315(2) . ?
N8 C20 1.362(2) . ?
C11 H11 0.9500 . ?
C12 H12 0.9500 . ?
C13 C14 1.364(2) . ?
C13 C18 1.421(2) . ?
C14 C15 1.419(2) . ?
C14 H14 0.9500 . ?
C15 C16 1.365(2) . ?
C15 H15 0.9500 . ?
C16 C17 1.422(2) . ?
C17 C18 1.439(2) . ?
C19 H19 0.9500 . ?
C20 H20 0.9500 . ?
 
loop_
 _geom_angle_atom_site_label_1
 _geom_angle_atom_site_label_2
 _geom_angle_atom_site_label_3
 _geom_angle
 _geom_angle_site_symmetry_1
 _geom_angle_site_symmetry_3
 _geom_angle_publ_flag
O2 Zn1 O2 101.92(8) . 2_556 ?
O2 Zn1 N1 100.35(6) . 2_556 ?
O2 Zn1 N1 118.87(6) 2_556 2_556 ?
O2 Zn1 N1 118.87(6) . . ?
O2 Zn1 N1 100.36(6) 2_556 . ?
N1 Zn1 N1 116.53(9) 2_556 . ?
C1 O2 Zn1 113.92(11) . . ?
O1 C1 O2 124.32(16) . . ?
O1 C1 C2 120.98(16) . . ?
O2 C1 C2 114.57(16) . . ?
C3 C2 C4 119.60(16) . 5_556 ?
C3 C2 C1 119.92(16) . . ?
C4 C2 C1 120.37(15) 5_556 . ?
C4 C3 C2 120.15(17) . . ?
C4 C3 H3 119.9 . . ?
C2 C3 H3 119.9 . . ?
C3 C4 C2 120.25(16) . 5_556 ?
C3 C4 H4 119.9 . . ?
C2 C4 H4 119.9 5_556 . ?
C12 N1 C11 104.24(14) . . ?
C12 N1 Zn1 123.54(12) . . ?
C11 N1 Zn1 132.06(12) . . ?
C11 N2 N3 102.72(14) . . ?
C12 N3 N2 110.16(14) . . ?
C12 N3 C13 129.87(15) . . ?
N2 N3 C13 119.91(14) . . ?
C18 N4 S1 107.08(11) . . ?
C17 N5 S1 106.82(11) . . ?
C19 N6 N7 109.17(14) . . ?
C19 N6 C16 130.84(15) . . ?
N7 N6 C16 119.81(14) . . ?
C20 N7 N6 102.07(15) . . ?
C19 N8 C20 102.76(15) . . ?
N2 C11 N1 113.87(15) . . ?
N2 C11 H11 123.1 . . ?
N1 C11 H11 123.1 . . ?
N1 C12 N3 109.01(16) . . ?
N1 C12 H12 125.5 . . ?
N3 C12 H12 125.5 . . ?
C14 C13 N3 120.02(15) . . ?
C14 C13 C18 118.66(15) . . ?
N3 C13 C18 121.32(15) . . ?
C13 C14 C15 121.56(16) . . ?
C13 C14 H14 119.2 . . ?
C15 C14 H14 119.2 . . ?
C16 C15 C14 121.76(16) . . ?
C16 C15 H15 119.1 . . ?
C14 C15 H15 119.1 . . ?
C15 C16 N6 120.44(15) . . ?
C15 C16 C17 118.37(15) . . ?
N6 C16 C17 121.19(15) . . ?
N5 C17 C16 127.23(15) . . ?
N5 C17 C18 112.89(15) . . ?
C16 C17 C18 119.87(15) . . ?
N4 C18 C13 127.60(15) . . ?
N4 C18 C17 112.70(15) . . ?
C13 C18 C17 119.68(15) . . ?
N8 C19 N6 110.57(16) . . ?
N8 C19 H19 124.7 . . ?
N6 C19 H19 124.7 . . ?
N7 C20 N8 115.42(16) . . ?
N7 C20 H20 122.3 . . ?
N8 C20 H20 122.3 . . ?
N4 S1 N5 100.51(8) . . ?
 
_refine_diff_density_max    0.416
_refine_diff_density_min   -0.550
_refine_diff_density_rms    0.060

_shelx_res_file
;
TITL pvl301 in I2/a; 140K; Xcalibur
    pvl301_a.res
    created by SHELXL-2018/3 at 15:28:26 on 21-Jun-2023
CELL  0.71073  19.9484   5.5061  26.5791   90.000  106.209   90.000
ZERR    4   0.0007   0.0002   0.0009    0.000    0.004    0.000
LATT  2
SYMM 1/2-X, Y, -Z
SFAC C H N O S ZN
UNIT 112 64 64 16 8 4
ACTA

LIST 4 ! automatically inserted. Change 6 to 4 for CHECKCIF!!
TEMP -133

L.S. 6
BOND $H
FMAP 2
PLAN 5

OMIT 0

WGHT    0.025800    6.201500
FVAR       0.26621
ZN1   6    0.250000    0.354165    0.500000    10.50000    0.00789    0.01582 =
         0.01672    0.00000    0.00096    0.00000
O1    4    0.141898    0.434586    0.554233    11.00000    0.01601    0.02098 =
         0.02546   -0.00226   -0.00048   -0.00119
O2    4    0.182800    0.132412    0.515309    11.00000    0.01061    0.01854 =
         0.02892    0.00299    0.00598    0.00029
C1    1    0.134604    0.238609    0.531425    11.00000    0.01143    0.01812 =
         0.01467    0.00595    0.00048    0.00092
C2    1    0.065257    0.110797    0.516637    11.00000    0.01177    0.01614 =
         0.01217    0.00353    0.00239    0.00048
C3    1    0.007303    0.221276    0.526150    11.00000    0.01577    0.01574 =
         0.01595   -0.00181    0.00468    0.00057
AFIX  43
H3    2    0.012275    0.372188    0.544142    11.00000   -1.20000
AFIX   0
C4    1   -0.057645    0.111799    0.509454    11.00000    0.01270    0.01837 =
         0.01825   -0.00013    0.00601    0.00228
AFIX  43
H4    2   -0.097167    0.188523    0.515789    11.00000   -1.20000
AFIX   0
N1    3    0.312573    0.546201    0.558978    11.00000    0.00984    0.01693 =
         0.01502    0.00083    0.00120    0.00025
N2    3    0.360444    0.840763    0.615827    11.00000    0.01367    0.01596 =
         0.02111   -0.00049    0.00196    0.00504
N3    3    0.406434    0.652417    0.618442    11.00000    0.01080    0.01329 =
         0.01386    0.00000    0.00222    0.00121
N4    3    0.522169    0.308524    0.618991    11.00000    0.01204    0.01526 =
         0.01357   -0.00067    0.00121    0.00110
N5    3    0.636864    0.324569    0.686207    11.00000    0.01329    0.01567 =
         0.01238   -0.00231    0.00197    0.00021
N6    3    0.668752    0.684521    0.772973    11.00000    0.01303    0.01531 =
         0.01247   -0.00359    0.00118   -0.00085
N7    3    0.685286    0.885448    0.804558    11.00000    0.01840    0.01904 =
         0.01854   -0.00744   -0.00074   -0.00111
N8    3    0.767500    0.593105    0.830716    11.00000    0.01590    0.02523 =
         0.01703   -0.00470   -0.00073    0.00146
C11   1    0.304990    0.767663    0.579597    11.00000    0.01202    0.01872 =
         0.01927    0.00136    0.00286    0.00267
AFIX  43
H11   2    0.263317    0.860619    0.568710    11.00000   -1.20000
AFIX   0
C12   1    0.376824    0.478258    0.584576    11.00000    0.01189    0.01602 =
         0.01585   -0.00071    0.00266   -0.00032
AFIX  43
H12   2    0.398311    0.329620    0.579612    11.00000   -1.20000
AFIX   0
C13   1    0.473453    0.660426    0.655229    11.00000    0.01035    0.01522 =
         0.01142    0.00179    0.00211   -0.00127
C14   1    0.488685    0.836870    0.692724    11.00000    0.01257    0.01517 =
         0.01517    0.00028    0.00383    0.00125
AFIX  43
H14   2    0.454677    0.957330    0.692954    11.00000   -1.20000
AFIX   0
C15   1    0.554127    0.844770    0.731396    11.00000    0.01595    0.01516 =
         0.01286   -0.00264    0.00277   -0.00192
AFIX  43
H15   2    0.562746    0.970118    0.756964    11.00000   -1.20000
AFIX   0
C16   1    0.605036    0.677035    0.732842    11.00000    0.01272    0.01447 =
         0.01128    0.00062    0.00204   -0.00191
C17   1    0.592265    0.496148    0.693102    11.00000    0.01156    0.01394 =
         0.01167    0.00114    0.00213   -0.00035
C18   1    0.525697    0.486704    0.654109    11.00000    0.01133    0.01315 =
         0.01190    0.00068    0.00246   -0.00189
C19   1    0.718457    0.513478    0.790016    11.00000    0.01690    0.01951 =
         0.01791   -0.00364    0.00032    0.00369
AFIX  43
H19   2    0.718037    0.357344    0.774722    11.00000   -1.20000
AFIX   0
C20   1    0.744700    0.820058    0.837934    11.00000    0.01393    0.02441 =
         0.01517   -0.00587    0.00083   -0.00195
AFIX  43
H20   2    0.769925    0.924112    0.865182    11.00000   -1.20000
AFIX   0
S1    5    0.596819    0.173237    0.634572    11.00000    0.01257    0.01671 =
         0.01375   -0.00417    0.00017    0.00218
HKLF 4




REM  pvl301 in I2/a; 140K; Xcalibur
REM wR2 = 0.0679, GooF = S = 1.043, Restrained GooF = 1.043 for all data
REM R1 = 0.0265 for 2889 Fo > 4sig(Fo) and 0.0296 for all 3117 data
REM 231 parameters refined using 0 restraints

END

WGHT      0.0258      6.2020

REM Highest difference peak  0.416,  deepest hole -0.550,  1-sigma level  0.060
Q1    1   0.5578  0.5074  0.6738  11.00000  0.05    0.42
Q2    1   0.5260  0.8390  0.7072  11.00000  0.05    0.34
Q3    1   0.6337  0.6764  0.7503  11.00000  0.05    0.34
Q4    1   0.4981  0.5550  0.6540  11.00000  0.05    0.32
Q5    1   0.1012  0.1464  0.5358  11.00000  0.05    0.32
;
_shelx_res_checksum   49405

_shelx_hkl_file
;
   0   0  -4  541.05    7.69
   0   0   4  527.98    7.64
   0   0   6 5302.46   65.19
   0   0  -6 5355.01   65.21
   0   0  -8 1403.91   19.26
   0   0   8 1380.76   19.15
   0   0  10  729.81   11.76
   0   0 -10  718.12   11.75
   0   0  12   10.60    1.45
   0   0 -12   10.85    1.62
   0   0 -14  875.28   14.93
   0   0  14  907.99   15.00
   0   0  16 1432.19   21.99
   0   0 -16 1364.98   21.78
   0   0  18  117.66    4.74
   0   0 -18  118.55    4.85
   0   0 -20    5.80    1.86
   0   0 -22  169.40    6.47
   0   0 -24   10.82    2.34
   0   0 -26  387.12   11.24
   0   0 -28  254.39    9.25
   0   0 -30   97.69    6.06
   0   1  -1  753.93   10.12
   0  -1  -1  772.80   10.36
   0  -1   1  766.93   10.10
   0   1  -3   57.49    1.54
   0  -1   3   57.22    1.56
   0   1   3   58.97    1.94
   0  -1  -5  270.68    5.30
   0   1   5  275.84    5.27
   0   1  -5  272.02    4.62
   0  -1   5  280.54    4.64
   0   1  -7  420.60    6.83
   0  -1  -7  418.35    7.57
   0   1  -7  424.52    7.24
   0   1   7  417.17    7.50
   0   1   9 1132.11   16.72
   0  -1  -9 1119.38   16.78
   0   1  -9 1120.78   16.28
   0   1  -9 1115.31   15.78
   0  -1  11  181.44    4.81
   0   1  11  184.34    5.08
   0  -1 -11  184.38    5.17
   0   1 -11  179.60    4.48
   0   1 -11  181.63    4.79
   0  -1 -13    8.08    1.64
   0   1 -13    9.00    1.22
   0   1 -13    8.86    1.49
   0  -1  13    8.52    1.33
   0   1  13    8.26    1.51
   0  -1 -15  228.79    6.57
   0  -1  15  243.28    6.43
   0   1 -15  229.23    6.27
   0   1  15  247.71    6.71
   0   1 -17  227.72    6.61
   0  -1 -17  225.25    6.89
   0   1  17  234.88    6.89
   0  -1  17  226.99    6.52
   0  -1 -19  441.18   10.75
   0   1 -19  442.15   10.33
   0  -1  19  467.64   10.57
   0  -1 -21  403.95   10.51
   0   1 -21  388.83    9.99
   0  -1 -23   24.55    2.92
   0   1 -23   29.55    3.11
   0  -1 -25  376.34   11.02
   0   1 -25  365.52   10.54
   0   1 -27  136.74    6.53
   0  -1 -27  128.41    6.56
   0  -1 -29   85.53    5.75
   0   1 -29   96.39    5.71
   0  -1 -31  100.51    6.42
   0   1 -31  101.38    6.33
   0  -2   0 1195.92   16.50
   0   2  -2   15.25    1.13
   0  -2   2   10.78    1.07
   0  -2  -2    9.55    1.21
   0   2   4   14.27    1.38
   0   2  -4   11.99    1.02
   0  -2   4   13.39    1.10
   0   2  -6   76.20    2.36
   0  -2   6   80.66    2.45
   0   2   6   80.38    3.02
   0   2  -8 2278.75   30.08
   0  -2   8 2351.16   30.08
   0   2   8 2327.70   31.69
   0   2 -10   15.18    1.56
   0   2 -10   18.60    1.43
   0  -2 -10   16.89    1.98
   0   2  10   17.01    1.81
   0   2 -12   30.15    1.86
   0   2 -12   29.73    2.12
   0  -2 -12   31.06    2.53
   0   2  12   36.14    2.51
   0   2  14   43.55    2.87
   0  -2 -14   39.99    2.89
   0   2 -14   38.50    2.24
   0   2 -14   42.14    2.62
   0   2 -16   14.44    1.63
   0   2 -16   15.55    1.91
   0  -2 -16   14.79    2.30
   0   2 -18   37.95    2.84
   0   2 -18   36.54    2.52
   0  -2 -18   38.75    3.17
   0   2 -20  481.23   11.22
   0   2 -20  473.63   10.43
   0  -2 -20  481.81   11.82
   0  -2 -22   79.43    4.75
   0   2 -22   82.71    4.54
   0   2 -24    2.06    1.79
   0  -2 -24    0.36    1.94
   0   2 -26  105.17    5.63
   0  -2 -26  105.56    6.04
   0  -2 -28   13.54    3.12
   0   2 -28   11.00    2.47
   0   2 -30   91.23    5.84
   0  -3   1  238.84    5.40
   0  -3  -1  244.27    5.64
   0  -3  -3   39.78    2.28
   0   3  -3   39.10    1.99
   0  -3   3   36.69    1.93
   0  -3  -5  245.25    6.14
   0   3  -5  247.05    5.36
   0   3   5  253.54    6.30
   0  -3   5  248.36    5.38
   0   3   7  124.39    4.34
   0   3  -7  117.89    3.50
   0  -3   7  114.16    3.44
   0  -3   9   69.66    2.68
   0   3  -9   64.98    2.62
   0   3   9   74.70    3.52
   0  -3  11  910.94   14.24
   0   3  11  943.94   16.34
   0   3 -11  894.52   14.21
   0   3 -13   18.05    1.92
   0   3 -13   20.46    1.66
   0   3  13   14.63    1.90
   0   3 -15    4.17    1.23
   0   3 -15    1.84    1.22
   0   3 -17  365.97    9.11
   0   3 -17  351.72    8.14
   0   3 -19  936.04   17.54
   0   3 -19  942.67   16.40
   0  -3 -19  939.21   18.53
   0   3 -21    1.99    1.23
   0   3 -21    0.09    1.60
   0  -3 -21    6.29    2.40
   0  -3 -23   37.53    3.77
   0   3 -23   31.70    3.23
   0   3 -25  517.46   13.19
   0  -3 -25  517.62   14.08
   0   3 -27  231.48    8.74
   0  -3 -27  239.28    9.49
   0   3 -29   35.07    3.81
   0  -4   0 1043.23   16.69
   0  -4  -2  124.57    4.45
   0  -4   2  130.49    4.25
   0   4   4  233.46    6.59
   0  -4  -4  225.62    6.40
   0  -4   4  228.12    5.73
   0   4   6  901.35   16.04
   0   4  -6  883.66   14.42
   0  -4  -6  884.74   15.82
   0  -4   6  902.36   14.47
   0  -4   8 1074.33   16.51
   0   4   8 1087.49   18.63
   0   4  -8 1028.76   16.38
   0  -4  -8 1056.06   18.34
   0   4 -10  308.02    7.02
   0  -4  10  321.20    7.10
   0  -4 -10  317.61    8.56
   0  -4  12  135.37    4.33
   0   4 -12  132.49    4.34
   0   4 -14  124.52    4.95
   0   4 -14  116.88    4.15
   0   4 -16  593.07   12.61
   0   4 -16  556.54   11.06
   0   4 -18  306.17    8.72
   0   4 -18  285.51    7.49
   0   4 -20   45.96    3.51
   0   4 -22  154.56    6.60
   0   4 -24    2.34    1.82
   0   4 -26   26.29    3.19
   0   4 -28    0.28    1.88
   0  -5   1    6.21    1.55
   0  -5  -1    7.24    1.52
   0  -5  -3    2.10    1.52
   0  -5   3   -0.72    1.11
   0  -5   5   21.46    2.08
   0  -5  -5   17.10    2.25
   0  -5   7   38.56    2.53
   0  -5  -7   34.90    3.09
   0  -5   9   53.38    2.91
   0   5  -9   50.00    2.84
   0  -5  -9   53.13    3.67
   0  -5  11  255.29    6.66
   0   5 -11  240.22    6.50
   0  -5 -11  237.65    8.17
   0  -5  13   33.00    2.41
   0  -5 -13   32.41    3.33
   0   5 -15  117.63    5.33
   0  -5 -15  114.36    6.10
   0  -5 -17   31.52    3.44
   0   5 -17   32.98    3.20
   0  -5 -19   37.48    3.94
   0   5 -19   40.67    3.54
   0   5 -21    8.40    2.11
   0  -5 -21    9.88    2.69
   0   5 -23   69.19    4.79
   0   5 -25   31.85    3.52
   0  -6   0 1265.18   21.73
   0  -6  -2  177.75    6.56
   0  -6   2  186.49    6.37
   0  -6   4   78.72    4.04
   0  -6  -4   76.55    4.40
   0  -6   6  105.33    4.56
   0  -6  -6  108.99    5.44
   0  -6  -8  341.34   10.26
   0  -6 -10   34.82    3.49
   0  -6 -12    5.26    2.03
   0  -6 -14  132.08    6.76
   0   6 -16  125.20    5.94
   0  -6 -16  129.29    6.91
   0  -7  -5   54.72    4.16
   0  -7  -7   82.21    5.16
   0  -7  -9    6.95    2.26
   0  -7 -11  149.35    7.36
   1   0 -31    2.07    2.07
   1   0 -29    2.80    2.30
   1   0 -27   -0.20    2.00
   1   0 -25   -2.41    2.00
   1   0 -23    1.10    1.67
   1   0 -21   -2.68    1.83
   1   0 -19    2.48    1.60
  -1   0  19   -1.21    1.18
  -1   0  17    3.03    1.22
   1   0 -17    1.63    1.42
   1   0 -15    2.20    1.43
  -1   0  15    0.01    0.99
  -1   0  13    1.96    1.16
   1   0 -13    1.17    1.35
   1   0 -11    0.37    1.06
  -1   0  11   -0.65    1.06
   1   0  -9    1.24    1.13
  -1   0   9   -0.68    0.94
   1   0  -7    4.88    1.24
  -1   0   7    1.64    0.84
  -1   0   5    1.13    0.71
   1   0  -5    1.24    0.82
  -1   0   3    0.94    0.40
   1   0  -3    1.63    0.43
  -1   0  -3    2.33    0.71
   1   0   3    0.84    0.50
  -1   0  -5    0.81    1.13
   1   0   5    2.73    0.86
  -1   0  -7    1.05    1.26
   1   0   7    0.85    0.86
  -1   0  -9    1.83    1.16
   1   0   9    1.99    1.01
   1   0  11    1.44    0.99
  -1   0 -11    0.42    1.11
  -1   0 -13    2.06    1.41
   1   0  13    0.64    1.04
  -1   0 -15    0.86    1.28
   1   0  15    1.00    1.08
   1   0  17    0.45    1.14
  -1   0 -17   -0.34    1.35
  -1   0 -19    1.31    1.65
  -1   0 -21    0.23    1.53
  -1   0 -23    0.92    1.70
  -1   0 -25   -0.03    1.93
  -1   0 -27   -1.60    1.97
  -1   0 -29   -0.69    2.08
  -1   0 -31    2.25    2.57
   1   1 -32  114.96    6.69
   1   1 -30  266.08    9.74
   1  -1 -30  259.32    9.97
   1  -1 -28   56.73    4.57
   1   1 -28   56.20    4.40
   1  -1 -26   79.85    5.05
   1   1 -26   72.82    4.67
   1   1 -24  383.99   10.49
   1  -1 -24  412.08   11.13
   1  -1 -22    8.19    2.03
   1   1 -22   11.89    2.15
   1  -1 -20    7.38    1.88
   1   1 -20    4.71    1.65
   1  -1 -18  546.47   11.81
  -1   1  18  548.01   11.74
   1   1 -18  529.83   11.19
  -1  -1  18  557.07   11.38
  -1  -1  16    4.88    1.19
  -1   1  16    5.64    1.43
   1  -1 -16    5.37    1.68
   1   1 -16    5.49    1.44
  -1  -1  14  365.99    7.95
  -1   1  14  378.31    8.40
   1  -1 -14  354.28    8.25
   1   1 -14  363.64    7.89
  -1   1  12  272.88    6.57
   1   1 -12  273.07    6.16
   1  -1 -12  272.11    6.58
  -1  -1  12  276.23    6.21
   1  -1 -10    7.41    1.44
  -1   1  10    6.59    1.29
   1   1 -10    8.70    1.29
  -1  -1  10    5.57    1.06
   1   1  -8   12.60    1.26
   1  -1  -8   10.21    1.58
  -1   1   8    9.00    1.25
   1   1  -8    9.08    0.91
  -1   1   6   50.16    2.07
   1   1  -6   47.13    1.48
   1   1  -6   49.08    1.79
   1  -1  -6   47.52    2.22
  -1   1   4 3210.86   39.86
  -1  -1   4 3184.02   38.60
   1   1  -4 3175.34   38.62
  -1  -1   2   43.39    1.09
   1  -1  -2   42.71    1.65
   1   1  -2   44.46    1.09
   1  -1   0 1275.29   16.56
  -1   1   0 1280.66   16.57
   1  -1   2  280.26    4.66
  -1  -1  -2  279.32    4.71
  -1   1  -2  283.17    4.62
   1   1   2  282.81    4.72
   1  -1   4 9889.97  118.24
  -1  -1  -4 9868.80  118.63
   1   1   4 9821.49  118.64
  -1   1  -4 9791.99  118.31
   1   1   6 6085.23   74.80
  -1   1  -6 6097.11   74.29
   1  -1   6 6051.64   74.30
  -1  -1  -6 6082.39   74.89
  -1   1  -6 6113.43   74.66
  -1   1  -8  560.59    9.08
   1   1   8  569.98    9.62
  -1   1  -8  554.77    9.45
  -1  -1  -8  566.74    9.71
  -1   1 -10  500.64    8.83
  -1  -1 -10  523.07    9.56
   1   1  10  505.69    9.42
  -1   1 -10  502.65    9.21
  -1   1 -12 1973.43   27.59
  -1   1 -12 2031.32   28.14
  -1  -1 -12 2005.14   28.47
   1   1  12 2030.54   28.55
  -1   1 -14 1233.04   19.52
  -1   1 -14 1237.04   19.06
  -1  -1 -14 1251.52   19.92
   1   1  14 1279.03   20.04
  -1  -1 -16  203.55    6.45
  -1   1 -16  210.84    6.32
   1   1  16  221.53    6.50
  -1   1 -16  213.00    6.02
   1  -1  16  212.84    6.33
  -1  -1 -18  593.99   12.61
  -1   1 -18  596.96   11.94
  -1   1 -18  585.36   12.31
   1  -1  18  597.09   12.41
  -1   1 -20  650.44   13.61
  -1  -1 -20  641.87   13.90
  -1  -1 -22  214.70    7.70
  -1   1 -22  227.99    7.59
  -1   1 -24  111.25    5.63
  -1  -1 -24  124.32    6.04
  -1   1 -26  162.87    7.11
  -1  -1 -26  162.20    7.26
  -1  -1 -28   39.67    4.02
  -1   1 -28   39.13    3.89
  -1   1 -30   78.75    5.52
  -1  -1 -30   81.66    5.72
   1   2 -31   61.85    4.98
   1   2 -29  366.31   11.30
   1  -2 -29  373.37   12.02
   1   2 -27  281.92    9.50
   1  -2 -27  300.40   10.28
   1  -2 -25  106.14    5.79
   1   2 -25   93.49    5.11
   1  -2 -23  189.71    7.43
   1   2 -23  184.05    6.76
   1   2 -21 1039.57   18.69
   1   2 -21 1034.24   17.70
   1  -2 -21 1006.16   19.36
   1  -2 -19  404.94   10.31
   1   2 -19  385.16    8.75
   1   2 -19  397.57    9.52
   1  -2 -17  377.83    9.56
   1   2 -17  384.77    8.24
   1   2 -17  389.33    8.92
   1   2 -15 1159.76   17.64
   1   2 -15 1167.77   18.45
  -1   2  15 1192.47   19.64
   1  -2 -15 1123.80   19.39
  -1   2  13 2111.48   29.80
   1  -2 -13 2003.27   29.63
   1   2 -13 2005.18   27.55
   1   2 -13 2052.05   28.50
   1   2 -11 1301.18   18.58
   1   2 -11 1358.33   19.53
   1  -2 -11 1329.31   20.41
  -1   2  11 1354.72   20.61
   1   2  -9    4.89    0.86
  -1   2   9    3.76    1.21
   1   2  -9    3.99    0.97
  -1  -2   7 1517.77   19.93
  -1   2   7 1542.84   21.79
   1   2  -7 1497.92   19.91
  -1  -2   5  254.57    4.51
   1   2  -5  245.54    4.44
  -1   2   5  248.84    5.55
   1   2  -3    4.98    0.77
   1  -2  -3    3.04    1.09
  -1  -2   3    3.10    0.68
   1  -2  -1  784.53   11.91
  -1   2   1  792.25   11.88
  -1  -2   1  795.84   11.28
  -1   2  -1  480.58    7.88
  -1  -2  -1  482.72    7.80
   1  -2   1  471.31    7.89
   1  -2   3  395.03    6.76
  -1   2  -3  386.72    6.78
   1   2   3  392.59    7.10
   1  -2   5  174.41    4.01
   1   2   5  176.80    4.41
  -1   2  -5  164.79    3.95
  -1   2  -7    6.54    1.02
   1  -2   7    7.02    1.13
  -1  -2  -7    9.17    1.55
   1   2   7    6.85    1.24
  -1  -2  -9 1256.39   19.03
   1   2   9 1270.88   19.03
  -1   2  -9 1233.23   17.95
   1  -2   9 1232.41   17.84
  -1   2 -11  285.91    6.69
  -1  -2 -11  277.30    7.00
  -1   2 -11  272.00    6.16
   1   2  11  293.18    7.12
  -1   2 -13  251.45    6.12
  -1   2 -13  252.44    6.58
  -1  -2 -13  250.52    6.96
   1   2  13  267.97    7.07
  -1   2 -15  831.44   14.32
   1   2  15  879.29   15.78
  -1   2 -15  828.15   14.94
  -1  -2 -15  834.06   15.55
  -1   2 -17    3.33    1.61
  -1   2 -17    3.46    1.18
  -1  -2 -17    6.05    1.84
  -1   2 -19   37.28    2.67
  -1  -2 -19   37.43    3.28
  -1   2 -19   35.51    2.97
  -1  -2 -21  160.91    6.63
  -1   2 -21  154.14    6.14
  -1   2 -23  224.92    7.85
  -1  -2 -23  225.40    8.37
  -1   2 -25  481.95   12.66
  -1  -2 -25  481.41   13.17
  -1  -2 -27   16.38    3.13
  -1   2 -27   18.56    3.17
  -1   2 -29   67.85    5.06
  -1  -2 -29   62.93    5.04
   1   3 -30    0.25    1.95
   1   3 -28   21.37    2.98
   1  -3 -26   37.75    4.04
   1   3 -26   39.06    3.60
   1   3 -24   -1.82    1.81
   1   3 -22    3.94    1.53
   1   3 -22    2.38    1.25
   1   3 -20   43.52    3.21
   1   3 -20   47.54    2.94
   1   3 -18   59.13    3.01
   1   3 -18   64.04    3.68
   1   3 -16  141.92    5.06
   1   3 -16  140.18    4.43
   1   3 -14  198.44    5.15
   1   3 -14  222.24    6.10
   1   3 -12  218.30    5.81
  -1   3  12  225.76    6.77
   1   3 -12  203.18    4.98
   1   3 -10   61.58    2.42
  -1   3  10   68.14    3.46
  -1  -3  10   63.76    2.45
  -1   3   8   22.49    2.11
   1  -3  -8   18.97    2.06
  -1  -3   8   22.53    1.45
   1   3  -8   20.74    1.43
   1   3  -6  270.36    5.50
   1  -3  -6  280.44    6.85
  -1  -3   6  277.52    5.55
  -1   3   6  292.09    6.93
   1   3  -4    2.14    0.80
  -1  -3   4    1.59    0.75
   1  -3  -4    2.30    1.12
   1  -3  -2    3.26    1.13
  -1  -3   2    2.66    0.84
   1  -3   0  710.04   11.86
  -1  -3   0  732.87   11.63
  -1   3  -2  228.64    5.42
  -1  -3  -2  236.54    5.52
   1  -3   2  233.27    5.44
   1  -3   4   69.10    2.71
  -1  -3  -4   65.47    2.97
  -1   3  -4   70.77    2.78
   1   3   4   66.32    2.98
  -1   3  -6  121.58    3.76
   1   3   6  120.02    4.16
   1  -3   6  127.21    3.80
   1  -3   8    1.24    0.84
   1   3   8    3.32    1.27
  -1   3  -8    2.20    0.89
   1   3  10  437.62    9.52
  -1   3 -10  407.14    8.18
   1  -3  10  414.88    8.23
   1  -3  12   87.48    3.38
  -1   3 -12   84.55    3.77
  -1   3 -12   84.43    3.35
   1   3  12   96.37    4.31
  -1   3 -14    8.12    1.67
  -1   3 -14    7.95    1.37
  -1  -3 -16   45.81    3.52
  -1   3 -16   43.31    3.03
  -1   3 -16   40.10    2.67
  -1  -3 -18  122.21    5.69
  -1   3 -18  114.79    4.56
  -1   3 -18  108.39    4.96
  -1   3 -20  181.10    6.21
  -1  -3 -20  196.80    7.57
  -1   3 -20  203.17    7.07
  -1   3 -22  128.98    5.92
  -1  -3 -22  151.29    6.85
  -1   3 -24  296.95    9.70
  -1  -3 -24  301.80   10.32
  -1  -3 -26   44.94    4.35
  -1   3 -26   33.94    3.60
  -1   3 -28   11.75    2.80
  -1   3 -30    2.19    2.42
   1   4 -29  181.39    7.98
   1   4 -27    4.89    2.08
   1   4 -25   10.94    2.40
   1   4 -23   15.79    2.29
   1   4 -21   59.66    3.99
   1   4 -19   87.93    4.52
   1   4 -17    4.31    1.21
   1   4 -17    5.37    1.56
   1   4 -15    5.36    1.45
   1   4 -15    7.09    1.24
   1   4 -13  355.54    8.55
   1  -4 -13  334.65    9.44
   1   4 -13  342.88    7.34
  -1  -4  11  126.03    3.88
   1  -4 -11  108.73    4.92
   1   4 -11  111.44    3.70
   1  -4  -9  110.54    4.84
   1   4  -9  110.47    3.60
  -1  -4   9  115.71    3.68
   1   4  -7  840.40   13.59
   1  -4  -7  845.60   15.57
  -1   4   7  871.91   15.83
  -1  -4   7  867.71   13.71
  -1   4   5  234.50    6.67
   1  -4  -5  214.65    6.38
  -1  -4   5  216.64    5.34
   1  -4  -3   -1.92    1.30
  -1  -4   3    1.13    0.86
  -1  -4   1   70.85    3.05
   1  -4  -1   69.08    3.28
   1  -4   1  355.21    7.90
  -1  -4  -1  353.22    7.84
  -1   4  -3   19.12    1.76
   1   4   3   17.81    1.95
   1  -4   3   16.87    1.65
  -1  -4  -3   17.18    1.84
  -1  -4  -5  193.99    5.96
   1   4   5  207.04    6.11
  -1   4  -5  196.95    5.45
   1  -4   5  203.00    5.53
  -1  -4  -7   71.55    3.79
   1  -4   7   78.62    3.31
  -1   4  -7   83.34    3.40
   1   4   7   81.73    3.95
   1  -4   9  292.85    6.94
  -1   4  -9  288.87    6.87
  -1  -4  -9  281.68    7.95
   1  -4  11   20.55    1.86
  -1   4 -11   18.75    1.85
   1  -4  13   25.40    2.16
  -1   4 -13   23.87    2.02
  -1   4 -15  522.32   10.82
  -1   4 -15  551.45   12.12
  -1   4 -17   89.73    4.07
  -1   4 -17   90.23    4.67
  -1   4 -19    5.20    1.95
  -1   4 -21   34.78    3.34
  -1   4 -23  151.10    6.74
  -1   4 -25  126.13    6.45
  -1   4 -27   24.20    3.26
   1   5 -24  162.33    7.07
   1   5 -22    3.76    1.97
   1  -5 -20    3.83    2.26
   1   5 -20    4.29    1.84
   1  -5 -18  154.34    7.20
   1   5 -18  144.69    6.04
   1  -5 -16  145.74    6.80
   1   5 -16  153.12    6.01
   1   5 -14    7.10    1.33
   1  -5 -14   14.08    2.43
  -1  -5  12  335.64    7.52
   1  -5 -12  306.72    9.56
   1   5 -10  156.72    4.79
   1  -5 -10  147.70    6.22
  -1  -5  10  157.45    4.80
   1  -5  -8  192.67    6.90
  -1  -5   8  198.60    5.54
  -1  -5   6   97.94    3.83
   1  -5  -6   91.51    4.61
   1  -5  -4  997.75   18.00
  -1  -5   4  987.75   16.47
  -1  -5   2  180.26    5.55
   1  -5  -2  176.97    6.03
   1  -5   0   69.80    3.66
  -1  -5   0   63.50    3.37
   1  -5   2  144.94    5.19
  -1  -5  -2  144.07    5.28
  -1  -5  -4  348.84    8.99
   1  -5   4  356.80    8.51
   1  -5   6  103.87    4.29
  -1  -5  -6  104.35    4.82
  -1   5  -6  105.53    4.25
  -1  -5  -8    0.81    1.58
  -1   5  -8    1.38    1.16
   1  -5   8    2.68    1.31
  -1  -5 -10  161.05    6.46
   1  -5  10  170.72    5.50
  -1   5 -10  158.90    5.36
  -1  -5 -12  656.54   14.97
   1  -5  12  664.23   12.80
   1  -5  14  523.41   11.02
  -1  -5 -14  504.20   13.03
  -1  -5 -16    6.25    2.33
  -1   5 -16    3.44    1.81
  -1   5 -18  163.99    6.82
  -1   5 -20  234.49    8.52
  -1   5 -22  117.43    6.26
  -1   5 -24   58.15    4.63
   1  -6 -17   90.59    5.96
   1  -6 -15   82.73    5.52
   1   6 -15   71.15    4.26
   1  -6 -13   -0.01    2.01
   1  -6 -11   27.83    3.39
   1  -6  -9   64.61    4.47
   1  -6  -7    6.68    1.99
  -1  -6   5  256.32    7.18
   1  -6  -5  260.49    8.45
  -1  -6   3    2.45    1.22
   1  -6  -3    1.46    1.42
   1  -6  -1   24.71    2.72
  -1  -6   1   25.51    2.46
  -1  -6  -1    7.89    1.71
   1  -6   1    6.23    1.55
   1  -6   3   73.18    4.03
  -1  -6  -3   70.91    4.12
   1  -6   5   41.56    3.03
  -1  -6  -5   39.25    3.28
   1  -6   7    0.13    1.33
  -1  -6  -7    0.95    1.59
  -1  -6  -9   15.25    2.48
  -1  -6 -11   18.98    2.89
  -1  -6 -13   11.24    2.53
  -1   6 -15   42.43    3.60
  -1  -6 -15   49.92    4.49
  -1   6 -17    5.88    1.78
  -1  -6 -17    6.82    2.28
   1  -7 -10   51.53    4.36
   1  -7  -8   42.48    3.93
   1  -7  -6  124.42    6.29
   1  -7  -4   81.45    5.01
  -1  -7  -8   36.83    3.70
  -1  -7 -10   33.87    3.71
  -1  -7 -12   24.93    3.47
   2   0 -32   50.63    4.59
   2   0 -30  156.42    7.37
   2   0 -28 1040.56   21.11
   2   0 -26   32.80    3.33
   2   0 -24   39.36    3.31
   2   0 -22    9.23    1.90
   2   0 -20 1442.86   23.39
  -2   0  18  426.61    9.58
   2   0 -18  411.72    9.45
   2   0 -16   47.14    2.84
  -2   0  16   45.56    2.70
   2   0 -14  921.14   15.00
  -2   0  14  921.34   15.05
   2   0 -12 1689.12   23.71
  -2   0  12 1690.62   23.76
   2   0 -10    4.43    1.26
  -2   0  10    4.41    1.04
  -2   0   8 7694.07   93.63
   2   0  -8 7705.58   93.65
   2   0  -6  174.85    3.59
  -2   0   6  172.74    3.54
   2   0  -4 3800.61   45.82
  -2   0   4 3745.62   45.84
  -2   0   2  206.94    3.13
   2   0  -2  210.66    3.13
  -2   0   0  169.90    2.75
   2   0   0  166.70    2.76
  -2   0  -2 1112.58   14.25
   2   0   2 1079.92   14.22
  -2   0  -2 1098.64   14.29
   2   0   4  490.87    7.68
  -2   0  -4  511.92    7.73
  -2   0  -6  830.00   12.26
   2   0   6  828.26   12.23
   2   0   8  921.24   13.88
  -2   0  -8  913.55   13.92
  -2   0 -10 2329.17   31.45
   2   0  10 2309.14   31.37
   2   0  12  968.65   15.80
  -2   0 -12  998.08   15.97
   2   0  14  382.03    8.54
  -2   0 -14  369.09    8.53
  -2   0 -16  441.25    9.99
   2   0  16  461.21   10.09
  -2   0 -18 1875.89   28.81
  -2   0 -20   83.44    4.57
  -2   0 -22  471.52   11.86
  -2   0 -24 1290.83   23.67
  -2   0 -26   25.71    3.14
  -2   0 -28    0.23    2.03
  -2   0 -30  107.12    6.43
   2   1 -33   11.69    2.87
   2  -1 -31  167.01    7.95
   2   1 -31  156.69    7.44
   2   1 -29    6.90    2.20
   2  -1 -29    6.83    2.31
   2   1 -27    8.66    2.26
   2  -1 -27    9.46    2.42
   2   1 -25   76.17    4.56
   2  -1 -25   75.84    4.75
   2   1 -23   17.79    2.46
   2  -1 -23   17.08    2.67
   2   1 -21  200.06    6.60
   2  -1 -21  199.61    6.91
   2  -1 -19    4.62    1.79
   2   1 -19    2.64    1.38
  -2  -1  19    3.19    1.23
   2   1 -17  841.72   14.75
   2  -1 -17  828.29   15.24
  -2   1  17  873.05   15.51
  -2  -1  17  845.52   14.84
   2   1 -15 1703.48   24.85
  -2   1  15 1780.98   25.79
   2  -1 -15 1705.59   25.60
  -2  -1  15 1708.92   24.91
  -2   1  13   88.87    3.57
  -2  -1  13   80.35    3.15
   2   1 -13   83.44    3.17
   2  -1 -13   85.33    3.58
   2  -1 -11  175.41    4.96
   2   1 -11  172.00    4.36
  -2   1  11  178.85    4.88
  -2  -1  11  177.08    4.39
  -2   1   9  705.19   11.68
   2   1  -9  734.59   10.93
  -2  -1   9  726.90   10.91
   2  -1  -9  703.35   11.66
   2   1  -7   29.22    1.45
   2  -1  -7   21.12    1.67
  -2   1   7   23.87    1.63
  -2   1   5  143.74    3.48
   2   1  -5  144.97    2.73
   2   1  -5  141.13    2.33
   2  -1  -3 5172.89   63.30
   2  -1  -1  265.65    4.66
  -2   1   1  255.13    4.63
  -2   1  -1  503.87    7.59
   2  -1   1  502.02    7.57
  -2  -1  -1  497.10    7.11
   2   1   1  502.97    7.15
   2   1   3  472.20    7.28
   2  -1   3  471.49    7.41
  -2  -1  -3  473.62    7.31
  -2   1  -3  465.51    7.41
  -2  -1  -5  624.82    9.76
   2  -1   5  621.78    9.60
   2   1   5  626.31    9.71
  -2   1  -5  625.53    9.56
  -2  -1  -7  247.91    5.49
  -2   1  -7  251.96    5.19
   2   1   7  248.03    5.40
  -2   1  -7  253.67    5.48
  -2   1  -9    2.36    1.20
   2   1   9    0.87    1.03
  -2  -1  -9    1.73    1.21
  -2   1  -9    1.40    0.89
  -2   1 -11  208.03    5.34
   2   1  11  223.28    5.82
  -2   1 -11  215.95    5.65
  -2  -1 -11  220.37    5.75
  -2   1 -13    0.73    1.04
  -2  -1 -13   -0.29    1.43
   2   1  13    2.19    1.03
  -2   1 -13    1.48    1.24
  -2   1 -15  112.43    4.23
  -2  -1 -15  110.24    4.57
   2   1  15  129.44    4.79
  -2   1 -15  120.11    4.60
  -2  -1 -17    9.31    1.82
  -2   1 -17    5.69    1.52
  -2   1 -17    3.36    1.56
  -2   1 -19    2.27    1.20
  -2  -1 -19    2.31    1.57
  -2   1 -19    2.58    1.66
  -2  -1 -21  614.16   13.87
  -2   1 -21  604.96   13.49
  -2  -1 -23   56.46    4.22
  -2   1 -23   58.01    4.13
  -2  -1 -25   58.88    4.37
  -2   1 -25   63.34    4.53
  -2  -1 -27   42.62    4.13
  -2   1 -27   46.19    4.09
  -2   1 -29  114.04    6.47
  -2  -1 -29  113.11    6.54
   2   2 -32    1.51    2.17
   2   2 -30   12.23    2.73
   2  -2 -30   13.98    3.26
   2  -2 -28  197.04    8.39
   2   2 -28  191.94    7.69
   2  -2 -26  173.84    7.53
   2   2 -26  172.61    7.01
   2  -2 -24   17.94    2.86
   2   2 -24   19.84    2.61
   2   2 -22  123.46    5.26
   2  -2 -22  117.71    5.70
   2   2 -22  123.26    4.76
   2  -2 -20  430.82   10.93
   2   2 -20  421.65    9.95
   2   2 -20  424.68    9.23
   2  -2 -18    9.89    2.20
   2   2 -18    6.35    1.22
   2   2 -18    4.93    1.38
   2   2 -16  155.63    4.94
  -2   2  16  160.58    5.74
   2  -2 -16  160.09    5.71
   2   2 -16  159.50    4.48
  -2   2  14   41.95    2.75
   2   2 -14   43.88    2.48
   2   2 -14   46.44    2.18
   2  -2 -14   43.50    3.00
   2   2 -12  813.89   12.37
   2   2 -12  838.46   13.30
  -2   2  12  852.06   14.69
   2   2 -10   45.98    2.13
  -2   2  10   47.21    2.68
   2   2 -10   42.61    1.72
   2   2  -8    6.23    0.62
  -2   2   8   11.29    1.58
   2   2  -6   66.02    1.78
  -2  -2   6   62.84    1.75
   2  -2  -6   62.09    2.77
  -2   2   6   65.86    2.77
  -2  -2   4    8.72    0.71
   2  -2  -4    9.49    1.39
   2   2  -4    9.45    0.75
  -2   2   2   21.50    1.55
  -2  -2   2   26.06    1.21
   2  -2  -2   22.39    1.73
   2  -2   0  159.45    3.98
  -2   2   0  165.94    4.01
  -2  -2   0  166.31    3.54
   2  -2   2  140.66    3.64
  -2   2  -2  143.17    3.66
   2   2   2  134.18    3.41
   2  -2   4   64.74    2.46
   2   2   4   64.59    2.50
  -2   2  -4   66.12    2.42
   2  -2   6   62.20    2.49
   2   2   6   64.94    2.69
  -2  -2  -6   60.62    2.70
  -2   2  -6   62.67    2.49
  -2  -2  -8   38.31    2.44
   2  -2   8   37.90    2.06
   2   2   8   39.82    2.31
  -2   2  -8   37.05    2.02
   2   2  10  244.89    6.29
   2  -2  10  231.41    5.61
  -2   2 -10  235.06    5.68
  -2   2 -10  232.82    6.05
  -2  -2 -10  240.80    6.29
  -2  -2 -12  548.60   11.19
  -2   2 -12  554.28   10.39
  -2   2 -12  570.20   11.01
   2   2  12  571.48   11.28
   2   2  14   45.34    2.92
  -2  -2 -14   46.08    3.12
  -2   2 -14   44.77    2.87
  -2   2 -14   44.78    2.64
  -2   2 -16   28.95    2.34
  -2   2 -16   30.88    2.66
  -2  -2 -16   33.13    2.85
  -2   2 -18   45.10    3.27
  -2  -2 -18   47.92    3.61
  -2   2 -18   50.55    3.09
  -2  -2 -20   40.07    3.50
  -2   2 -20   26.55    2.66
  -2  -2 -22   -0.86    1.90
  -2   2 -22   -2.18    1.89
  -2   2 -24   72.70    4.82
  -2  -2 -24   84.73    5.29
  -2  -2 -26   96.29    5.87
  -2   2 -26   97.25    5.67
  -2   2 -28   76.66    5.27
  -2  -2 -28   78.03    5.64
  -2   2 -30    2.71    2.25
   2   3 -31  353.46   11.47
   2   3 -29   15.19    2.83
   2   3 -27   12.24    2.54
   2   3 -25  295.06    9.13
   2   3 -23   97.69    4.90
   2   3 -21  392.41    9.91
   2   3 -21  384.09    8.77
   2   3 -19    3.17    1.05
   2   3 -19   -1.66    1.61
   2   3 -17  216.70    6.41
   2   3 -17  209.26    5.44
   2   3 -15  662.86   12.17
   2   3 -15  633.36   10.85
   2   3 -13    1.85    1.05
   2   3 -13    1.20    0.70
  -2   3  11  916.28   16.07
   2   3 -11  896.47   14.28
   2   3 -11  861.94   13.05
   2   3  -9 1233.89   17.17
   2  -3  -9 1220.41   19.88
  -2  -3   9 1255.78   17.21
  -2   3   9 1268.00   20.13
  -2   3   7  865.92   14.76
  -2  -3   7  849.80   12.25
   2  -3  -7  841.60   14.57
   2   3  -7  831.88   12.24
   2  -3  -5  396.99    8.41
  -2  -3   5  393.51    6.81
   2  -3  -3  185.09    5.18
  -2  -3   3  186.38    4.19
   2  -3  -1  683.41   11.75
  -2  -3   1  684.77   10.87
  -2   3   1  696.20   11.82
   2  -3   1  154.41    4.42
  -2  -3  -1  160.21    4.18
  -2   3  -1  147.67    4.34
  -2   3  -3   41.34    2.24
   2   3   3   41.48    2.27
   2  -3   3   38.18    2.18
   2   3   5 3870.77   50.27
  -2   3  -5 3865.07   49.83
  -2   3  -7   80.74    3.16
   2  -3   7   83.55    3.19
   2   3   7   87.73    3.65
   2   3   9   77.07    3.54
   2  -3   9   77.59    3.18
  -2   3  -9   72.65    3.10
   2   3  11  105.77    4.41
  -2   3 -11  100.42    3.78
   2  -3  11   98.65    3.76
  -2  -3 -13  783.49   15.12
  -2   3 -13  815.97   14.94
  -2   3 -13  801.46   14.04
  -2   3 -15  207.41    6.65
  -2   3 -15  210.45    6.19
  -2  -3 -15  211.63    7.04
  -2   3 -17  173.17    5.77
  -2   3 -17  174.22    6.31
  -2  -3 -17  180.16    6.78
  -2   3 -19  231.31    7.76
  -2  -3 -19  229.07    8.12
  -2   3 -21  318.45    9.57
  -2  -3 -21  305.80    9.92
  -2   3 -23   46.56    3.90
  -2  -3 -23   47.46    4.26
  -2  -3 -25    2.11    2.41
  -2   3 -25    3.78    2.06
  -2   3 -27  117.09    6.42
  -2  -3 -27  135.29    7.32
  -2   3 -29  305.06   10.95
   2   4 -28  109.81    6.04
   2   4 -26   35.68    3.48
   2   4 -24   43.75    3.59
   2   4 -22   25.82    2.72
   2   4 -20  160.65    6.14
   2   4 -18   22.27    2.42
   2   4 -16    2.29    1.16
   2   4 -16    2.70    0.98
   2  -4 -16    6.97    2.08
   2   4 -14   72.49    2.91
   2   4 -14   70.39    3.42
   2  -4 -14   73.96    4.32
   2   4 -12  672.04   11.06
   2  -4 -12  662.29   14.13
  -2  -4  10  187.06    4.59
   2  -4 -10  179.36    6.40
   2   4 -10  183.97    4.55
   2   4  -8  122.25    3.56
  -2  -4   8  123.05    3.57
   2  -4  -8  114.16    4.91
   2  -4  -6  477.53   10.69
  -2  -4   6  486.59    8.75
   2  -4  -4   28.67    2.48
  -2  -4   4   26.83    1.74
   2  -4  -2  174.72    5.49
  -2  -4   2  178.69    4.79
   2  -4   0  158.75    5.10
  -2  -4   0  150.59    4.58
  -2  -4  -2  159.60    4.88
   2  -4   2  156.52    4.98
   2   4   2  157.96    5.00
  -2   4  -2  157.83    5.01
  -2  -4  -4  379.74    8.56
   2   4   4  391.87    8.75
   2  -4   4  375.54    8.32
  -2   4  -4  381.63    8.41
  -2   4  -6  576.98   11.12
  -2  -4  -6  572.93   11.66
   2  -4   6  591.10   11.22
   2   4   6  593.32   11.83
   2  -4   8   71.97    3.29
   2   4   8   71.82    3.76
  -2   4  -8   66.40    3.22
   2  -4  10   96.95    3.92
  -2   4 -10   91.30    3.81
  -2   4 -12   23.84    2.11
   2  -4  12   21.38    2.10
  -2   4 -14  164.66    5.54
  -2   4 -14  176.91    6.36
  -2   4 -16  259.86    7.34
  -2   4 -16  274.55    8.33
  -2   4 -18  217.61    7.62
  -2   4 -20   24.92    3.03
  -2   4 -22   22.30    3.09
  -2   4 -24  331.81   10.77
  -2   4 -26   55.93    4.82
   2   5 -23    4.30    1.83
   2  -5 -21   52.89    4.75
   2   5 -21   54.38    4.03
   2   5 -19   71.45    4.23
   2  -5 -19   74.63    5.21
   2   5 -17    1.09    1.19
   2  -5 -17    5.78    2.28
   2  -5 -15   12.78    2.49
   2   5 -15   11.00    1.78
   2  -5 -13  108.40    5.67
   2  -5 -11   38.01    3.43
  -2  -5  11   46.88    2.41
  -2  -5   9   -0.59    0.82
   2  -5  -9   -0.79    1.75
  -2  -5   7    4.32    0.96
   2  -5  -7    5.98    2.02
  -2  -5   5   50.36    2.67
   2  -5  -5   50.40    3.57
   2  -5  -3  213.09    6.86
  -2  -5   3  209.53    5.81
   2  -5  -1  148.59    5.52
  -2  -5   1  139.54    4.81
   2  -5   1    7.90    1.61
   2   5   1   10.93    1.83
  -2  -5  -1    9.58    1.71
  -2  -5  -3  187.39    6.11
   2  -5   3  183.39    5.99
  -2   5  -5    2.78    1.32
   2  -5   5    2.55    1.36
  -2  -5  -5    4.61    1.74
  -2  -5  -7   71.05    4.04
   2  -5   7   74.80    3.73
  -2   5  -7   75.18    3.75
  -2  -5  -9  379.86   10.15
  -2   5  -9  384.95    9.21
   2  -5   9  387.78    9.23
  -2  -5 -11   18.19    2.54
   2  -5  11   18.48    2.11
  -2  -5 -13   26.47    3.07
   2  -5  13   31.65    2.61
  -2   5 -15   59.31    4.06
  -2   5 -17    3.15    1.68
  -2   5 -19    4.85    1.79
  -2   5 -21   18.22    2.93
  -2   5 -23   23.10    3.28
  -2   5 -25  218.61    9.06
   2  -6 -16   46.48    4.37
   2  -6 -14   77.30    5.25
   2  -6 -12  133.23    6.64
   2  -6 -10   98.24    5.50
   2  -6  -8   27.07    3.16
   2  -6  -6   77.13    4.66
  -2  -6   4  819.41   14.68
   2  -6  -4  762.25   16.36
   2  -6  -2   65.65    4.16
  -2  -6   2   78.03    3.82
   2  -6   0   22.04    2.52
  -2  -6   0   22.68    2.33
  -2  -6  -2  314.13    8.76
   2  -6   2  320.18    9.02
   2  -6   4   43.56    3.23
  -2  -6  -4   41.04    3.27
   2  -6   6    4.96    1.50
  -2  -6  -6    4.52    1.84
   2  -6   8   87.54    4.38
  -2  -6  -8   79.63    4.70
   2  -6  10  162.57    5.96
  -2  -6 -10  154.11    6.86
  -2  -6 -12    4.11    1.97
  -2  -6 -14   -0.51    1.95
  -2  -6 -16   91.64    5.84
  -2   6 -16   96.61    5.57
  -2   6 -18  207.29    8.38
   2  -7 -11   37.14    4.03
   2  -7  -9  133.97    6.82
   2  -7  -7    1.63    1.92
   2  -7  -5   53.14    4.28
   2  -7  -3   97.23    5.48
  -2  -7  -9   36.31    3.71
   3   0 -33    3.36    2.27
   3   0 -31    2.35    2.20
   3   0 -29    1.63    1.98
   3   0 -27    1.10    1.93
   3   0 -25    0.08    1.69
   3   0 -23    1.16    1.71
   3   0 -21    2.77    1.62
  -3   0  19    1.86    1.21
   3   0 -19   -1.27    1.43
  -3   0  17    0.90    1.04
   3   0 -17    0.62    1.31
   3   0 -15    1.62    1.25
  -3   0  15   -1.40    1.23
   3   0 -13   -0.99    1.27
  -3   0  13    0.37    0.96
  -3   0  11   -0.92    0.94
   3   0 -11    0.66    1.05
   3   0  -9   -0.49    1.05
  -3   0   9    1.12    0.87
   3   0  -7    0.37    0.92
  -3   0   7    0.46    0.74
   3   0  -5    1.30    0.82
  -3   0   5    1.21    0.70
   3   0  -3    5.46    0.68
  -3   0   3    4.06    0.64
  -3   0   1    0.93    0.48
   3   0  -1    0.83    0.55
   3   0   1    0.80    0.70
  -3   0  -1    0.28    0.59
  -3   0  -3    1.02    0.86
  -3   0  -3    0.84    0.89
  -3   0  -5    1.54    1.03
   3   0   5    0.63    0.89
   3   0   7    1.74    1.02
  -3   0  -7    4.74    1.45
   3   0   9    0.47    0.91
  -3   0  -9    1.69    1.16
   3   0  11    0.28    0.96
  -3   0 -11    0.68    1.23
   3   0  13    1.28    1.15
  -3   0 -13    0.48    1.22
  -3   0 -15    1.68    1.46
   3   0  15   -0.60    1.13
  -3   0 -17   -1.46    1.51
  -3   0 -19   -0.05    1.69
  -3   0 -21    1.95    1.82
  -3   0 -23    5.01    2.09
  -3   0 -25   -0.54    1.80
  -3   0 -27    2.22    2.13
  -3   0 -29   -0.70    2.42
   3   1 -32  365.84   11.82
   3  -1 -32  357.30   11.99
   3  -1 -30    3.32    2.48
   3   1 -30    5.63    2.34
   3  -1 -28   68.32    4.84
   3   1 -28   63.91    4.53
   3   1 -26   13.54    2.42
   3  -1 -26   21.27    2.97
   3  -1 -24  485.22   12.23
   3   1 -24  504.30   11.82
   3  -1 -22  531.67   12.41
   3   1 -22  540.33   11.85
   3   1 -20   25.11    2.49
   3  -1 -20   20.43    2.54
  -3  -1  20   21.03    2.18
   3   1 -18   83.97    3.77
   3  -1 -18   81.50    4.01
  -3  -1  18   80.77    3.67
  -3   1  18   78.10    3.89
   3  -1 -16 1856.27   27.70
  -3  -1  16 1868.87   26.90
   3   1 -16 1879.62   26.84
  -3   1  16 1896.76   27.81
  -3  -1  14  549.31   10.07
   3   1 -14  561.90   10.08
  -3   1  14  566.69   10.81
   3  -1 -14  546.52   10.73
  -3  -1  12    2.78    0.96
   3  -1 -12    5.72    1.54
  -3   1  12    1.24    1.10
   3   1 -12    7.57    1.21
  -3   1  10  268.71    6.03
  -3  -1  10  263.73    5.26
   3  -1 -10  263.88    6.04
   3   1 -10  264.65    5.25
   3   1  -8 1912.87   24.55
  -3   1   8 1910.23   25.84
  -3  -1   8 1906.47   24.55
   3   1  -6 9699.15  115.51
   3  -1  -6 9616.57  117.07
  -3   1   6 9596.36  117.00
   3  -1  -4 9953.15  120.55
  -3   1   4 9999.00  120.47
   3  -1  -2   49.10    1.99
  -3   1   2   49.19    1.88
  -3  -1   0 4476.52   54.15
  -3   1   0 4509.53   55.31
   3   1   0 4503.29   54.13
   3  -1   0 4495.26   55.33
  -3  -1  -2  130.27    2.83
   3  -1   2  127.18    3.23
  -3   1  -2  131.11    3.18
   3   1   2  127.33    2.80
   3  -1   4  180.37    4.11
  -3  -1  -4  170.52    3.83
  -3   1  -4  176.43    4.06
   3   1   4  173.09    3.85
   3  -1   6 1566.57   21.60
  -3   1  -6 1590.43   21.58
   3   1   6 1561.00   21.60
  -3  -1  -6 1580.94   21.61
  -3   1  -8 1521.22   21.83
  -3   1  -8 1535.35   21.50
  -3  -1  -8 1513.19   21.67
   3   1   8 1551.42   21.75
  -3   1 -10  697.09   11.83
   3   1  10  691.73   12.01
  -3  -1 -10  689.04   12.04
  -3   1 -10  692.75   12.09
  -3   1 -12   21.70    2.10
  -3   1 -12   23.23    1.88
   3   1  12   23.35    1.99
  -3  -1 -12   21.90    2.16
  -3   1 -14  205.98    6.14
   3   1  14  222.46    6.35
  -3   1 -14  213.43    6.00
  -3  -1 -14  199.78    6.13
  -3  -1 -16  544.73   11.81
  -3   1 -16  573.47   11.55
   3   1  16  590.77   12.08
  -3   1 -16  548.39   11.74
  -3  -1 -18  189.05    6.64
  -3   1 -18  195.84    6.39
  -3   1 -18  190.95    6.60
  -3   1 -20  629.49   13.77
  -3  -1 -20  625.52   13.92
  -3  -1 -22    4.36    1.93
  -3   1 -22    3.40    1.66
  -3  -1 -24  236.83    8.60
  -3   1 -24  225.80    8.31
  -3   1 -26   42.44    4.01
  -3  -1 -26   41.13    3.95
  -3  -1 -28   66.68    5.01
  -3   1 -28   66.04    5.00
  -3   1 -30  254.29   10.05
   3   2 -33  245.19    9.69
   3   2 -31   19.27    2.85
   3   2 -29    6.12    2.27
   3  -2 -29    4.81    2.47
   3  -2 -27  368.47   11.33
   3   2 -27  349.07   10.31
   3   2 -25  373.95   10.16
   3  -2 -25  375.78   11.12
   3   2 -23  116.05    5.14
   3   2 -23  109.76    4.50
   3  -2 -23  113.25    5.72
   3  -2 -21   99.82    5.02
   3   2 -21   88.71    3.78
   3   2 -21   93.58    4.33
   3  -2 -19  198.60    6.90
   3   2 -19  199.09    5.51
   3   2 -19  215.61    6.30
   3   2 -17  353.90    7.38
   3   2 -17  368.12    8.20
   3  -2 -17  349.17    9.06
   3   2 -15   74.98    2.72
   3   2 -15   75.14    3.16
  -3   2  15   74.59    3.75
   3   2 -13  981.12   14.30
   3   2 -13 1005.59   15.32
  -3   2  13 1021.48   17.07
   3   2 -11 1266.43   17.82
  -3   2  11 1268.77   19.64
   3   2 -11 1227.86   16.76
   3   2  -9  103.57    2.33
   3   2  -9  109.63    2.97
  -3   2   9  107.76    3.89
   3  -2  -7  774.83   12.64
   3   2  -7  736.96    9.92
  -3   2   7  787.37   12.68
   3  -2  -5   22.28    1.87
  -3  -2   5   23.45    0.89
  -3   2   3  518.67    9.15
   3  -2  -3  527.51    9.22
  -3  -2   3  522.83    7.37
   3  -2  -1   70.28    2.72
  -3   2   1   72.27    2.68
   3   2   1  268.29    5.02
   3  -2   1  259.84    5.58
  -3   2  -1  273.30    5.70
   3   2   3  415.84    7.29
  -3   2  -3  419.44    7.68
   3  -2   3  411.96    7.68
   3  -2   5 2226.54   29.61
  -3   2  -5 2192.26   29.61
   3   2   5 2212.21   29.46
  -3  -2  -5 2214.03   29.51
  -3   2  -7    6.05    1.25
   3  -2   7    5.09    1.15
  -3  -2  -7    4.02    1.33
   3   2   7    4.33    1.12
   3   2   9 1072.47   16.82
  -3   2  -9 1059.07   16.40
  -3  -2  -9 1044.97   16.74
   3  -2   9 1041.03   16.31
  -3   2 -11  606.48   11.61
  -3  -2 -11  585.92   11.52
   3   2  11  611.96   11.61
  -3   2 -11  603.99   11.12
  -3   2 -13   57.26    2.96
   3   2  13   50.18    3.04
  -3  -2 -13   49.92    3.19
  -3   2 -13   53.45    3.14
  -3  -2 -15    1.69    1.63
  -3   2 -15    2.07    1.25
  -3   2 -15    4.98    1.63
  -3  -2 -17  126.72    5.42
  -3   2 -17  127.04    4.93
  -3   2 -17  117.01    5.14
  -3   2 -19  614.07   13.66
  -3  -2 -19  640.14   14.13
  -3  -2 -21    5.86    2.21
  -3   2 -21    0.71    1.59
  -3   2 -23   27.93    3.16
  -3  -2 -23   31.11    3.48
  -3  -2 -25  403.92   12.17
  -3   2 -25  411.04   11.96
  -3  -2 -27  237.61    9.44
  -3   2 -27  233.32    9.06
  -3   2 -29  118.20    6.81
   3   3 -32   11.24    2.64
   3   3 -30   86.70    5.47
   3   3 -28  155.82    6.92
   3   3 -26  100.25    5.30
   3   3 -24    0.84    1.53
   3   3 -22   15.70    1.75
   3   3 -22   13.84    2.11
   3   3 -20   21.53    1.82
   3   3 -20   20.02    2.16
   3   3 -18    3.33    1.00
   3   3 -18    2.13    1.23
   3   3 -16  113.36    4.24
   3   3 -16  107.42    3.40
   3   3 -14   15.48    1.62
   3   3 -14   18.34    1.28
   3   3 -12  437.76    7.46
   3   3 -12  462.82    8.73
   3  -3 -12  449.80   10.24
  -3   3  12  487.48   10.63
   3  -3 -10  151.32    5.29
  -3   3  10  161.84    5.41
   3   3 -10  147.13    3.32
   3   3  -8   25.51    1.25
  -3   3   8   24.68    2.22
  -3  -3   8   26.02    1.25
   3  -3  -8   24.64    2.25
   3  -3  -6  129.39    4.54
  -3  -3   6  135.15    3.06
   3  -3  -4    3.06    1.33
  -3  -3   4    1.33    0.58
   3  -3  -2    2.47    1.15
  -3   3   2    3.14    1.06
  -3  -3   2    4.70    0.83
  -3   3   0  234.18    5.85
   3  -3   0  228.93    5.77
   3   3   0  221.07    5.11
  -3  -3   0  232.76    5.07
  -3   3  -2   23.17    1.87
   3   3   2   23.81    1.73
   3  -3   2   23.58    1.97
   3   3   4  269.40    6.20
   3  -3   4  266.48    6.30
  -3   3  -4  256.13    6.22
   3  -3   6  490.51    9.42
   3   3   6  490.17    9.58
  -3   3  -6  472.27    9.33
  -3   3  -8  297.28    7.03
   3  -3   8  300.22    7.03
   3   3   8  303.11    7.34
  -3   3 -10  170.53    5.15
   3  -3  10  172.41    5.18
   3   3  10  179.87    5.69
   3  -3  12    4.27    1.41
   3   3  12    3.35    1.29
  -3  -3 -12    6.29    1.80
  -3   3 -12    3.05    1.12
  -3  -3 -14    3.24    1.79
  -3   3 -14    2.77    1.15
  -3   3 -14    1.17    1.34
  -3   3 -16   34.79    2.96
  -3   3 -16   39.20    2.77
  -3  -3 -16   44.06    3.51
  -3  -3 -18   41.77    3.57
  -3   3 -18   43.10    3.39
  -3   3 -20  104.00    5.40
  -3  -3 -20  114.38    5.93
  -3   3 -22   55.98    4.23
  -3  -3 -22   56.26    4.49
  -3  -3 -24  202.47    8.45
  -3   3 -24  190.27    7.92
  -3  -3 -26   28.95    3.77
  -3   3 -26   22.03    3.23
  -3   3 -28    3.55    1.99
   3   4 -27   26.16    2.93
   3   4 -25  192.99    7.28
   3   4 -23   -0.28    1.57
   3   4 -21   62.12    3.74
   3   4 -19  359.68    9.10
   3  -4 -19  349.45   10.66
   3   4 -17   86.48    3.96
   3  -4 -17   85.03    4.98
   3   4 -17   81.18    3.00
   3  -4 -15  100.37    5.15
   3   4 -15   87.67    2.96
   3   4 -15   99.21    4.02
   3   4 -13   49.25    2.12
   3  -4 -13   47.32    3.62
   3   4 -13   51.94    2.81
  -3  -4  11  110.16    3.18
   3  -4 -11  101.83    4.88
   3   4 -11  110.06    3.13
  -3  -4   9   77.88    2.58
   3  -4  -9   80.99    4.23
   3  -4  -7   90.74    4.35
  -3  -4   7   99.45    3.01
   3  -4  -5  296.99    7.96
  -3  -4   5  291.09    5.99
   3  -4  -3  526.72   10.96
  -3  -4   3  528.63    9.33
   3  -4  -1   45.23    2.84
  -3  -4   1   47.18    2.41
   3  -4   1  287.63    7.26
  -3  -4  -1  286.57    6.68
  -3   4  -1  282.70    7.28
   3   4   1  287.13    6.83
   3   4   3    4.08    1.17
  -3  -4  -3    6.43    1.46
   3  -4   3    4.68    1.23
  -3   4  -3    2.53    1.14
   3  -4   5  117.41    4.42
  -3  -4  -5  117.47    4.52
  -3   4  -5  118.55    4.40
   3   4   5  124.02    4.54
   3   4   7  286.25    7.61
  -3   4  -7  285.44    7.30
   3  -4   7  287.25    7.30
   3  -4   9    1.11    1.09
   3   4   9    0.61    1.31
  -3   4  -9    1.59    1.07
   3  -4  11  845.04   15.08
  -3   4 -11  819.34   14.92
  -3   4 -13   65.23    3.52
   3  -4  13   61.13    3.38
  -3   4 -15    8.01    1.89
  -3   4 -17  206.61    7.55
  -3   4 -19  324.99    9.93
  -3   4 -21  244.93    8.80
  -3   4 -23    2.04    1.97
  -3   4 -25   87.71    5.68
   3  -5 -22  276.35   10.49
   3   5 -20    5.02    1.69
   3  -5 -20    0.67    1.84
   3  -5 -18    6.05    2.27
   3   5 -18    4.36    1.51
   3   5 -16  323.52    8.52
   3  -5 -16  316.12   10.37
   3  -5 -14   73.19    4.90
   3   5 -14   79.04    3.85
  -3  -5  12   43.48    2.14
   3  -5 -12   43.21    3.71
  -3  -5  10    1.93    0.85
   3  -5 -10    1.52    1.72
  -3  -5   8  483.49    8.90
   3  -5  -8  462.62   11.70
  -3  -5   6  858.33   13.83
   3  -5  -6  811.22   16.47
   3  -5  -4   81.91    4.33
  -3  -5   4   79.86    3.28
  -3  -5   2 1007.57   16.32
   3  -5  -2  971.59   17.91
   3  -5   0 1081.00   18.82
  -3  -5   0 1080.64   17.70
   3   5   0 1061.16   18.09
   3  -5   2  109.46    4.68
   3   5   2  111.09    4.56
  -3  -5  -2  108.89    4.45
   3  -5   4    3.35    1.39
  -3  -5  -4    1.65    1.34
   3  -5   6   67.27    3.69
  -3  -5  -6   62.09    3.68
  -3  -5  -8  160.07    6.14
   3  -5   8  161.89    5.73
   3  -5  10  281.23    7.81
  -3  -5 -10  272.44    8.56
  -3  -5 -12  171.91    6.88
   3  -5  12  177.61    6.14
   3  -5  14  314.74    8.64
  -3   5 -16  313.11    9.84
  -3   5 -18   18.71    2.84
  -3   5 -20  147.64    6.98
  -3   5 -22    9.78    2.79
   3  -6 -17   30.53    3.68
   3  -6 -15   26.04    3.33
   3  -6 -13    0.41    2.07
   3  -6 -11   10.36    2.52
   3  -6  -9  220.06    8.29
   3  -6  -7   37.98    3.47
   3  -6  -5   41.71    3.57
   3  -6  -3   54.48    3.90
  -3  -6   3   57.30    3.14
  -3  -6   1  258.13    7.24
   3  -6  -1  244.00    8.12
  -3  -6  -1    4.59    1.58
   3  -6   1    5.42    1.84
   3  -6   3    9.88    1.98
  -3  -6  -3   10.83    1.84
  -3  -6  -5    7.68    1.75
   3  -6   5    9.78    2.01
  -3  -6  -7    2.23    1.75
   3  -6   7    1.40    1.82
  -3  -6  -9   11.56    2.26
   3  -6   9   14.48    2.15
  -3  -6 -11    3.50    1.93
  -3  -6 -13   98.71    5.79
  -3   6 -15  114.23    6.13
  -3  -6 -15  113.08    6.37
  -3   6 -17   59.72    4.60
  -3   6 -19    3.69    1.92
   3  -7 -10   14.17    2.91
   3  -7  -8   36.53    3.93
   3  -7  -6  113.00    6.18
   3  -7  -4  217.27    8.43
   3  -7  -2    7.89    2.14
   3  -7   0  113.08    5.82
   4   0 -32  365.55   11.84
   4   0 -30    4.84    2.06
   4   0 -28   12.53    2.50
   4   0 -26  162.76    6.69
   4   0 -24  343.29    9.57
   4   0 -22  165.57    6.10
   4   0 -20   64.25    3.60
  -4   0  20   70.38    3.65
  -4   0  18 1532.74   23.52
   4   0 -18 1521.42   23.47
   4   0 -16   12.93    1.72
  -4   0  16   15.57    1.69
   4   0 -14   92.52    3.51
  -4   0  14   94.05    3.49
   4   0 -12  318.71    6.61
  -4   0  12  317.65    6.56
   4   0 -10 1404.10   19.39
  -4   0  10 1388.38   19.33
   4   0  -8  941.41   13.28
  -4   0   8  934.45   13.31
   4   0  -6 7746.50   93.32
  -4   0   6 7726.16   93.29
  -4   0   4  103.18    2.43
   4   0  -4  114.75    2.48
  -4   0   2 3012.88   37.17
   4   0  -2 3026.83   37.17
  -4   0   0    5.53    0.90
   4   0   0    4.66    0.92
   4   0   2 1202.38   16.30
  -4   0  -2 1197.47   16.27
  -4   0  -4 2257.13   29.65
  -4   0  -4 2302.67   29.56
   4   0   6 2581.50   33.87
  -4   0  -6 2599.47   33.92
  -4   0  -6 2602.37   33.87
  -4   0  -8 1762.96   24.42
  -4   0  -8 1751.22   24.45
   4   0   8 1733.10   24.36
  -4   0 -10    2.99    1.23
   4   0  10    3.67    1.13
   4   0  12 5811.87   74.56
  -4   0 -12 5875.17   74.62
  -4   0 -14  836.28   15.25
   4   0  14  871.41   15.34
  -4   0 -16  173.71    6.04
   4   0  16  180.16    6.02
  -4   0 -18  527.92   11.98
  -4   0 -20 1359.46   23.58
  -4   0 -22  153.37    6.63
  -4   0 -24  364.57   10.95
  -4   0 -26  252.15    9.32
  -4   0 -28  219.85    9.12
   4   1 -33   65.22    5.00
   4   1 -31   39.21    3.89
   4  -1 -31   48.12    4.41
   4   1 -29   46.32    4.00
   4  -1 -29   48.42    4.32
   4  -1 -27  236.78    8.55
   4   1 -27  221.85    7.93
   4   1 -25    6.10    1.85
   4  -1 -25    8.26    2.44
   4   1 -23   72.68    4.04
   4  -1 -23   76.82    4.46
   4  -1 -21  351.85    9.37
   4   1 -21  357.40    8.88
  -4  -1  21  362.72    8.96
   4  -1 -19  134.53    5.26
   4   1 -19  125.36    4.71
  -4   1  19  134.36    5.20
  -4  -1  19  127.79    4.69
  -4   1  17  167.20    5.54
  -4  -1  17  163.54    5.02
   4  -1 -17  159.60    5.43
   4   1 -17  158.07    4.99
   4  -1 -15   28.23    2.32
  -4   1  15   34.46    2.42
   4   1 -15   30.09    2.07
  -4  -1  15   30.46    2.04
  -4  -1  13 1140.59   16.87
   4  -1 -13 1144.71   17.94
   4   1 -13 1147.20   16.85
  -4   1  13 1164.57   18.07
  -4  -1  11   51.05    2.07
  -4   1  11   49.25    2.55
   4   1 -11   52.54    2.14
   4  -1 -11   53.05    2.68
  -4   1   9   46.36    2.34
  -4  -1   9   48.33    1.75
   4   1  -9   47.28    1.81
   4   1  -7 9632.38  115.20
   4  -1  -7 9563.90  117.11
  -4   1   7 9687.73  116.98
  -4  -1   7 9605.19  115.21
   4  -1  -5   61.17    2.35
  -4   1   5   58.54    2.28
  -4   1   3  284.19    5.49
   4  -1  -3  291.19    5.55
  -4   1   1    7.96    1.14
  -4  -1   1    9.69    0.60
   4   1  -1    9.57    0.57
   4  -1  -1    6.54    1.20
  -4   1  -1   30.99    1.64
   4  -1   1   29.72    1.78
   4   1   1   31.98    1.26
  -4  -1  -1   30.07    1.26
   4   1   3  141.15    3.32
  -4   1  -3  147.92    3.76
   4  -1   3  147.24    3.83
  -4  -1  -3  144.93    3.37
   4  -1   5   24.74    1.84
  -4  -1  -5   25.98    1.71
   4   1   5   25.37    1.62
  -4   1  -5   25.40    1.65
  -4   1  -7  850.15   13.55
   4  -1   7  823.64   13.33
  -4  -1  -7  850.58   13.30
   4   1   7  841.45   13.25
  -4   1  -7  859.72   13.46
  -4   1  -9 1326.76   19.71
  -4   1  -9 1344.67   20.01
   4   1   9 1350.45   19.81
  -4  -1  -9 1299.18   19.75
   4   1  11   14.05    1.67
  -4   1 -11   11.09    1.61
  -4   1 -11   10.70    1.48
  -4  -1 -11   13.03    1.83
  -4   1 -13  100.44    4.03
  -4   1 -13   98.54    4.23
  -4  -1 -13  107.36    4.38
   4   1  13  109.68    4.31
  -4   1 -15  185.30    6.15
  -4   1 -15  191.65    6.00
  -4  -1 -15  189.12    6.22
   4   1  15  200.27    6.27
  -4  -1 -17    3.10    1.78
  -4   1 -17    0.75    1.54
  -4   1 -19  155.52    6.21
  -4  -1 -19  161.42    6.37
  -4  -1 -21   63.53    4.30
  -4   1 -21   61.25    4.13
  -4   1 -23   17.27    2.77
  -4  -1 -23   14.65    2.58
  -4   1 -25   68.22    4.88
  -4  -1 -25   66.02    4.77
  -4   1 -27   11.24    2.69
  -4  -1 -27    6.18    2.54
  -4   1 -29  108.91    6.56
   4   2 -34   18.87    3.35
   4   2 -32   51.55    4.45
   4  -2 -30    0.66    2.05
   4   2 -30   -1.88    1.91
   4   2 -28   33.26    3.29
   4  -2 -28   43.79    4.12
   4   2 -26   71.33    4.31
   4  -2 -26   73.49    4.92
   4   2 -24   90.64    4.58
   4   2 -24   82.56    3.88
   4  -2 -24   81.76    4.94
   4  -2 -22  134.90    6.02
   4   2 -22  130.30    4.61
   4   2 -22  147.67    5.51
   4   2 -20    3.15    1.03
   4  -2 -20    2.96    1.74
   4   2 -20    3.59    1.46
   4   2 -18  250.33    5.86
   4   2 -18  255.59    6.62
   4   2 -16    2.67    1.06
  -4   2  16    1.68    1.21
   4   2 -16    1.28    0.63
   4   2 -14   96.36    2.79
   4   2 -14  103.92    3.45
  -4   2  14  106.87    4.37
   4   2 -12   12.14    0.89
   4   2 -12    7.78    0.87
  -4   2  12   11.63    1.63
   4  -2 -10  608.21   11.46
   4   2 -10  617.05    8.56
   4   2 -10  637.13    9.69
  -4   2  10  627.66   11.60
  -4   2   8  511.84    9.74
   4  -2  -8  511.40    9.74
   4   2  -8  499.45    7.72
   4  -2  -6  381.03    7.78
  -4  -2   4  253.42    3.76
  -4   2   4  246.86    5.80
   4  -2  -4  256.81    5.89
   4   2  -2  798.25   10.93
  -4   2   2  810.75   12.80
   4  -2  -2  811.71   12.80
  -4   2   0   -0.65    0.95
   4   2   0    1.38    0.61
   4  -2   0    0.52    1.12
   4  -2   2  401.53    7.69
   4   2   2  404.57    6.89
  -4   2  -2  395.29    7.65
  -4  -2  -4   -0.17    0.94
   4   2   4    3.48    1.01
  -4   2  -4    0.91    0.94
   4  -2   4    0.68    1.09
   4   2   6  134.06    3.98
  -4   2  -6  135.41    4.13
  -4  -2  -6  135.69    4.07
   4  -2   6  139.80    4.24
   4  -2   8    4.96    1.24
  -4   2  -8    8.59    1.39
   4   2   8    7.04    1.32
  -4  -2  -8    7.19    1.46
  -4   2 -10    1.11    1.13
  -4  -2 -10    1.21    1.31
   4   2  10    0.32    0.97
   4  -2  10    2.56    1.18
  -4  -2 -12  578.47   11.77
  -4   2 -12  603.85   11.55
   4   2  12  611.24   11.91
  -4   2 -12  575.74   11.78
   4   2  14   40.76    2.83
  -4   2 -14   41.82    2.73
  -4  -2 -14   39.13    3.04
  -4   2 -14   40.90    2.91
  -4  -2 -16   69.51    4.12
  -4   2 -16   73.33    3.78
  -4   2 -16   75.86    4.05
  -4  -2 -18   49.69    3.68
  -4   2 -18   44.71    3.48
  -4   2 -20  306.86    9.30
  -4  -2 -20  316.26    9.62
  -4  -2 -22   28.03    3.26
  -4   2 -22   25.43    3.17
  -4  -2 -24    1.86    2.01
  -4   2 -24    2.37    1.86
  -4  -2 -26   23.32    3.54
  -4   2 -26   18.94    3.00
  -4   2 -28   25.53    3.51
   4   3 -31   57.61    4.49
   4   3 -29  265.79    9.11
   4   3 -27    5.99    2.05
   4   3 -25  229.71    7.65
   4   3 -23  227.13    7.27
   4   3 -21  252.31    7.31
   4   3 -21  244.77    6.11
   4   3 -19  209.00    5.18
   4   3 -19  209.02    6.20
   4   3 -17   39.63    2.46
   4   3 -17   37.52    1.87
   4  -3 -15  626.97   13.21
   4   3 -15  630.87   11.26
   4   3 -15  610.81    9.67
   4  -3 -13  994.18   18.05
   4   3 -13 1007.61   14.00
   4   3 -13 1049.34   15.73
   4  -3 -11  123.57    4.88
  -4   3  11  120.79    4.82
   4   3 -11  115.28    2.61
   4   3 -11  127.40    3.65
  -4   3   9  147.33    5.16
   4  -3  -9  151.34    5.22
  -4  -3   7 1754.56   22.12
   4  -3  -7 1721.25   25.94
  -4  -3   5  116.60    2.65
   4  -3  -5  112.19    4.23
   4  -3  -3    9.12    1.42
  -4   3   3    7.79    1.28
  -4  -3   3    9.42    0.90
   4  -3  -1  194.01    5.44
   4   3  -1  193.37    4.44
  -4   3   1  199.69    5.48
  -4  -3   1  199.16    4.39
   4  -3   1 3564.52   46.48
  -4   3  -1 3545.32   46.59
   4   3   1 3496.41   45.14
   4   3   3  255.97    5.79
   4  -3   3  237.74    6.13
  -4   3  -3  243.28    6.16
   4   3   5  118.11    3.93
  -4   3  -5  118.26    4.14
   4  -3   5  114.97    4.13
  -4   3  -7  385.15    8.43
   4   3   7  383.81    8.35
   4  -3   7  391.50    8.46
  -4   3  -9 1102.42   17.92
  -4  -3  -9 1098.84   18.11
   4   3   9 1127.18   18.33
   4  -3   9 1103.52   17.90
   4  -3  11   49.94    2.90
  -4  -3 -11   47.63    3.33
   4   3  11   47.80    3.03
  -4   3 -11   49.56    2.90
  -4   3 -13    9.06    1.71
  -4   3 -13   13.48    1.84
   4  -3  13    9.35    1.61
  -4  -3 -13   14.91    2.21
  -4  -3 -15  486.98   11.63
  -4   3 -15  492.18   11.01
  -4   3 -15  516.71   11.78
  -4  -3 -17   74.29    4.45
  -4   3 -17   74.79    4.39
  -4  -3 -19  166.19    6.94
  -4   3 -19  161.01    6.65
  -4   3 -21   16.92    2.78
  -4  -3 -21   21.48    3.05
  -4   3 -23  675.46   16.00
  -4  -3 -23  661.21   16.21
  -4  -3 -25    8.66    2.77
  -4   3 -25   12.12    2.85
  -4   3 -27    2.15    1.96
   4   4 -26   40.56    3.56
   4   4 -24  125.66    5.52
   4  -4 -24  120.31    6.63
   4  -4 -22  132.75    6.87
   4   4 -22  133.69    5.43
   4  -4 -20    0.48    1.91
   4   4 -20   -0.10    1.38
   4  -4 -18   49.34    4.02
   4   4 -18   55.62    3.21
   4   4 -16   12.59    1.62
   4  -4 -16   14.54    2.45
   4   4 -16   12.29    1.01
   4  -4 -14    9.67    2.16
   4   4 -14   11.63    0.98
   4   4 -14   13.69    1.58
   4   4 -12  296.53    6.82
   4  -4 -12  280.41    8.53
   4  -4 -10  398.39   10.15
  -4  -4  10  411.54    6.76
  -4  -4   8   18.54    1.17
   4  -4  -8   18.21    2.30
   4  -4  -6  151.55    5.55
  -4  -4   6  153.30    3.72
  -4  -4   4  265.86    5.57
   4  -4  -4  265.17    7.39
   4  -4  -2   46.42    2.99
  -4  -4   2   45.93    2.24
   4  -4   0  115.45    4.52
  -4   4   0  120.44    4.62
   4   4   0  111.35    3.86
  -4  -4   0  114.25    3.80
   4   4   2  443.50    9.10
   4  -4   2  448.04    9.79
  -4   4  -2  458.92    9.90
  -4  -4  -2  444.99    9.07
   4  -4   4  541.60   11.13
  -4  -4  -4  540.52   10.75
   4   4   4  558.72   10.85
  -4   4  -4  544.35   11.18
   4  -4   6  266.61    7.18
   4   4   6  271.79    7.17
  -4   4  -6  264.00    7.18
  -4   4  -8   12.70    1.82
   4  -4   8   13.54    1.89
   4   4   8   15.12    1.94
  -4   4 -10   61.03    3.39
   4  -4  10   60.07    3.36
   4  -4  12  559.92   11.78
  -4   4 -12  538.73   11.66
   4  -4  14   89.51    4.33
  -4   4 -14   89.67    4.77
  -4   4 -16  120.60    5.68
  -4   4 -18   39.78    3.56
  -4   4 -20  375.63   11.20
  -4   4 -22  105.59    6.05
  -4   4 -24   52.34    4.61
   4  -5 -21    0.97    1.85
   4   5 -19   11.55    1.79
   4  -5 -19    8.51    2.60
   4   5 -17    0.76    1.11
   4  -5 -17   -1.04    2.13
   4  -5 -15   38.57    3.70
   4   5 -15   37.65    2.63
   4   5 -13   40.68    2.73
   4  -5 -13   33.31    3.36
  -4  -5  11  258.47    5.27
   4  -5 -11  252.31    8.57
   4  -5  -9   34.02    3.18
  -4  -5   9   38.26    1.90
  -4  -5   7  273.08    5.91
   4  -5  -7  261.85    8.33
   4  -5  -5   82.20    4.46
  -4  -5   5   82.63    3.12
   4   5  -3   87.18    3.79
   4  -5  -3   81.17    4.39
  -4  -5   3   89.96    3.44
  -4  -5   1   14.50    1.66
   4  -5  -1   12.30    2.01
   4   5  -1   14.91    1.84
   4  -5   1  149.03    5.73
  -4  -5  -1  155.87    5.19
   4   5   1  155.47    5.31
   4   5   3  129.36    4.95
  -4  -5  -3  125.30    4.84
   4  -5   3  120.72    5.11
  -4  -5  -5  134.26    5.26
   4  -5   5  131.23    5.35
  -4  -5  -7  151.97    5.95
   4  -5   7  164.33    5.96
  -4  -5  -9   14.53    2.13
   4  -5   9   18.09    2.28
   4  -5  11   86.52    4.42
   4  -5  13    1.06    1.30
  -4   5 -15    7.40    1.93
   4  -5  15    9.79    1.79
  -4   5 -17   65.35    4.73
  -4   5 -19   18.75    2.96
  -4   5 -21  134.16    6.95
   4  -6 -16   31.10    3.80
   4  -6 -14   18.13    3.13
   4  -6 -12   -1.62    2.08
   4  -6 -10  166.03    7.38
   4  -6  -8    8.02    2.00
   4  -6  -6   67.68    4.54
   4  -6  -4   54.49    4.02
   4  -6  -2  281.93    9.06
  -4  -6   2  313.60    7.77
  -4  -6   0    3.02    1.36
   4  -6   0    1.86    1.49
   4  -6   2    6.02    1.69
  -4  -6  -2    9.46    1.75
  -4  -6  -4  409.27   10.39
   4  -6   4  407.44   10.83
  -4  -6  -6  121.86    5.63
   4  -6   6  120.18    5.49
  -4  -6  -8    2.66    1.54
   4  -6   8    2.71    1.36
   4  -6  10   43.97    3.40
  -4  -6 -10   33.48    3.46
  -4  -6 -12  277.53    9.66
  -4  -6 -14   41.50    4.07
  -4   6 -16   -0.04    1.88
  -4  -6 -16   -0.26    2.17
  -4   6 -18   65.98    5.07
   4  -7  -9    7.66    2.38
   4  -7  -7  338.80   11.14
   4  -7  -5   72.59    5.04
   4  -7  -3   71.18    4.95
   4  -7  -1   63.37    4.58
   4  -7   1  137.15    6.53
   5   0 -33    3.72    2.35
   5   0 -31   -0.79    1.87
   5   0 -29    0.25    1.74
   5   0 -27   -0.16    1.68
   5   0 -25    0.60    1.79
   5   0 -23    1.37    1.51
   5   0 -21    1.20    1.56
  -5   0  21    1.69    1.22
   5   0 -19    0.74    1.32
  -5   0  19    0.99    1.09
   5   0 -17   -0.50    1.18
  -5   0  17   -0.20    0.95
  -5   0  15   -0.28    0.96
   5   0 -15    1.16    1.19
   5   0 -13    1.47    1.18
  -5   0  13    0.95    0.92
  -5   0  11    1.44    0.94
   5   0 -11    0.45    0.96
  -5   0   9    0.73    0.73
   5   0  -9    1.63    0.99
   5   0  -7    2.84    0.90
  -5   0   7    0.98    0.81
  -5   0   5    3.85    0.75
   5   0  -5    0.06    0.77
  -5   0   3    1.05    0.73
   5   0  -3   -0.22    0.77
  -5   0   1    1.93    0.80
   5   0  -1   -0.46    0.92
  -5   0  -1    0.76    0.80
   5   0   1    0.15    1.01
  -5   0  -3    2.05    1.10
  -5   0  -3    0.59    0.84
   5   0   3    0.19    1.17
  -5   0  -5    0.59    1.12
  -5   0  -5    0.37    0.89
  -5   0  -7    1.65    1.27
  -5   0  -7   -0.42    0.90
  -5   0  -9    2.29    1.37
   5   0   9    2.46    1.14
  -5   0  -9    0.69    0.99
   5   0  11    0.09    1.02
  -5   0 -11   -0.45    1.05
  -5   0 -11   -1.06    1.39
   5   0  13   -0.70    1.13
  -5   0 -13    2.75    1.21
  -5   0 -13    1.09    1.34
   5   0  15    0.13    1.10
  -5   0 -15    3.03    1.31
  -5   0 -15    0.54    1.39
  -5   0 -17   -1.49    1.64
  -5   0 -19    0.25    1.75
  -5   0 -21   -0.70    1.67
  -5   0 -23    1.86    1.88
  -5   0 -25   -0.96    2.09
  -5   0 -27    3.86    2.41
   5   1 -34   50.02    4.58
   5   1 -32   17.26    3.08
   5  -1 -32   14.86    2.91
   5   1 -30   17.87    3.48
   5  -1 -30   20.29    3.30
   5  -1 -28  386.13   11.38
   5   1 -28  390.14   10.98
   5  -1 -26   98.22    5.36
   5   1 -26   87.58    4.78
   5   1 -24   16.97    2.26
   5  -1 -24   16.64    2.72
  -5  -1  22  113.87    4.85
   5  -1 -22  111.75    5.14
   5   1 -22  116.93    4.84
   5  -1 -20  538.70   11.84
   5   1 -20  545.14   11.16
  -5  -1  20  551.20   11.21
   5  -1 -18  251.92    7.17
  -5   1  18  269.31    7.36
   5   1 -18  257.13    6.61
  -5  -1  18  251.26    6.55
   5   1 -16  264.10    6.28
  -5  -1  16  254.14    6.22
   5  -1 -16  270.60    7.05
  -5   1  16  265.23    7.03
   5   1 -14   21.98    1.71
   5  -1 -14   22.29    2.09
  -5   1  14   25.75    2.07
  -5  -1  14   21.44    1.61
   5   1 -12 1165.87   16.53
  -5   1  12 1186.05   17.98
  -5  -1  12 1145.73   16.51
  -5   1  10 1384.78   20.12
   5   1 -10 1393.79   18.51
   5  -1 -10 1380.68   20.01
  -5  -1  10 1368.86   18.49
  -5  -1   8  449.71    6.76
  -5   1   8  477.22    8.35
   5  -1  -8  450.74    8.32
   5   1  -8  455.00    6.40
   5   1  -8  457.89    6.77
   5  -1  -6  669.87   10.83
  -5  -1   6  671.53    8.71
   5   1  -6  677.11    8.71
  -5   1   6  686.93   10.81
  -5  -1   4   16.01    0.65
   5   1  -4   16.18    0.66
  -5   1   4   14.64    1.35
   5  -1  -4   16.17    1.51
  -5  -1   2  295.71    4.71
   5  -1  -2  322.03    6.02
  -5   1   2  309.75    5.93
  -5   1   0  150.04    3.80
  -5  -1   0  151.92    2.89
  -5  -1   0  152.10    3.22
   5  -1   0  149.86    3.91
   5   1   0  147.73    2.84
  -5  -1  -2  645.39    9.66
   5   1   2  659.31    9.63
   5  -1   2  658.53   10.63
  -5   1  -2  661.71   10.54
   5   1   4  119.05    3.22
   5  -1   4  114.45    3.62
  -5  -1  -4  114.33    3.24
  -5   1  -4  113.82    3.58
   5  -1   6  435.60    8.30
  -5   1  -6  432.62    8.28
  -5  -1  -6  419.98    7.96
   5   1   6  423.39    7.88
  -5  -1  -8 1233.44   18.61
  -5   1  -8 1267.02   18.88
  -5   1  -8 1226.26   18.92
   5   1   8 1237.47   18.56
  -5   1 -10   30.53    2.31
  -5   1 -10   32.49    2.21
  -5  -1 -10   27.26    2.16
   5   1  10   30.41    2.20
  -5   1 -12  504.48   10.23
  -5  -1 -12  475.59   10.15
   5   1  12  491.53   10.22
  -5   1 -12  486.85   10.35
  -5   1 -14   22.79    2.35
  -5  -1 -14   21.03    2.22
   5   1  14   21.59    2.10
  -5   1 -14   23.17    2.27
  -5  -1 -16 1717.32   27.08
  -5   1 -16 1726.45   27.13
  -5  -1 -18  288.50    8.59
  -5   1 -18  277.70    8.42
  -5  -1 -20   29.06    3.06
  -5   1 -20   30.27    3.12
  -5   1 -22   36.91    3.53
  -5  -1 -22   31.24    3.36
  -5  -1 -24  498.79   13.41
  -5   1 -24  487.11   13.20
  -5  -1 -26    4.01    2.13
  -5   1 -26    6.66    2.47
  -5  -1 -28   12.43    2.90
  -5   1 -28   16.05    3.19
   5   2 -33   21.21    3.19
   5   2 -31  466.86   12.76
   5   2 -29   14.82    2.57
   5   2 -27  162.36    6.53
   5  -2 -27  165.14    7.35
   5   2 -25   86.10    4.49
   5   2 -25   80.52    3.83
   5   2 -23  287.85    7.23
   5   2 -23  294.06    8.10
   5   2 -21  121.85    4.15
   5   2 -21  128.01    4.85
   5   2 -19   62.00    2.68
   5   2 -19   65.22    3.23
   5   2 -17  934.25   14.09
   5   2 -17  938.17   15.22
   5   2 -15  311.87    5.84
  -5   2  15  341.56    8.45
   5   2 -15  317.66    6.75
   5   2 -13  251.55    4.55
  -5   2  13  262.89    7.06
   5   2 -13  255.16    5.40
   5  -2 -13  255.97    7.00
   5   2 -11 2368.10   29.34
   5   2 -11 2408.36   30.71
   5  -2 -11 2406.06   33.46
  -5   2  11 2429.99   33.53
   5  -2  -9 1245.84   19.43
   5   2  -9 1275.66   16.74
  -5   2   9 1254.05   19.44
   5  -2  -7  431.61    9.07
   5   2  -7  483.61    6.78
  -5   2   5  402.44    8.05
   5  -2  -5  384.42    8.01
   5   2  -3 1846.07   22.97
   5  -2  -3 1848.95   25.76
  -5   2   3 1873.19   25.82
   5  -2  -1 2031.63   27.92
   5   2  -1 2034.99   25.64
  -5   2   1 2038.56   27.93
  -5   2  -1  302.02    6.52
   5   2   1  292.08    5.33
   5  -2   1  293.66    6.49
  -5   2  -3  617.15   10.73
   5  -2   3  604.21   10.77
   5   2   3  608.44    9.75
  -5  -2  -3  603.80    9.77
  -5  -2  -5 3153.06   41.27
   5  -2   5 3205.07   42.06
   5   2   5 3176.98   41.24
  -5   2  -5 3216.80   42.11
   5  -2   7  668.35   11.99
  -5   2  -7  679.56   12.05
   5   2   7  688.90   11.74
  -5  -2  -7  676.81   11.74
   5  -2   9   39.00    2.50
  -5  -2  -9   35.99    2.40
   5   2   9   33.92    2.26
  -5   2  -9   36.86    2.39
  -5   2 -11  108.62    4.45
   5  -2  11  105.44    4.26
  -5  -2 -11  109.92    4.38
   5   2  11  116.72    4.40
  -5   2 -11  117.69    4.43
  -5   2 -13  948.67   16.46
  -5  -2 -13  907.16   16.53
   5   2  13  945.68   16.59
  -5   2 -13  903.73   16.67
  -5  -2 -15  733.97   14.67
  -5   2 -15  744.24   14.29
  -5   2 -15  720.72   14.57
  -5  -2 -17   74.22    4.38
  -5   2 -17   70.24    4.16
  -5  -2 -19  118.27    5.71
  -5   2 -19  106.27    5.34
  -5  -2 -21  632.74   14.89
  -5   2 -21  616.84   14.61
  -5  -2 -23  192.67    7.95
  -5   2 -23  197.12    7.99
  -5  -2 -25    2.35    2.21
  -5   2 -25    1.03    1.95
  -5  -2 -27  123.38    7.00
  -5   2 -27  133.67    7.05
   5   3 -32    4.21    2.19
   5   3 -30   52.33    4.11
   5   3 -28   50.45    3.86
   5   3 -26    6.88    2.00
   5   3 -24    6.52    1.82
   5   3 -22    0.46    1.25
   5   3 -20   87.55    3.87
   5   3 -20   84.33    3.02
   5   3 -18   31.47    2.28
   5   3 -18   32.44    1.69
   5  -3 -18   30.65    3.15
   5   3 -16   82.64    3.30
   5  -3 -16   83.88    4.55
   5   3 -16   91.72    2.55
   5   3 -14   20.93    1.03
   5   3 -14   25.97    1.76
   5  -3 -14   19.25    2.35
   5   3 -12   88.55    1.84
   5  -3 -12   87.33    4.23
   5   3 -12   94.10    3.00
  -5   3  12   94.08    4.42
  -5   3  10   38.64    2.75
   5   3 -10   36.29    1.74
   5  -3 -10   31.80    2.60
   5  -3  -8   93.14    4.10
  -5  -3   6   60.03    1.52
   5  -3  -6   55.66    3.13
  -5  -3   4   21.82    1.10
   5  -3  -4   21.56    2.04
  -5   3   4   22.76    2.03
   5  -3  -2   13.20    1.70
  -5  -3   2   13.93    1.08
   5   3  -2   12.76    1.08
  -5   3   2   17.26    1.78
  -5   3   0   42.36    2.56
   5   3   0   38.78    1.88
   5  -3   0   40.49    2.52
  -5   3  -2    4.53    1.18
   5  -3   2    5.46    1.46
   5   3   2    5.94    1.02
   5   3   4   57.86    2.65
  -5   3  -4   57.71    3.00
   5  -3   4   63.56    3.14
  -5   3  -6   56.17    3.00
   5  -3   6   60.76    3.15
   5   3   6   60.55    2.87
  -5   3  -8  250.04    6.76
  -5  -3  -8  247.47    6.63
   5  -3   8  255.11    6.84
   5   3   8  250.75    6.61
  -5  -3 -10    9.08    1.74
   5  -3  10   10.72    1.84
   5   3  10    3.31    1.16
  -5   3 -10    9.06    1.52
   5   3  12    2.03    1.25
   5  -3  12    2.04    1.27
  -5  -3 -12    2.59    1.61
  -5   3 -12    0.89    1.21
  -5   3 -14    4.99    1.82
  -5  -3 -14    3.54    1.84
  -5  -3 -16   77.38    4.54
  -5   3 -16   75.69    4.39
  -5   3 -18   34.42    3.36
  -5  -3 -18   38.83    3.52
  -5   3 -20    8.49    2.28
  -5  -3 -20    3.53    1.94
  -5   3 -22   12.72    2.48
  -5  -3 -22   13.88    2.85
  -5  -3 -24   37.23    3.98
  -5   3 -24   39.02    4.01
  -5   3 -26    0.09    2.23
   5   4 -25   34.72    3.01
   5  -4 -25   21.66    3.46
   5   4 -23  124.90    5.20
   5  -4 -23  116.76    6.44
   5  -4 -21   -1.18    1.87
   5   4 -21    0.03    1.33
   5  -4 -19   32.10    3.39
   5   4 -19   28.23    2.25
   5   4 -17  424.39    9.05
   5  -4 -17  406.77   11.38
   5   4 -15    9.81    1.34
   5  -4 -15   10.13    2.21
   5   4 -13   14.07    1.49
   5  -4 -13   12.30    2.33
   5  -4 -11  367.52    9.84
   5   4 -11  376.86    7.51
  -5  -4   9   60.82    1.71
   5  -4  -9   58.39    3.71
  -5  -4   7   60.13    1.94
   5  -4  -7   62.26    3.71
  -5  -4   5  262.66    5.17
   5  -4  -5  261.48    7.52
   5  -4  -3  363.40    8.95
   5   4  -3  355.79    7.20
  -5  -4   3  366.87    6.91
   5  -4  -1  824.64   15.33
  -5   4   1  863.87   15.58
  -5  -4   1  834.31   13.34
   5   4  -1  836.47   13.52
  -5  -4  -1    6.06    1.24
  -5   4  -1    8.89    1.54
   5  -4   1    5.73    1.49
   5   4   1    4.51    1.14
  -5   4  -3  126.95    4.85
   5  -4   3  132.49    4.96
   5   4   3  125.89    4.32
   5  -4   5  624.35   12.51
   5   4   5  604.48   11.78
  -5   4  -5  632.98   12.62
   5  -4   7  114.47    4.69
   5   4   7  122.94    4.73
  -5   4  -7  123.68    4.88
   5  -4   9  288.26    7.90
  -5   4  -9  278.65    7.79
   5   4   9  286.54    7.89
   5  -4  11    5.56    1.72
   5  -4  13  413.30   10.14
  -5   4 -15   44.46    3.67
  -5   4 -17  190.45    7.53
  -5   4 -19   15.47    2.75
  -5   4 -21  253.74    9.42
  -5   4 -23   27.60    3.73
   5  -5 -20  163.94    7.74
   5  -5 -18  231.98    9.01
   5   5 -16    4.90    1.30
   5  -5 -16    7.10    2.32
   5  -5 -14   50.58    4.14
   5   5 -14   60.71    3.12
   5   5 -12  158.68    4.95
   5  -5 -12  151.77    6.68
  -5  -5  10   32.80    1.44
   5  -5 -10   27.87    3.06
  -5  -5   8   14.40    1.15
   5  -5  -8   13.51    2.35
   5  -5  -6  170.34    6.61
  -5  -5   6  179.91    4.46
  -5  -5   4  497.84    9.04
   5   5  -4  471.34    9.64
   5  -5  -4  478.10   11.63
   5  -5  -2  130.27    5.56
   5   5  -2  136.21    4.61
  -5  -5   2  133.07    4.27
   5   5   0  277.25    7.13
  -5  -5   0  280.49    6.97
   5  -5   0  279.31    8.26
  -5  -5  -2  263.44    7.08
   5   5   2  263.31    7.15
   5  -5   2  257.91    7.82
   5  -5   4    9.97    1.98
  -5  -5  -4    8.74    1.73
   5   5   4    7.05    1.45
  -5  -5  -6   15.15    2.14
   5  -5   6   15.87    2.17
   5  -5   8  416.45   10.37
  -5  -5  -8  407.34   10.38
   5  -5  10  171.19    6.38
   5  -5  12   42.24    3.30
   5  -5  14    3.65    1.53
  -5   5 -16  351.88   10.96
  -5   5 -18   22.01    3.20
  -5   5 -20    4.01    2.30
   5  -6 -15   57.77    4.88
   5  -6 -13   41.99    4.07
   5  -6 -11   73.20    5.05
   5  -6  -9   -2.93    2.18
   5  -6  -7  153.30    6.95
   5  -6  -5   52.46    4.02
   5  -6  -3   56.09    4.09
   5  -6  -1  104.28    5.40
   5  -6   1   63.56    4.28
  -5  -6  -1   66.28    3.61
   5  -6   3  194.96    7.34
  -5  -6  -3  197.60    6.63
   5  -6   5   -0.22    1.61
  -5  -6  -5    2.01    1.96
  -5  -6  -7   17.34    2.60
   5  -6   7   21.11    2.55
   5  -6   9  225.92    7.83
  -5  -6  -9  202.52    7.74
   5  -6  11   53.47    3.89
  -5  -6 -11   51.24    4.17
  -5  -6 -13   47.36    4.16
  -5   6 -15  116.44    6.46
  -5  -6 -15  115.21    6.61
   5  -7  -8   53.66    4.62
   5  -7  -6   30.93    3.70
   5  -7  -4   36.05    3.81
   5  -7  -2   15.38    2.56
   5  -7   0    1.25    1.99
   5  -7   2   69.84    4.78
   6   0 -34    5.59    2.56
   6   0 -32   35.87    3.69
   6   0 -30  469.63   12.84
   6   0 -28   16.66    2.55
   6   0 -26   62.73    4.16
   6   0 -24 1160.99   20.58
   6   0 -22 1470.20   23.84
   6   0 -20   84.02    4.01
  -6   0  20   91.79    4.08
   6   0 -18   57.54    3.09
  -6   0  18   59.81    3.13
   6   0 -16 1464.49   21.74
  -6   0  16 1453.59   21.82
   6   0 -14   16.52    1.69
  -6   0  14   17.30    1.59
   6   0 -12  158.76    4.23
  -6   0  12  156.51    4.21
  -6   0  10   10.22    1.16
   6   0 -10   13.16    1.33
   6   0  -8 4138.06   50.94
  -6   0   8 4058.26   50.81
   6   0  -6 8499.02  102.81
  -6   0   6 8506.09  102.83
  -6   0   4  366.38    6.20
   6   0  -4  368.99    6.22
   6   0  -2  382.50    6.44
  -6   0   2  362.96    6.32
   6   0   0  316.61    5.89
  -6   0   0  306.16    5.81
   6   0   2  203.64    4.74
  -6   0  -2  207.53    4.67
  -6   0  -4  168.42    4.40
  -6   0  -4  178.54    4.41
  -6   0  -6   71.53    2.96
  -6   0  -6   67.57    2.88
  -6   0  -8 2425.21   33.16
  -6   0  -8 2406.74   33.03
  -6   0 -10  735.70   13.03
  -6   0 -10  700.02   12.86
  -6   0 -12 1505.88   22.94
  -6   0 -12 1437.84   22.84
   6   0  14 2543.81   35.86
  -6   0 -14 2487.96   35.69
  -6   0 -14 2405.11   35.71
  -6   0 -16  107.48    4.92
  -6   0 -18  214.84    7.35
  -6   0 -20  383.80   10.73
  -6   0 -22  211.35    8.06
  -6   0 -24  284.67    9.90
  -6   0 -26    7.60    2.50
   6   1 -35   12.69    2.90
   6   1 -33    6.61    2.41
   6  -1 -33    4.80    2.42
   6  -1 -31   47.54    4.35
   6   1 -31   37.37    3.75
   6  -1 -29   40.42    3.77
   6   1 -29   38.49    3.52
   6  -1 -27  263.81    8.92
   6   1 -27  262.52    8.45
   6   1 -25   81.43    4.38
   6  -1 -25   77.11    4.69
   6  -1 -23  158.02    6.25
   6   1 -23  160.36    5.80
   6  -1 -21  215.55    7.00
   6   1 -21  219.07    6.48
  -6  -1  21  206.10    6.31
   6   1 -19  145.64    4.88
   6  -1 -19  143.08    5.36
  -6  -1  19  143.62    4.80
  -6   1  19  153.62    5.54
   6  -1 -17   60.44    3.30
   6   1 -17   59.33    2.91
  -6   1  17   65.60    3.38
  -6  -1  17   61.36    2.88
   6   1 -15  314.90    6.70
  -6   1  15  318.99    7.66
  -6  -1  15  311.19    6.68
  -6   1  13   99.04    3.74
   6   1 -13   96.57    3.06
   6  -1 -13   92.20    3.67
  -6  -1  13   92.03    2.97
   6  -1 -11  394.22    7.88
  -6   1  11  380.09    7.79
   6   1 -11  374.50    6.47
  -6  -1  11  369.98    6.46
   6   1  -9 1595.39   20.23
  -6   1   9 1589.27   22.44
   6   1  -9 1591.09   20.52
  -6  -1   9 1591.81   20.52
   6  -1  -9 1630.00   22.63
   6   1  -7 1011.44   12.95
  -6   1   7 1021.84   15.25
  -6  -1   7 1004.61   12.94
   6  -1  -7 1045.57   15.33
   6   1  -5 1155.47   14.67
   6  -1  -5 1169.86   16.78
  -6  -1   5 1139.21   14.65
  -6   1   5 1179.26   16.80
   6  -1  -3  254.87    5.56
  -6  -1   3  253.45    4.27
  -6   1   3  261.31    5.52
  -6   1   1   11.68    1.34
   6  -1  -1   11.61    1.53
  -6  -1   1   10.29    0.92
  -6  -1   1    9.93    0.72
   6   1   1  113.17    2.73
  -6  -1  -1  111.39    3.06
   6  -1   1  120.87    3.70
  -6  -1  -1  116.35    2.81
  -6   1  -1  116.96    3.50
   6  -1   3  463.75    8.53
  -6  -1  -3  447.88    7.71
  -6   1  -3  450.52    8.49
   6   1   3  457.37    7.64
  -6   1  -5    4.28    1.17
   6   1   5    3.60    1.02
  -6  -1  -5    5.80    1.29
   6  -1   5    3.73    1.28
  -6  -1  -7  132.46    4.16
  -6   1  -7  135.93    4.33
   6  -1   7  138.39    4.38
   6   1   7  126.42    4.02
  -6  -1  -9  891.44   14.98
  -6   1  -9  911.72   15.27
   6   1   9  912.85   14.95
  -6   1  -9  902.04   15.29
  -6   1 -11  788.15   14.14
  -6  -1 -11  771.03   13.97
   6   1  11  790.12   14.01
  -6   1 -11  772.15   14.22
  -6   1 -13    2.42    1.40
   6   1  13    2.55    1.19
  -6   1 -13   -0.07    1.06
  -6  -1 -13    4.49    1.64
  -6  -1 -15  282.83    8.02
  -6   1 -15  277.20    8.04
  -6  -1 -17  133.33    5.69
  -6   1 -17  120.38    5.36
  -6  -1 -19   18.87    2.68
  -6   1 -19   19.97    2.76
  -6   1 -21   -2.42    2.09
  -6  -1 -21    4.16    2.06
  -6  -1 -23   32.39    3.66
  -6   1 -23   34.97    3.56
  -6  -1 -25  341.28   11.24
  -6   1 -25  357.53   11.43
  -6  -1 -27  121.77    6.84
  -6   1 -27  116.78    6.71
   6   2 -34    0.71    1.96
   6   2 -32   21.75    3.18
   6   2 -30   42.31    3.79
   6   2 -28   19.63    2.67
   6   2 -26   61.41    3.84
   6   2 -24    9.49    1.80
   6   2 -24    9.92    1.47
   6   2 -22   11.38    1.77
   6   2 -22   12.63    1.48
   6   2 -20   53.47    2.49
   6   2 -20   53.81    3.00
   6   2 -18   95.13    3.03
   6   2 -18   97.15    3.73
   6  -2 -16  388.69    9.46
   6   2 -16  393.04    6.87
  -6   2  16  413.54    9.82
   6   2 -16  407.94    7.91
   6  -2 -14 1519.29   23.66
   6   2 -14 1500.04   19.76
   6   2 -14 1547.83   21.13
  -6   2  14 1558.23   23.91
   6  -2 -12    4.06    1.36
  -6   2  12    7.15    1.50
   6   2 -12    6.83    0.80
   6   2 -12    7.60    0.53
  -6   2  10 1092.49   17.62
   6   2 -10 1090.60   14.53
   6  -2 -10 1065.18   17.54
   6  -2  -8  573.21   10.73
   6   2  -8  553.58    7.55
  -6   2   6   78.83    3.29
   6  -2  -6   74.54    3.23
  -6  -2   4  322.22    4.67
  -6   2   4  322.71    7.15
   6  -2  -4  318.44    7.13
   6  -2  -2  540.01   10.00
   6   2  -2  540.50    7.51
  -6   2   2  546.91   10.01
   6  -2   0    9.30    1.54
  -6   2   0   10.29    1.47
   6   2   0    8.87    0.85
   6  -2   2    5.41    1.38
  -6   2  -2    0.39    1.04
  -6  -2  -2    1.10    0.78
   6   2   2    0.36    0.72
  -6   2  -4   28.49    2.05
   6  -2   4   31.65    2.24
   6   2   4   31.14    1.79
  -6  -2  -4   30.62    1.88
  -6  -2  -6  107.08    3.70
   6  -2   6  107.14    4.04
  -6   2  -6  106.42    3.95
   6   2   6  109.13    3.60
  -6   2  -8    5.09    1.31
  -6  -2  -8    3.61    1.30
   6  -2   8    3.70    1.28
   6   2   8    3.19    0.95
   6  -2  10   51.22    3.07
  -6  -2 -10   53.55    3.04
  -6   2 -10   51.33    2.96
   6   2  10   52.87    2.91
  -6   2 -12   23.05    2.38
  -6  -2 -12   25.91    2.43
   6   2  12   29.19    2.41
  -6   2 -12   32.90    2.60
  -6   2 -14    5.13    1.76
  -6  -2 -14    5.98    1.73
  -6   2 -16    2.45    1.69
  -6  -2 -16   -0.79    1.60
  -6  -2 -18  105.90    5.33
  -6   2 -18  105.23    5.31
  -6  -2 -20  527.69   13.39
  -6   2 -20  558.71   13.64
  -6   2 -22  175.85    7.51
  -6  -2 -22  172.66    7.56
  -6  -2 -24   52.01    4.56
  -6   2 -24   49.96    4.38
  -6  -2 -26   29.16    3.75
  -6   2 -26   30.94    3.65
   6   3 -31    1.27    1.81
   6   3 -29    4.65    1.84
   6   3 -27  420.75   10.85
   6   3 -25   55.45    3.65
   6  -3 -23    1.36    1.97
   6   3 -23    1.99    1.44
   6   3 -21   13.24    1.27
   6  -3 -21   12.76    2.40
   6   3 -21   10.04    1.68
   6   3 -19  676.16   12.32
   6  -3 -19  669.73   14.74
   6   3 -19  670.77   10.39
   6  -3 -17  117.37    5.36
   6   3 -17  112.50    3.84
   6   3 -17  114.80    2.71
   6   3 -15   40.62    1.18
   6  -3 -15   40.72    3.17
   6   3 -15   45.14    2.19
   6   3 -13 1495.35   20.45
   6  -3 -13 1427.09   23.88
   6  -3 -11  199.83    6.46
   6   3 -11  216.24    4.48
  -6   3  11  218.59    6.76
   6   3  -9  188.71    3.80
   6  -3  -9  178.21    5.92
   6  -3  -7   92.00    4.09
   6   3  -5  592.06    8.74
  -6   3   5  619.17   11.89
   6  -3  -5  592.97   11.72
  -6  -3   5  599.14    8.26
   6   3  -3  223.46    4.32
   6  -3  -3  220.39    6.21
  -6   3   3  229.58    6.36
  -6  -3   3  223.36    4.30
   6  -3  -1 1356.47   21.27
  -6   3   1 1394.89   21.47
   6   3  -1 1383.82   18.80
   6   3   1   33.68    1.81
  -6   3  -1   31.49    2.29
   6  -3   1   31.36    2.40
   6  -3   3 1854.06   27.46
   6   3   3 1874.13   25.86
  -6   3  -3 1914.39   27.59
   6   3   5  430.98    8.59
  -6   3  -5  439.62    9.52
   6  -3   5  418.21    9.35
  -6  -3  -7   14.87    1.83
   6  -3   7   15.25    1.90
   6   3   7   15.81    1.66
  -6   3  -7   15.31    1.80
  -6   3  -9  611.64   12.26
  -6  -3  -9  595.80   11.86
   6   3   9  609.68   11.94
   6  -3   9  610.08   12.24
   6  -3  11  359.35    8.98
  -6  -3 -11  355.90    8.90
   6   3  11  382.49    9.13
  -6   3 -11  370.26    9.10
  -6  -3 -13   25.47    2.66
  -6   3 -13   18.70    2.35
   6  -3  13   23.57    2.37
  -6  -3 -15  238.98    7.80
  -6   3 -15  241.28    8.00
  -6  -3 -17  704.36   15.37
  -6   3 -17  686.69   15.38
  -6  -3 -19  487.82   12.69
  -6   3 -19  479.15   12.68
  -6   3 -21   39.03    3.79
  -6  -3 -21   28.54    3.40
  -6  -3 -23    5.27    2.43
  -6   3 -23    2.63    2.17
  -6  -3 -25  496.92   14.43
  -6   3 -25  461.53   13.75
   6  -4 -26   12.36    3.25
   6  -4 -24  141.22    7.11
   6   4 -24  133.00    5.34
   6   4 -22  255.50    7.22
   6  -4 -22  245.68    9.26
   6  -4 -20   39.30    3.94
   6   4 -20   40.87    2.67
   6   4 -18   74.37    3.34
   6  -4 -18   75.95    4.83
   6  -4 -16   99.78    5.38
   6   4 -16  106.34    3.82
   6  -4 -14  173.59    6.88
   6   4 -14  190.15    4.96
   6  -4 -12   91.10    4.79
   6   4 -12   94.82    3.17
   6   4 -10   90.20    2.95
   6  -4 -10   93.10    4.76
  -6  -4   8  834.13   10.87
   6  -4  -8  821.81   16.07
   6  -4  -6   25.01    2.59
  -6  -4   6   25.19    1.20
  -6  -4   4    1.85    0.70
   6  -4  -4    4.51    1.57
   6   4  -4    2.86    0.84
   6  -4  -2  559.63   11.90
  -6  -4   2  549.30    9.45
   6   4  -2  552.24    9.59
  -6   4   0  455.79   10.41
   6   4   0  438.03    8.54
   6  -4   0  450.89   10.29
  -6  -4   0  459.17    8.71
  -6   4  -2  495.52   10.92
   6   4   2  478.96    9.36
   6  -4   2  471.94   10.68
   6   4   4  192.53    5.56
   6  -4   4  196.98    6.38
  -6   4  -4  197.73    6.42
   6  -4   6  370.84    9.20
   6   4   6  355.99    8.44
   6   4   8  446.80   10.05
   6  -4   8  432.28   10.35
   6  -4  10   67.79    3.92
   6  -4  12  327.90    9.05
  -6   4 -14  159.19    6.70
   6  -4  14  159.50    6.25
  -6   4 -16    3.34    1.82
  -6   4 -18  236.00    8.77
  -6   4 -20   17.06    2.81
  -6  -4 -20   24.14    3.37
  -6   4 -22    7.09    2.41
  -6  -4 -22   11.24    2.84
   6  -5 -21    2.29    2.29
   6  -5 -19    1.94    2.03
   6  -5 -17    3.65    2.03
   6  -5 -15  244.33    9.04
   6   5 -15  255.68    6.45
   6   5 -13   22.16    1.83
   6  -5 -13   23.82    3.13
   6   5 -11   22.83    1.80
   6  -5 -11   20.04    2.81
   6  -5  -9   11.32    2.32
   6  -5  -7  157.08    6.46
  -6  -5   7  162.77    3.75
   6   5  -5  271.04    6.41
   6  -5  -5  267.79    8.44
  -6  -5   5  270.58    5.75
   6  -5  -3   47.20    3.46
   6   5  -3   50.69    2.66
  -6  -5   3   51.38    2.45
   6   5  -1   46.03    2.66
  -6  -5   1   47.81    2.61
   6  -5  -1   44.57    3.36
  -6  -5  -1   89.26    3.83
   6   5   1   84.42    3.70
   6  -5   1   91.64    4.70
   6   5   3  109.04    4.42
   6  -5   3  108.62    5.13
  -6  -5  -3  105.87    4.41
  -6  -5  -5   88.88    4.27
   6  -5   5   86.06    4.61
   6   5   5   84.39    4.09
  -6  -5  -7  130.56    5.50
   6  -5   7  136.00    5.74
   6  -5   9    2.33    1.62
   6  -5  11   80.03    4.60
   6  -5  13   21.56    2.59
  -6   5 -15   20.94    3.02
   6  -5  15   27.15    2.92
  -6   5 -17    8.87    2.23
  -6   5 -19    1.91    2.18
   6  -6 -16  202.59    8.81
   6  -6 -14   63.16    4.97
   6  -6 -12   16.20    2.81
   6  -6 -10    0.88    1.92
   6  -6  -8  220.83    8.53
   6  -6  -6   21.73    3.02
   6  -6  -4  156.72    6.86
   6  -6  -2   57.91    4.20
   6  -6   0  231.21    8.23
   6  -6   2   50.67    3.92
  -6  -6  -2   44.48    3.07
  -6  -6  -4  215.29    7.08
   6  -6   4  206.67    7.73
  -6  -6  -6   14.57    2.13
   6  -6   6   19.30    2.65
  -6  -6  -8   45.86    3.67
   6  -6   8   54.80    3.94
  -6  -6 -10    4.30    2.06
   6  -6  10    1.96    1.77
   6  -6  12    0.87    1.61
  -6  -6 -12    1.59    1.86
  -6  -6 -14  146.03    7.16
   6  -7  -7    6.20    2.15
   6  -7  -5   34.81    3.73
   6  -7  -3   24.83    3.27
   6  -7  -1   84.42    5.41
   6  -7   1   75.06    5.10
   6  -7   3   61.32    4.62
   7   0 -33    2.60    2.26
   7   0 -31    2.12    2.14
   7   0 -29   -1.33    1.66
   7   0 -27    1.07    1.78
   7   0 -25    2.84    1.92
   7   0 -23    4.46    1.86
   7   0 -21    0.99    1.50
  -7   0  21    0.24    1.25
   7   0 -19    0.05    1.32
  -7   0  19   -0.48    1.01
  -7   0  17    2.26    1.08
   7   0 -17   -1.50    1.19
   7   0 -15   -0.17    1.08
  -7   0  15    1.01    0.85
  -7   0  13   -0.41    0.91
   7   0 -13   -1.22    0.98
  -7   0  11    0.22    0.85
   7   0 -11    0.32    0.90
  -7   0   9    1.61    0.87
   7   0  -9    0.40    0.92
   7   0  -7    1.89    0.94
  -7   0   7    1.16    0.79
  -7   0   5    1.02    0.76
   7   0  -5    2.04    0.93
   7   0  -3    1.09    0.96
  -7   0   3    1.09    0.75
  -7   0   1    1.76    0.86
   7   0  -1    1.12    1.01
  -7   0  -1    0.75    0.89
   7   0   1    0.38    1.08
  -7   0  -3    0.39    1.00
  -7   0  -3    0.63    0.91
   7   0   3   -0.65    1.10
  -7   0  -5   -0.38    1.13
  -7   0  -5   -0.66    0.99
  -7   0  -7    0.93    1.11
  -7   0  -7    2.71    1.17
  -7   0  -9    1.09    1.32
  -7   0  -9   -0.53    0.99
  -7   0 -11    0.42    1.30
  -7   0 -11    0.63    1.02
  -7   0 -13    0.02    1.08
  -7   0 -13   -0.66    1.48
  -7   0 -15   -0.81    1.59
  -7   0 -17    1.90    1.58
  -7   0 -19    1.55    1.85
  -7   0 -21    3.81    2.07
  -7   0 -23    0.26    1.93
  -7   0 -25    0.95    1.95
  -7   0 -27    2.73    2.43
   7   1 -34  111.68    6.37
   7   1 -32  152.43    7.04
   7  -1 -32  149.46    7.40
   7  -1 -30    6.88    2.45
   7   1 -30    4.98    2.03
   7   1 -28   26.16    2.94
   7  -1 -28   24.78    3.13
   7  -1 -26  241.42    8.29
   7   1 -26  251.90    7.91
   7  -1 -24  188.63    6.92
   7   1 -24  188.14    6.37
   7  -1 -22   44.08    3.37
   7   1 -22   45.15    2.99
  -7  -1  22   40.26    2.78
   7   1 -20  205.59    5.93
  -7  -1  20  190.83    5.75
  -7  -1  18  132.37    4.38
  -7   1  18  131.44    5.01
   7   1 -18  129.49    4.31
   7   1 -16   57.30    2.66
  -7   1  16   60.44    3.21
  -7  -1  16   54.33    2.53
   7  -1 -16   54.85    3.07
   7  -1 -14   66.03    3.26
   7   1 -14   64.80    2.55
  -7   1  14   62.88    3.15
  -7  -1  14   65.56    2.53
   7   1 -12 1768.96   23.48
   7   1 -12 1791.61   23.18
  -7  -1  12 1760.95   23.52
  -7   1  12 1782.65   25.42
   7  -1 -12 1777.32   25.41
   7  -1 -10  339.78    7.28
  -7   1  10  338.94    7.22
  -7  -1  10  342.88    5.69
   7   1 -10  343.36    5.55
   7   1  -8  154.60    2.90
  -7  -1   8  149.52    2.80
  -7   1   8  149.19    4.24
   7  -1  -8  147.05    4.31
  -7   1   6  130.39    3.81
  -7  -1   6  123.86    2.09
   7   1  -6  126.71    2.57
   7  -1  -6  127.86    3.83
  -7  -1   6  127.33    2.57
   7  -1  -4  383.08    7.39
   7   1  -4  385.26    5.96
  -7   1   4  383.46    7.39
  -7  -1   4  375.86    5.14
  -7  -1   4  373.43    5.90
  -7  -1   2  623.06    9.41
  -7   1   2  630.92   10.63
  -7  -1   2  641.30    8.69
   7  -1  -2  629.04   10.60
  -7   1   0   85.83    3.08
  -7  -1   0   82.13    2.61
   7  -1   0   78.47    3.14
  -7  -1   0   84.60    2.30
  -7  -1  -2  246.77    5.31
   7  -1   2  249.45    5.86
  -7  -1  -2  244.19    4.98
  -7   1  -2  240.04    5.74
   7   1   4   34.78    1.90
  -7  -1  -4   32.94    2.01
  -7  -1  -4   29.53    1.86
  -7   1  -4   33.00    2.20
   7  -1   4   31.46    2.24
   7  -1   6  291.07    7.01
  -7   1  -6  303.16    7.06
  -7  -1  -6  298.82    6.59
   7   1   6  301.42    6.53
  -7   1  -8  506.91   10.29
   7  -1   8  511.60   10.24
  -7   1  -8  522.69   10.34
  -7  -1  -8  505.22    9.87
   7   1   8  508.79    9.86
  -7   1 -10    3.36    1.43
   7   1  10    3.56    1.13
  -7   1 -10    4.24    1.26
  -7  -1 -10    3.28    1.28
  -7  -1 -12 1355.72   21.79
  -7   1 -12 1387.08   22.03
  -7   1 -12 1310.03   21.86
   7   1  12 1375.53   21.81
  -7  -1 -14  313.37    8.52
  -7   1 -14  328.83    8.83
  -7   1 -16   11.89    2.10
  -7  -1 -16   10.65    2.15
  -7  -1 -18 1174.18   21.34
  -7   1 -18 1162.14   21.42
  -7  -1 -20  469.35   12.23
  -7   1 -20  462.23   12.29
  -7  -1 -22    7.56    2.51
  -7   1 -22    4.21    2.14
  -7  -1 -24  335.40   11.08
  -7   1 -24  358.74   11.38
  -7  -1 -26  498.89   14.35
  -7   1 -26  499.06   14.34
   7   2 -33    1.47    1.88
   7   2 -31  261.82    9.01
   7   2 -29   48.91    3.99
   7   2 -27   51.01    3.62
   7   2 -25   75.99    4.05
   7   2 -23  393.90    8.35
   7   2 -23  415.02    9.55
   7   2 -21  532.76    9.75
   7   2 -21  560.57   10.98
   7   2 -19  204.08    4.78
   7   2 -19  214.45    5.69
   7  -2 -19  200.15    6.89
   7  -2 -17   46.88    3.21
   7   2 -17   46.05    1.84
   7   2 -17   46.44    2.36
   7   2 -15  957.97   14.08
   7  -2 -15  924.70   16.64
   7   2 -15  920.74   12.77
  -7   2  15  965.58   16.95
   7   2 -13 3116.27   38.17
   7   2 -13 3160.84   38.16
  -7   2  13 3220.52   43.34
   7   2 -13 3183.66   39.74
   7  -2 -13 3121.68   43.23
   7   2 -11  904.35   12.36
  -7   2  11  930.97   15.73
   7  -2 -11  902.57   15.62
   7  -2  -9 1220.41   19.50
   7   2  -9 1248.90   15.54
  -7   2   7 3061.68   40.96
   7  -2  -7 3015.65   40.88
   7  -2  -5 1683.13   24.64
  -7   2   5 1757.02   24.91
  -7  -2   5 1702.07   20.94
   7   2  -3   67.97    1.37
   7  -2  -3   66.79    3.16
  -7  -2   3   71.62    1.92
  -7   2   3   75.89    3.26
  -7   2   1 1481.75   21.31
   7   2  -1 1396.16   18.30
   7  -2  -1 1417.81   21.12
  -7   2  -1 2666.78   35.85
   7  -2   1 2634.46   35.77
   7   2   1 2606.43   33.37
  -7  -2  -1 2621.18   33.44
  -7   2  -3  807.46   13.80
  -7  -2  -3  812.27   12.40
   7  -2   3  798.85   13.85
   7   2   3  787.80   12.24
  -7  -2  -5   59.37    2.68
   7  -2   5   60.14    3.11
   7   2   5   61.90    2.64
  -7   2  -5   60.19    3.14
   7  -2   7  354.85    8.31
  -7  -2  -7  345.05    7.68
   7   2   7  362.09    7.72
  -7   2  -7  363.49    8.39
   7  -2   9  560.75   11.41
  -7  -2  -9  544.69   10.93
  -7   2  -9  579.56   11.59
   7   2   9  569.71   11.02
   7   2  11   13.52    1.83
  -7   2 -11   13.67    1.89
  -7   2 -11   14.47    1.92
   7  -2  11   11.78    1.83
  -7  -2 -11   13.31    1.93
  -7  -2 -13  698.36   14.03
  -7   2 -13  731.55   14.66
  -7   2 -15    5.04    1.94
  -7  -2 -15    1.70    1.58
  -7  -2 -17  516.16   12.37
  -7   2 -17  491.28   12.32
  -7   2 -19   11.81    2.57
  -7  -2 -19    8.49    2.26
  -7   2 -21   23.76    3.16
  -7  -2 -21   22.21    3.11
  -7  -2 -23   38.55    4.00
  -7   2 -23   32.68    3.56
  -7  -2 -25   16.19    3.19
  -7   2 -25   13.68    2.89
   7  -3 -28   85.48    5.82
   7   3 -28   86.05    4.61
   7  -3 -26    2.67    1.92
   7   3 -26    5.52    1.59
   7  -3 -24   16.24    2.97
   7   3 -24   14.26    1.91
   7  -3 -22  127.70    6.18
   7   3 -22  130.50    4.79
   7   3 -20    8.58    0.92
   7  -3 -20    3.99    1.74
   7   3 -20    9.40    1.63
   7   3 -18   45.35    1.42
   7   3 -18   45.22    2.46
   7  -3 -18   42.50    3.53
   7   3 -16   -0.49    0.80
   7  -3 -16    0.03    1.54
   7  -3 -14   45.60    3.43
   7   3 -14   45.39    1.97
   7  -3 -12    5.84    1.70
   7   3 -12    6.50    0.83
   7   3 -10  203.43    3.74
   7  -3 -10  191.72    6.39
   7  -3  -8  145.45    5.32
   7   3  -8  157.10    2.85
  -7   3   6   39.51    2.80
   7  -3  -6   36.75    2.62
   7   3  -6   40.60    1.24
   7  -3  -4   13.58    1.89
   7   3  -4   13.79    0.86
  -7  -3   4   13.62    0.88
  -7   3   4   14.11    1.88
   7  -3  -2   32.64    2.50
  -7   3   2   36.51    2.54
   7   3  -2   33.88    1.47
   7  -3   0   24.83    2.24
   7   3   0   28.14    1.55
  -7   3   0   32.71    2.51
   7   3   2   41.67    2.08
  -7   3  -2   43.84    2.78
   7  -3   2   40.76    2.69
   7  -3   4   22.15    2.28
  -7   3  -4   20.80    2.11
   7   3   4   20.83    1.65
   7   3   6   94.41    3.65
  -7   3  -6  101.91    4.33
  -7  -3  -6   92.45    3.66
   7  -3   6   98.24    4.30
   7  -3   8  275.80    7.64
  -7   3  -8  281.11    7.69
   7   3   8  279.51    7.18
  -7  -3  -8  289.30    7.23
   7  -3  10   38.87    2.96
  -7  -3 -10   37.57    2.83
   7   3  10   37.39    2.67
  -7  -3 -12  322.17    8.72
   7  -3  12  337.57    8.92
  -7  -3 -14  422.11   10.70
  -7   3 -14  444.70   11.34
  -7  -3 -16   77.78    4.65
  -7   3 -16   82.89    4.83
  -7  -3 -18  206.44    7.85
  -7   3 -18  204.57    7.93
  -7   3 -20   38.90    3.83
  -7  -3 -20   41.35    3.92
  -7   3 -22   24.21    3.27
  -7  -3 -22   17.89    3.10
  -7  -3 -24   18.13    3.30
  -7   3 -24   18.17    3.21
   7  -4 -25   12.69    2.81
   7  -4 -23   53.87    4.64
   7   4 -21   44.83    2.70
   7  -4 -21   45.10    4.05
   7  -4 -19   23.06    3.09
   7   4 -19   22.54    1.85
   7  -4 -17    6.85    2.06
   7   4 -17    7.19    1.23
   7  -4 -15  288.05    9.21
   7   4 -15  306.62    6.42
   7  -4 -13  294.07    9.16
   7   4 -13  321.85    6.27
   7  -4 -11  553.16   13.00
   7   4 -11  588.32    9.30
   7  -4  -9  166.42    6.35
   7   4  -7  230.69    4.61
  -7  -4   7  216.15    3.38
   7  -4  -7  230.33    7.34
  -7  -4   5  419.78    6.77
   7  -4  -5  399.88   10.11
   7   4  -5  418.25    7.24
  -7  -4   3  563.60    9.20
   7  -4  -3  540.24   11.99
   7   4  -3  553.20    9.27
   7   4  -1   26.22    1.69
  -7  -4   1   25.44    1.72
   7  -4  -1   23.93    2.41
   7   4   1  780.01   12.89
   7  -4   1  782.79   15.00
   7  -4   3    0.90    1.36
   7   4   3    2.43    1.06
   7   4   5   15.49    1.78
   7  -4   5   17.58    2.19
   7  -4   7  733.24   14.63
   7   4   7  724.01   13.66
   7  -4   9  483.20   11.37
   7  -4  11    5.54    1.86
   7  -4  13  130.51    5.67
  -7   4 -15   87.89    5.18
  -7  -4 -17  280.06    9.39
  -7   4 -17  298.71   10.00
  -7   4 -19    2.86    1.99
  -7  -4 -19    1.75    2.10
  -7   4 -21   23.96    3.61
  -7  -4 -21   20.37    3.11
   7  -5 -20  166.95    7.98
   7  -5 -18  137.43    6.97
   7  -5 -16   88.63    5.49
   7  -5 -14    3.48    2.16
   7  -5 -12  205.11    8.02
   7   5 -12  216.74    5.20
   7  -5 -10   23.94    2.89
   7  -5  -8   11.34    2.37
   7  -5  -6    3.65    1.81
  -7  -5   6    3.81    0.77
   7  -5  -4  179.86    6.99
  -7  -5   4  196.41    4.69
   7   5  -4  190.03    5.05
   7  -5  -2  132.32    5.88
   7   5  -2  147.77    4.53
  -7  -5   2  145.55    4.37
  -7  -5   0   43.51    2.54
   7   5   0   45.40    2.65
   7  -5   0   45.11    3.45
   7  -5   2    6.60    1.88
   7   5   2    7.98    1.49
  -7  -5  -2    8.27    1.51
  -7  -5  -4  421.89    9.84
   7   5   4  422.91    9.58
   7  -5   4  417.89   10.90
   7  -5   6  701.80   15.01
   7  -5   8   62.38    4.09
   7  -5  10  368.92   10.29
   7  -5  12  411.21   11.15
   7  -5  14   44.71    3.66
  -7   5 -16    5.84    2.14
  -7   5 -18  229.12    9.27
   7  -6 -15   80.29    5.65
   7  -6 -13  163.47    7.73
   7  -6 -11  304.17   10.54
   7  -6  -9  125.37    6.52
   7  -6  -7  153.69    7.07
   7  -6  -5  121.32    6.18
   7  -6  -3  222.80    8.35
   7  -6  -1   20.75    2.83
   7  -6   1    7.81    2.26
   7  -6   3  157.40    6.92
   7  -6   5   50.17    3.97
  -7  -6  -5   57.72    3.70
  -7  -6  -7    4.80    1.67
   7  -6   7    5.65    1.96
   7  -6   9    4.75    1.99
  -7  -6  -9    3.28    1.75
  -7  -6 -11   18.72    2.76
   7  -6  11   19.21    2.77
  -7  -6 -13    7.70    2.45
   7  -6  13    8.77    2.40
  -7  -6 -15    7.55    2.52
   7  -7  -6    5.78    2.28
   7  -7  -4   16.84    2.99
   7  -7  -2   17.56    2.93
   7  -7   0    3.30    1.95
   7  -7   2    2.56    1.90
   7  -7   4   30.44    3.47
   8   0 -34  464.52   13.61
   8   0 -32   12.48    2.89
   8   0 -30  108.46    5.76
   8   0 -28  617.52   14.29
   8   0 -26  312.99    9.11
   8   0 -24  113.73    5.08
   8   0 -22   27.90    2.66
  -8   0  22   26.38    2.45
   8   0 -20 1157.73   19.07
  -8   0  20 1146.75   19.13
   8   0 -18   14.13    1.69
  -8   0  18   15.38    1.74
  -8   0  16    0.96    1.02
   8   0 -16    2.07    1.08
  -8   0  14   78.70    3.10
   8   0 -14   77.04    3.02
   8   0 -12  616.27   10.33
  -8   0  12  609.90   10.33
   8   0 -10    3.14    0.99
  -8   0  10    3.45    1.00
   8   0  -8   24.43    1.56
  -8   0   8   21.82    1.49
   8   0  -6 2434.03   31.67
  -8   0   6 2450.10   31.74
  -8   0   4  154.00    3.87
   8   0  -4  151.16    3.86
  -8   0   2   18.84    1.44
   8   0  -2   20.52    1.57
   8   0   0 1469.38   20.71
  -8   0   0 1478.88   20.77
   8   0   2  427.53    8.26
  -8   0  -2  430.49    8.25
   8   0   4 2718.48   36.61
  -8   0  -4 2733.11   36.20
  -8   0  -4 2733.73   36.60
  -8   0  -6  260.47    6.49
  -8   0  -6  260.81    6.34
  -8   0  -8  234.07    6.32
  -8   0  -8  213.16    5.99
  -8   0 -10  143.02    5.12
  -8   0 -10  142.28    5.07
  -8   0 -12    2.91    1.51
  -8   0 -12    3.32    1.30
  -8   0 -14   16.00    2.17
  -8   0 -16  295.11    8.77
  -8   0 -18  387.48   10.67
  -8   0 -20   81.92    5.06
  -8   0 -22  213.11    8.43
  -8   0 -24  871.04   19.61
  -8   0 -26  175.39    8.23
   8   1 -35    9.33    2.57
   8   1 -33    1.79    1.90
   8   1 -31    6.68    2.21
   8   1 -29   11.86    2.32
   8   1 -27   37.51    3.21
   8   1 -25  154.67    5.85
   8   1 -23  169.93    5.81
  -8  -1  23  166.31    5.73
  -8  -1  21   27.02    2.20
   8   1 -21   26.64    2.38
  -8   1  19  190.68    6.18
   8   1 -19  182.41    5.33
   8  -1 -19  189.78    6.08
  -8  -1  19  183.92    5.36
   8   1 -17   75.14    3.09
  -8   1  17   74.41    3.65
  -8  -1  17   66.99    2.90
   8  -1 -17   68.10    3.47
   8   1 -15   68.83    2.53
  -8   1  15   69.62    3.35
  -8  -1  15   70.52    2.65
   8   1 -15   71.61    2.77
   8  -1 -15   73.31    3.42
   8   1 -13  800.36   11.94
   8   1 -13  778.29   11.66
  -8   1  13  816.02   13.82
   8  -1 -13  815.47   13.78
  -8  -1  13  782.86   11.95
   8  -1 -11   98.53    3.67
  -8   1  11   96.79    3.62
   8   1 -11   97.03    2.55
  -8  -1  11   96.46    2.56
   8   1  -9 2092.28   26.21
  -8  -1   9 2046.82   26.01
  -8   1   9 2091.55   28.67
   8  -1  -9 2078.11   28.66
  -8  -1   7  431.34    6.69
   8  -1  -7  441.79    8.50
   8   1  -7  445.03    6.74
  -8   1   7  448.92    8.53
  -8  -1   7  436.41    6.16
  -8  -1   5   22.91    1.18
   8   1  -5   23.84    1.24
  -8   1   5   26.00    1.87
   8  -1  -5   24.04    1.89
   8   1  -3 4049.48   49.73
  -8   1   3 3989.14   51.37
  -8  -1   3 4010.71   49.73
   8  -1  -3 4051.08   51.42
  -8  -1   3 3980.82   48.76
  -8   1   1 2150.12   29.34
  -8  -1   1 2120.72   28.02
   8  -1  -1 2139.05   29.37
  -8  -1   1 2151.42   27.23
  -8  -1  -1  311.50    6.27
   8  -1   1  307.32    6.89
  -8  -1  -1  306.06    5.78
  -8   1  -1  317.38    6.95
  -8   1  -3   12.91    1.57
  -8  -1  -3   13.49    1.37
   8  -1   3   17.68    1.85
  -8  -1  -3   12.92    1.35
   8   1   5 1361.44   20.09
  -8  -1  -5 1375.00   20.63
   8  -1   5 1400.69   21.20
  -8  -1  -5 1397.83   20.25
  -8   1  -5 1442.90   21.40
   8   1   7  540.82   10.14
  -8   1  -7  528.32   10.73
  -8  -1  -7  549.12   10.56
   8  -1   7  528.02   10.72
  -8   1  -7  546.40   10.82
  -8  -1  -7  532.48   10.22
   8   1   9   62.95    3.10
  -8  -1  -9   59.60    3.18
  -8   1  -9   63.42    3.35
  -8  -1  -9   53.90    3.01
  -8   1  -9   58.73    3.28
  -8  -1 -11  406.98    9.47
  -8   1 -11  386.76    9.30
  -8  -1 -11  387.37    9.13
  -8   1 -11  380.40    9.34
   8   1  11  387.59    9.10
  -8  -1 -13  993.31   17.63
  -8   1 -13  964.51   17.80
  -8  -1 -15  115.44    5.26
  -8   1 -15  118.19    5.33
  -8   1 -17   34.93    3.25
  -8  -1 -17   37.43    3.29
  -8  -1 -19    2.31    1.99
  -8   1 -19    0.32    1.74
  -8  -1 -21  150.16    6.87
  -8   1 -21  142.40    6.78
  -8  -1 -23   48.20    4.24
  -8   1 -23   45.61    4.32
  -8  -1 -25    0.40    2.24
  -8   1 -25    4.40    2.35
   8   2 -32   42.84    3.84
   8   2 -30   23.72    2.85
   8  -2 -28   60.21    4.53
   8   2 -28   57.65    3.84
   8   2 -26    0.52    1.44
   8  -2 -26   -1.65    1.83
   8   2 -24  183.25    5.24
   8  -2 -24  178.78    7.13
   8   2 -24  189.74    6.16
   8   2 -22   69.80    2.86
   8   2 -22   71.17    3.48
   8  -2 -22   69.49    4.31
   8  -2 -20   22.59    2.58
   8   2 -20   23.17    2.07
   8  -2 -18   73.76    4.06
   8   2 -18   71.54    2.37
   8   2 -18   80.72    3.11
   8   2 -16   56.66    1.79
   8   2 -16   63.68    2.48
   8   2 -16   60.37    1.86
   8  -2 -16   58.52    3.50
  -8   2  14   87.88    4.10
   8   2 -14   82.24    1.73
   8   2 -14   84.78    2.58
   8   2 -14   85.16    1.77
   8  -2 -14   96.37    4.26
   8  -2 -12  321.28    8.13
  -8   2  12  331.12    8.13
   8   2 -12  331.27    5.37
   8  -2 -10   45.19    2.86
  -8   2   8   41.81    2.64
   8  -2  -8   41.25    2.64
   8  -2  -6  877.23   15.00
  -8   2   6  899.80   15.13
  -8   2   4  318.91    7.39
   8  -2  -4  304.27    7.32
  -8  -2   4  307.66    5.04
  -8   2   2    2.08    1.18
  -8  -2   2    1.11    0.66
   8  -2  -2    1.51    1.32
  -8  -2   0  402.96    7.28
  -8  -2   0  403.85    6.62
  -8   2   0  410.90    8.71
   8  -2   0  397.45    8.67
   8   2   0  393.25    6.54
  -8  -2  -2  278.01    5.63
  -8   2  -2  280.62    6.97
   8  -2   2  274.26    7.00
   8   2   2  272.87    5.50
  -8  -2  -4   16.69    1.51
  -8   2  -4   16.93    1.82
   8   2   4   18.60    1.51
   8  -2   4   16.27    1.91
   8  -2   6  287.87    7.45
  -8  -2  -6  282.77    6.66
   8   2   6  289.60    6.61
  -8   2  -6  303.74    7.57
   8  -2   8   64.33    3.53
  -8  -2  -8   70.11    3.29
  -8   2  -8   68.62    3.58
   8   2   8   68.08    3.18
   8  -2  10  168.72    5.93
  -8  -2 -10  180.42    5.80
  -8   2 -10  189.64    6.21
   8   2  10  184.88    5.76
  -8  -2 -12  878.64   16.45
   8   2  12  951.22   16.66
  -8   2 -12  904.65   17.20
  -8   2 -14   21.16    2.62
  -8  -2 -14   17.90    2.40
  -8  -2 -16  145.12    6.13
  -8   2 -16  155.49    6.49
  -8   2 -18    9.94    2.32
  -8  -2 -18   10.37    2.46
  -8   2 -20    3.40    2.01
  -8  -2 -20    3.55    2.04
  -8  -2 -22    4.70    2.25
  -8   2 -22    9.06    2.50
  -8  -2 -24   29.06    3.73
  -8   2 -24   33.40    4.06
   8  -3 -29    4.32    2.31
   8   3 -27    3.33    1.47
   8  -3 -27    5.19    2.14
   8  -3 -25  169.06    7.61
   8   3 -25  180.60    6.07
   8  -3 -23   58.82    4.42
   8   3 -23   58.35    3.19
   8  -3 -21   12.16    2.44
   8   3 -21    7.77    1.38
   8   3 -19  243.18    5.86
   8  -3 -19  218.60    7.94
   8  -3 -17 2014.92   32.31
   8   3 -17 2096.76   27.96
   8  -3 -15  118.80    5.40
   8   3 -15  114.31    3.14
   8  -3 -13  116.30    5.16
   8   3 -13  125.32    2.84
   8   3 -11 1487.90   18.60
   8  -3 -11 1423.77   23.85
   8  -3  -9  417.03    9.96
  -8   3   7   38.70    2.80
   8  -3  -7   34.26    2.73
  -8  -3   5  138.54    2.65
   8  -3  -5  142.30    5.17
  -8  -3   5  140.49    2.65
  -8   3   5  146.24    5.24
   8  -3  -3 1048.48   17.87
  -8   3   3 1068.21   18.06
   8   3  -3 1045.83   13.92
   8   3  -1 2266.50   29.10
   8  -3  -1 2227.53   32.68
  -8   3   1 2308.90   32.98
  -8   3  -1   16.71    1.98
   8  -3   1   15.14    2.02
   8   3   1   14.37    1.19
   8  -3   3  138.24    5.11
   8   3   3  138.95    4.00
  -8   3  -3  135.11    5.08
  -8   3  -5 2337.41   33.59
  -8  -3  -5 2266.46   31.42
   8  -3   5 2290.78   33.36
   8   3   5 2261.18   31.33
  -8  -3  -7  660.85   12.28
   8  -3   7  682.05   13.53
   8   3   7  661.93   12.29
   8  -3   9  259.41    7.71
  -8  -3  -9  255.21    7.11
   8   3   9  265.65    7.13
   8  -3  11  171.76    6.22
  -8  -3 -11  164.28    5.87
  -8   3 -13 1882.31   30.20
   8  -3  13 1858.09   29.41
  -8  -3 -13 1802.94   28.95
  -8  -3 -15  291.07    8.93
  -8   3 -15  291.58    9.26
  -8   3 -17   22.13    2.98
  -8  -3 -17   20.21    2.78
  -8  -3 -19   74.74    5.00
  -8   3 -19   73.70    4.97
  -8  -3 -21  356.29   11.47
  -8   3 -21  379.03   11.90
  -8   3 -23   19.82    3.26
  -8  -3 -23   20.59    3.53
   8  -4 -24  120.17    6.67
   8  -4 -22  193.19    8.23
   8   4 -20  115.51    3.93
   8  -4 -20  119.15    6.25
   8  -4 -18  539.14   13.76
   8   4 -18  558.67    9.85
   8  -4 -16  110.24    5.72
   8   4 -16  119.76    3.47
   8  -4 -14   10.59    2.28
   8   4 -14   13.10    1.15
   8   4 -12  323.97    5.57
   8  -4 -12  314.76    9.37
   8   4 -10    3.14    0.62
   8  -4 -10    2.06    1.66
   8   4  -8   40.45    1.45
   8   4  -8   40.56    1.50
   8  -4  -8   36.47    3.14
   8   4  -6   37.62    1.51
   8  -4  -6   35.84    3.03
  -8  -4   6   38.29    1.16
  -8  -4   4    1.37    0.65
   8   4  -4    3.16    0.75
   8  -4  -4    1.43    1.52
   8  -4  -2   93.02    4.54
   8   4  -2   89.58    2.88
  -8  -4   2   93.14    3.06
   8  -4   0    2.19    1.47
   8   4   0    4.16    0.99
   8   4   2  130.69    4.14
   8  -4   2  130.22    5.42
   8  -4   4   67.54    4.00
   8   4   4   58.54    2.96
   8  -4   6    0.59    2.00
   8   4   6    1.65    1.11
   8  -4   8  109.33    5.17
   8   4   8  111.92    4.60
   8  -4  10   65.45    4.11
   8  -4  12   10.31    2.07
  -8   4 -14  207.51    8.08
   8  -4  14  212.53    7.70
  -8  -4 -14  199.16    7.32
  -8  -4 -16  405.46   11.46
  -8   4 -16  440.99   12.51
  -8  -4 -18   72.00    4.91
  -8   4 -18   80.03    5.35
  -8  -4 -20  112.52    6.38
  -8   4 -20  107.88    6.39
  -8  -4 -22   37.02    4.23
   8  -5 -21   19.78    3.28
   8  -5 -19    0.45    1.98
   8  -5 -17   25.93    3.48
   8  -5 -15   56.64    4.59
   8  -5 -13   29.17    3.39
   8  -5 -11    1.42    1.86
   8  -5  -9   16.07    2.62
   8  -5  -7  476.06   12.30
  -8  -5   5  306.14    5.69
   8  -5  -5  298.33    9.33
   8  -5  -3  124.20    5.76
  -8  -5   3  120.06    3.66
  -8  -5   1    2.84    1.11
   8  -5  -1    4.08    1.83
  -8  -5  -1  113.75    4.28
   8  -5   1  113.97    5.51
  -8  -5  -3  632.48   12.55
   8  -5   3  636.08   14.39
   8  -5   5   37.61    3.39
   8  -5   7    4.99    1.85
   8  -5   9  252.55    8.46
   8  -5  11    0.80    1.62
   8  -5  13   95.62    5.36
  -8   5 -15   16.18    2.78
   8  -5  15   15.62    2.70
  -8   5 -17   13.14    2.84
   8  -6 -14  162.68    7.85
   8  -6 -12  261.54    9.88
   8  -6 -10   23.04    3.23
   8  -6  -8    6.64    2.27
   8  -6  -6  111.68    6.04
   8  -6  -4    1.08    1.81
   8  -6  -2    9.44    2.32
   8  -6   0  212.91    8.23
   8  -6   2  151.35    6.90
   8  -6   4    0.21    1.75
   8  -6   6   42.00    3.75
  -8  -6  -8   49.99    3.81
   8  -6   8   51.91    4.19
   8  -6  10  329.93   10.47
  -8  -6 -10  314.70   10.09
   8  -6  12    2.85    2.02
  -8  -6 -12    4.05    2.12
   8  -6  14   11.68    2.41
   8  -7  -3  267.16   10.08
   8  -7  -1   69.88    5.16
   8  -7   1  141.37    7.28
   8  -7   3   45.90    4.19
   9   0 -35   -2.14    2.37
   9   0 -33    1.31    1.92
   9   0 -31    1.05    1.86
   9   0 -29   -0.40    1.76
   9   0 -27    1.37    1.61
   9   0 -25    1.40    1.68
   9   0 -23    3.34    1.50
  -9   0  21    1.28    1.10
   9   0 -21    2.46    1.29
   9   0 -19   -1.05    1.27
  -9   0  19    1.27    0.99
   9   0 -17   -0.28    1.08
  -9   0  17    1.11    1.03
  -9   0  15   -0.23    1.00
   9   0 -15    1.54    1.02
   9   0 -13    0.59    0.91
  -9   0  13    0.17    0.91
   9   0 -11   -0.12    0.90
  -9   0  11    0.28    0.77
   9   0  -9    0.34    0.95
  -9   0   9    0.04    0.74
   9   0  -7    2.84    0.98
  -9   0   7    0.99    0.85
   9   0  -5   -0.01    0.93
  -9   0   5   -0.11    0.84
  -9   0   3    1.38    0.95
   9   0  -3   -0.71    0.97
  -9   0   1    1.63    1.01
   9   0  -1    2.11    1.12
  -9   0  -1   -0.25    0.95
   9   0   1   -1.04    1.10
  -9   0  -3   -0.37    1.06
   9   0   3    6.73    1.39
  -9   0  -3    1.65    1.01
  -9   0  -5    0.58    1.16
  -9   0  -5    1.49    1.09
  -9   0  -7    3.07    1.34
  -9   0  -7    0.72    1.03
  -9   0  -9    1.27    1.35
  -9   0  -9   -0.32    1.08
  -9   0 -11    0.82    1.35
  -9   0 -11    0.76    1.13
  -9   0 -13   -1.47    1.63
  -9   0 -15   -2.61    1.92
  -9   0 -17    1.26    1.68
  -9   0 -19    2.49    1.93
  -9   0 -21    1.01    1.98
  -9   0 -23    0.12    1.98
  -9   0 -25    2.81    2.44
   9   1 -34   45.35    4.18
   9   1 -32   50.09    4.07
   9   1 -30  712.55   15.67
   9   1 -28   95.67    4.92
   9  -1 -26    0.33    1.64
   9   1 -26    3.94    1.69
   9   1 -24 1280.58   21.05
   9  -1 -24 1277.22   22.14
  -9  -1  24 1243.24   20.99
  -9  -1  22  464.67   10.16
   9   1 -22  477.65   10.16
   9  -1 -22  464.80   10.99
   9   1 -20   27.14    2.18
   9   1 -20   28.02    2.00
  -9  -1  20   29.18    2.19
   9  -1 -20   27.25    2.64
   9   1 -18  149.17    4.19
  -9   1  18  142.55    5.26
  -9  -1  18  136.72    4.33
   9   1 -18  145.01    4.47
   9  -1 -18  148.90    5.30
   9   1 -16  465.62    8.62
  -9   1  16  488.75   10.28
   9   1 -16  484.21    8.40
   9  -1 -16  472.43   10.10
  -9  -1  16  457.99    8.60
   9  -1 -14  467.51    9.60
  -9  -1  14  454.60    8.01
  -9   1  14  462.83    9.61
   9   1 -14  459.13    7.84
  -9   1  12   84.98    3.47
   9   1 -12   81.67    2.46
  -9  -1  12   82.69    2.47
   9  -1 -12   85.83    3.55
   9   1 -10   27.41    1.33
   9  -1 -10   26.71    2.09
  -9  -1  10   25.82    1.22
  -9   1  10   25.32    1.96
  -9  -1   8  854.28   11.49
   9  -1  -8  861.21   14.12
  -9  -1   8  846.46   12.10
   9   1  -8  874.94   12.14
  -9   1   8  894.08   14.26
  -9   1   6  169.41    4.77
   9  -1  -6  166.96    4.75
   9   1  -6  161.43    3.57
  -9  -1   6  166.10    3.59
   9   1  -4  337.59    6.08
  -9   1   4  341.41    7.26
  -9  -1   4  326.52    5.99
   9  -1  -4  340.46    7.26
   9   1  -2 1594.75   21.94
  -9   1   2 1617.51   23.29
  -9  -1   2 1610.75   21.94
   9  -1  -2 1650.66   23.37
  -9  -1   2 1608.90   21.00
  -9   1   0  435.43    8.78
  -9  -1   0  437.41    7.98
   9  -1   0  434.81    8.84
  -9  -1   0  428.03    7.32
  -9  -1  -2  866.85   13.88
   9  -1   2  882.24   14.66
  -9  -1  -2  864.62   13.27
  -9   1  -2  882.72   14.64
  -9   1  -4    1.51    1.12
  -9  -1  -4    1.80    1.13
   9  -1   4    0.77    1.17
  -9  -1  -4    1.13    0.87
   9  -1   6  742.57   13.68
  -9  -1  -6  750.84   13.38
  -9   1  -6  762.81   13.85
  -9  -1  -6  758.98   12.97
  -9   1  -8   51.47    3.12
   9  -1   8   48.71    3.09
  -9  -1  -8   52.34    3.02
  -9   1  -8   53.50    3.12
  -9  -1  -8   47.51    2.85
   9   1  10  136.19    4.90
  -9  -1 -10  136.49    5.05
  -9   1 -10  141.58    5.30
  -9  -1 -10  131.92    4.92
  -9   1 -10  128.44    5.13
   9   1  12  224.19    6.74
  -9  -1 -12  206.38    6.62
  -9   1 -12  215.92    6.98
  -9  -1 -14  651.55   13.78
  -9   1 -14  661.15   14.10
  -9  -1 -16   49.77    3.69
  -9   1 -16   47.66    3.73
  -9  -1 -18    0.80    1.78
  -9   1 -18    2.78    1.91
  -9  -1 -20    6.26    2.29
  -9   1 -20    2.69    1.91
  -9  -1 -22  176.74    7.73
  -9   1 -22  181.62    7.92
  -9  -1 -24   23.33    3.44
  -9   1 -24   20.27    3.11
   9   2 -31   60.25    4.20
   9  -2 -31   57.13    4.62
   9   2 -29    1.93    1.61
   9  -2 -29    0.57    1.90
   9  -2 -27    9.00    2.38
   9   2 -27   16.24    2.35
   9  -2 -25   22.86    2.87
   9   2 -25   27.83    2.46
   9   2 -23   32.74    2.50
   9  -2 -23   32.98    3.17
   9   2 -21    3.60    0.87
   9  -2 -21    2.46    1.56
   9   2 -21    3.62    1.29
   9   2 -19  607.54   10.74
   9   2 -19  599.22    9.49
   9  -2 -19  588.77   13.05
   9   2 -17   77.01    2.81
   9  -2 -17   76.71    4.15
   9   2 -17   78.79    2.18
   9   2 -15    6.14    0.53
  -9   2  15    6.74    1.56
   9  -2 -15    4.44    1.58
   9   2 -15    7.44    0.95
   9  -2 -13  265.99    7.41
  -9   2  13  270.70    7.42
   9  -2 -11   27.90    2.37
   9  -2  -9    1.57    1.31
  -9   2   9    1.21    1.14
   9  -2  -7  464.29    9.77
  -9   2   7  477.42    9.89
  -9  -2   7  459.58    6.20
  -9   2   5  200.74    5.85
   9  -2  -5  202.93    5.82
  -9  -2   5  195.07    3.64
  -9  -2   3 2098.03   27.34
  -9   2   3 2159.61   30.37
   9  -2  -3 2117.98   30.20
  -9  -2   1  462.96    8.07
  -9   2   1  474.82    9.80
  -9  -2   1  459.42    7.19
   9  -2  -1  464.88    9.81
  -9  -2  -1 1189.16   17.51
  -9   2  -1 1226.59   19.32
  -9  -2  -1 1180.65   16.72
   9  -2   1 1201.35   19.31
   9   2   1 1187.48   16.66
  -9   2  -3 2461.44   34.15
  -9  -2  -3 2403.00   32.66
  -9  -2  -3 2364.71   31.80
   9  -2   3 2366.34   33.98
   9   2   3 2401.85   31.76
   9  -2   5  157.46    5.46
  -9  -2  -5  153.25    4.51
   9   2   5  154.35    4.47
  -9   2  -5  162.66    5.45
   9   2   7    6.90    1.24
  -9   2  -7    4.74    1.46
   9  -2   7    0.81    1.33
  -9  -2  -7    7.93    1.56
   9  -2   9 1561.14   24.80
  -9  -2  -9 1519.40   23.67
   9   2   9 1575.99   23.82
  -9   2 -11  898.00   17.20
   9  -2  11  910.25   17.12
  -9  -2 -11  891.26   16.36
   9   2  11  944.88   16.55
  -9  -2 -13   70.99    4.02
  -9   2 -13   71.97    4.29
  -9  -2 -15  239.81    7.86
  -9   2 -15  240.41    8.17
  -9  -2 -17 1231.08   22.84
  -9   2 -17 1286.86   23.48
  -9  -2 -19  624.38   14.97
  -9   2 -19  626.10   15.32
  -9   2 -21    8.06    2.55
  -9  -2 -21    2.69    2.01
  -9  -2 -23  179.75    8.18
  -9   2 -23  172.10    7.95
   9  -3 -28   19.85    3.28
   9  -3 -26    4.51    2.35
   9   3 -26    4.33    1.57
   9  -3 -24   45.70    4.06
   9   3 -24   49.41    2.98
   9   3 -22  243.71    6.33
   9  -3 -22  236.89    8.58
   9   3 -20  155.17    4.52
   9  -3 -20  152.94    6.61
   9   3 -18  681.22   10.99
   9  -3 -18  651.63   14.68
   9  -3 -16  500.09   12.26
   9   3 -16  529.91    8.44
   9  -3 -14  247.11    7.92
   9   3 -14  262.40    4.39
   9  -3 -12   42.47    3.29
   9  -3 -10   68.10    3.89
   9  -3  -8    3.11    1.47
   9  -3  -6  138.55    5.30
  -9   3   6  141.75    5.31
   9  -3  -4  150.84    5.49
  -9  -3   4  149.55    3.25
  -9   3   4  154.80    5.54
   9   3  -2    7.35    0.72
   9  -3  -2    7.27    1.67
  -9   3   2    9.00    1.69
  -9  -3   2    7.81    0.92
   9   3   0   12.14    1.10
  -9   3   0   13.77    1.86
   9  -3   0   11.12    1.90
  -9   3  -2   42.33    3.05
   9  -3   2   40.21    2.98
   9   3   2   40.77    2.01
  -9  -3  -4  105.84    3.71
   9  -3   4  111.37    4.78
   9   3   4  106.91    3.68
  -9  -3  -6  200.86    5.64
   9  -3   6  202.97    6.69
   9   3   6  196.84    5.58
   9   3   8    4.74    1.35
  -9  -3  -8    5.86    1.55
   9  -3   8    4.17    1.59
   9  -3  10  130.70    5.55
  -9  -3 -10  122.71    4.95
   9   3  10  129.70    5.01
   9  -3  12    5.45    1.93
  -9  -3 -12    1.39    1.48
  -9   3 -14   33.58    3.31
  -9  -3 -14   29.50    2.95
  -9  -3 -16   44.91    3.71
  -9   3 -16   48.21    4.07
  -9  -3 -18  171.08    7.26
  -9   3 -18  183.38    7.80
  -9   3 -20   21.29    3.16
  -9  -3 -20   24.45    3.23
  -9   3 -22    2.71    2.13
  -9  -3 -22   11.32    2.91
   9  -4 -25   48.49    4.64
   9  -4 -23   11.85    2.87
   9  -4 -21   21.04    3.10
   9  -4 -19  244.09    9.08
   9   4 -17    0.10    0.65
   9  -4 -17    0.04    1.85
   9  -4 -15    2.71    1.87
   9   4 -15    4.17    0.72
   9   4 -13  199.02    3.30
   9  -4 -13  188.01    7.28
   9  -4 -11  706.95   15.22
   9  -4  -9   10.43    2.03
   9  -4  -7  269.30    8.29
   9  -4  -5  341.43    9.55
  -9  -4   5  360.73    5.83
  -9  -4   5  367.19    5.83
   9   4  -5  360.67    5.67
  -9  -4   3    1.90    0.71
   9  -4  -3    0.85    1.47
   9   4  -3    0.15    0.61
   9   4  -1  168.69    4.20
   9  -4  -1  174.40    6.43
   9  -4   1    5.30    1.79
   9   4   1    5.75    1.02
   9  -4   3  242.22    7.76
   9   4   3  243.30    6.09
   9   4   5   32.16    2.27
   9  -4   5   29.33    2.87
   9  -4   7    0.46    1.50
   9   4   7   -1.27    1.26
   9  -4   9  305.10    9.16
   9  -4  11   87.61    4.86
  -9  -4 -13    4.26    1.91
   9  -4  13    2.59    1.67
  -9   4 -15   63.21    4.72
  -9  -4 -15   58.43    4.25
  -9  -4 -17   59.64    4.55
  -9   4 -17   69.14    5.03
  -9  -4 -19  150.38    7.20
  -9   4 -19  154.37    7.61
  -9  -4 -21   75.33    5.40
   9  -5 -20   25.35    3.63
   9  -5 -18  137.73    7.12
   9  -5 -16  216.79    8.74
   9  -5 -14  452.05   12.87
   9  -5 -12   50.54    4.15
   9  -5 -10  236.09    8.56
   9  -5  -8 1201.63   22.72
   9  -5  -6   81.96    4.88
  -9  -5   4   17.90    1.30
   9  -5  -4   18.75    2.72
   9  -5  -2   22.14    2.79
  -9  -5   2   24.95    1.78
   9  -5   0   10.17    2.19
  -9  -5   0   11.66    1.47
   9  -5   2    1.07    1.52
  -9  -5  -2    4.04    1.29
   9  -5   4    4.72    1.99
   9  -5   6  322.33    9.82
   9  -5   8  178.67    7.24
   9  -5  10    4.29    2.03
   9  -5  12   45.49    3.90
   9  -5  14   93.72    5.48
   9  -6 -13   11.53    2.76
   9  -6 -11    1.80    1.81
   9  -6  -9  126.34    6.92
   9  -6  -7  126.70    6.58
   9  -6  -5   -0.08    1.86
   9  -6  -3   13.95    2.66
   9  -6  -1   74.06    5.07
   9  -6   1  165.75    7.37
   9  -6   3   97.45    5.75
   9  -6   5  127.85    6.45
   9  -6   7  321.53   10.55
   9  -6   9  287.43    9.92
   9  -6  11   82.72    5.39
  -9  -6 -11   90.95    5.39
   9  -6  13   66.40    4.85
  10   0 -34  107.81    5.96
  10   0 -32  119.05    5.95
  10   0 -30   42.17    3.51
  10   0 -28  128.26    5.61
  10   0 -26  563.40   12.48
  10   0 -24  300.45    8.18
  10   0 -22  121.93    4.78
 -10   0  22  112.11    4.74
 -10   0  20  464.55   10.15
  10   0 -20  471.90    9.97
 -10   0  18 1838.76   27.07
  10   0 -18 1878.77   26.94
  10   0 -16  787.85   13.28
 -10   0  16  769.34   13.31
 -10   0  14  182.74    4.99
  10   0 -14  184.72    5.01
 -10   0  12 2745.75   36.37
  10   0 -12 2783.41   36.55
 -10   0  10  247.38    5.62
 -10   0  10  244.57    5.36
  10   0 -10  254.21    5.67
  10   0  -8   71.35    2.74
 -10   0   8   66.12    2.66
 -10   0   6  342.67    6.90
  10   0  -6  341.65    6.89
 -10   0   4 1815.45   25.37
  10   0  -4 1869.15   25.50
  10   0  -2  170.45    4.67
 -10   0   2  172.15    4.67
 -10   0   0    4.06    1.15
  10   0   0    5.58    1.27
  10   0   2 1319.84   20.14
 -10   0  -2 1345.18   20.28
  10   0   4 1619.56   24.05
 -10   0  -4 1616.73   24.03
 -10   0  -4 1600.13   23.51
 -10   0  -6 1119.79   18.35
 -10   0  -6 1106.46   17.92
 -10   0  -8  222.47    6.56
 -10   0  -8  208.48    6.24
 -10   0 -10  117.08    4.83
 -10   0 -12  926.92   17.17
 -10   0 -14   41.41    3.35
 -10   0 -16  284.61    8.99
 -10   0 -18 1808.64   30.43
 -10   0 -20  241.27    8.84
 -10   0 -22    9.73    2.44
 -10   0 -24   32.19    3.85
  10   1 -35   11.86    2.62
  10  -1 -35   11.99    2.76
  10   1 -33   17.26    2.85
  10  -1 -33   20.97    3.03
  10   1 -31   80.84    4.99
  10  -1 -31   72.68    4.86
  10  -1 -29  128.52    6.25
  10   1 -29  134.08    5.94
  10   1 -27   12.69    2.18
  10  -1 -27    8.02    2.30
  10   1 -27   11.21    1.99
  10  -1 -25    0.59    1.49
  10   1 -25   -0.06    1.34
  10   1 -25   -0.26    1.23
  10  -1 -23  144.88    5.86
  10   1 -23  153.03    4.96
  10   1 -23  157.53    5.38
 -10  -1  23  152.39    5.33
 -10  -1  21   10.51    1.53
  10  -1 -21   12.14    1.94
  10   1 -21   11.21    1.51
  10   1 -21   12.45    1.78
  10   1 -19   21.01    1.74
 -10   1  19   18.04    2.10
  10  -1 -19   21.11    2.27
 -10  -1  19   18.83    1.71
  10   1 -17  100.41    3.25
  10  -1 -17   86.68    4.00
 -10   1  17   90.84    4.12
 -10  -1  17   88.48    3.23
  10  -1 -15  526.48   10.74
 -10   1  15  527.77   10.74
 -10  -1  15  511.69    8.97
  10   1 -15  527.13    8.83
 -10   1  13  714.99   12.89
  10   1 -13  716.40   10.85
 -10  -1  13  700.20   10.84
  10  -1 -13  730.92   13.02
  10  -1 -11  160.46    4.98
 -10  -1  11  161.45    3.48
  10   1 -11  161.56    3.68
  10  -1  -9   90.90    3.60
  10   1  -9   92.00    2.62
 -10   1   9   90.33    3.59
 -10  -1   9   89.99    2.59
 -10  -1   9   93.34    2.27
 -10   1   7  235.25    6.01
  10  -1  -7  233.08    5.99
  10   1  -7  233.09    4.68
 -10  -1   7  229.32    4.68
 -10   1   5    2.03    1.00
  10  -1  -5    1.07    1.19
  10   1  -5    0.45    0.71
 -10  -1   5    1.31    0.68
  10   1  -3   51.02    2.21
 -10   1   3   53.13    2.75
  10  -1  -3   51.91    2.80
 -10  -1   3   50.21    2.16
 -10  -1   3   50.53    1.77
  10  -1  -1   15.78    1.81
 -10  -1   1   17.56    1.26
 -10   1   1   17.47    1.75
 -10  -1   1   18.60    1.54
 -10  -1  -1  601.88   10.72
  10  -1   1  611.22   11.51
 -10  -1  -1  616.53   10.12
 -10   1  -1  614.62   11.53
  10  -1   3  316.51    7.72
 -10  -1  -3  321.72    7.25
 -10  -1  -3  315.18    6.72
 -10   1  -3  322.66    7.78
  10  -1   5  146.00    5.13
 -10   1  -5  154.82    5.27
 -10  -1  -5  154.41    4.67
 -10  -1  -5  149.85    4.93
 -10   1  -7  613.86   12.35
  10  -1   7  623.32   12.51
 -10  -1  -7  631.01   12.25
 -10   1  -7  652.31   12.76
 -10  -1  -7  615.02   11.77
 -10  -1  -9   63.53    3.50
 -10  -1  -9   59.16    3.33
 -10   1  -9   62.29    3.61
 -10  -1 -11  172.00    5.98
 -10   1 -11  175.43    6.28
 -10   1 -13    4.27    1.81
 -10  -1 -13    2.69    1.63
 -10  -1 -15   84.82    4.66
 -10   1 -15   92.40    5.04
 -10   1 -17   33.18    3.39
 -10  -1 -17   32.91    3.22
 -10  -1 -19   77.76    5.04
 -10   1 -19   83.65    5.17
 -10  -1 -21  391.43   11.79
 -10   1 -21  380.06   11.89
 -10  -1 -23  320.56   10.96
 -10   1 -23  311.13   11.05
  10  -2 -32  120.41    6.85
  10   2 -30    0.66    1.50
  10  -2 -30   -2.45    1.90
  10   2 -28    2.32    1.61
  10  -2 -28    0.29    2.18
  10   2 -26  146.98    4.67
  10   2 -26  150.20    5.51
  10  -2 -26  140.25    6.55
  10  -2 -24    2.27    1.80
  10   2 -24    4.15    1.12
  10   2 -24    3.07    1.29
  10   2 -22   65.73    3.17
  10   2 -22   67.88    2.65
  10  -2 -22   67.62    4.34
  10   2 -20  424.09    7.32
  10   2 -20  421.55    8.37
  10  -2 -20  394.81   10.58
  10   2 -18   48.86    2.31
  10  -2 -18   46.15    3.38
  10   2 -18   50.12    1.78
  10   2 -16   18.68    0.88
  10  -2 -16   19.38    2.46
 -10   2  14   23.98    2.40
  10  -2 -14   24.79    2.43
  10  -2 -12   59.52    3.41
 -10   2  10    0.19    1.04
  10  -2 -10   -1.35    1.33
  10  -2  -8   85.75    3.90
 -10  -2   8   84.47    1.73
 -10   2   8   88.57    4.59
 -10   2   6    9.06    1.54
 -10  -2   6    7.92    0.71
  10  -2  -6   10.62    1.76
 -10  -2   4  110.58    2.92
 -10   2   4  112.36    4.37
  10  -2  -4  110.01    4.39
 -10  -2   2   57.48    2.29
 -10  -2   2   57.44    1.74
  10  -2  -2   57.66    3.25
 -10   2   2   61.45    3.24
  10  -2   0   20.78    2.20
 -10   2   0   26.64    2.31
 -10  -2   0   25.30    1.68
 -10  -2   0   23.64    1.39
 -10  -2  -2   16.94    1.59
 -10  -2  -2   15.60    1.40
 -10   2  -2   13.03    1.70
  10  -2   2   17.27    2.09
  10   2   4  213.83    5.35
 -10   2  -4  230.56    6.75
 -10  -2  -4  213.90    5.88
  10  -2   4  218.28    6.63
 -10  -2  -4  218.36    5.45
 -10  -2  -6  238.11    6.60
  10  -2   6  233.92    7.06
 -10  -2  -6  240.42    6.19
 -10   2  -6  246.24    7.18
  10   2   6  237.99    6.11
 -10  -2  -8  554.04   11.60
  10  -2   8  529.01   11.85
 -10  -2  -8  534.73   10.88
  10   2   8  546.35   10.94
 -10   2 -10  384.40   10.03
  10  -2  10  389.52    9.98
 -10  -2 -10  384.89    9.26
  10   2  10  389.88    9.20
 -10  -2 -12  290.65    8.30
 -10   2 -12  308.15    9.07
 -10   2 -14    1.33    1.67
 -10  -2 -14   -0.07    1.67
 -10   2 -16    8.87    2.33
 -10  -2 -16    6.67    2.04
 -10  -2 -18  190.12    7.63
 -10   2 -18  201.46    8.09
 -10   2 -20   12.15    2.74
 -10  -2 -20    7.52    2.26
 -10  -2 -22  155.85    7.56
 -10   2 -22  154.77    7.57
 -10  -2 -24    6.92    2.44
  10  -3 -29  131.70    7.09
  10  -3 -27   20.54    3.10
  10  -3 -25   -0.56    1.89
  10   3 -23  166.47    5.06
  10  -3 -23  167.50    7.28
  10   3 -21  688.91   11.63
  10  -3 -21  664.50   15.42
  10  -3 -19    3.98    1.92
  10   3 -19    3.36    0.99
  10  -3 -17  614.64   14.19
  10   3 -17  648.22    9.60
  10  -3 -15 2170.19   33.65
  10  -3 -13   12.24    2.13
  10  -3 -11   10.58    2.08
  10  -3  -9    9.96    1.95
  10  -3  -7 1357.52   22.50
  10  -3  -5  451.02   10.69
 -10  -3   5  479.44    7.17
 -10  -3   3   25.91    1.45
  10  -3  -3   21.37    2.30
 -10  -3   1  381.85    7.32
  10  -3  -1  375.68    9.47
  10   3  -1  378.57    6.39
  10  -3   1  831.82   15.89
  10   3   1  841.95   12.78
 -10  -3  -3  138.41    4.12
  10  -3   3  131.81    5.38
  10   3   3  134.32    4.00
 -10  -3  -5  195.50    5.46
  10  -3   5  193.56    6.64
  10   3   5  190.74    5.33
  10  -3   7  431.30   10.79
 -10  -3  -7  449.33    9.60
  10   3   7  444.66    9.50
  10  -3   9   51.06    3.65
 -10  -3  -9   51.16    3.16
  10   3   9   50.52    3.10
  10  -3  11 1002.92   18.92
 -10  -3 -11  955.32   17.75
 -10   3 -13  152.95    6.66
  10  -3  13  159.40    6.58
 -10  -3 -13  152.67    6.12
 -10  -3 -15  229.22    8.02
 -10   3 -15  241.50    8.74
 -10  -3 -17  229.01    8.41
 -10   3 -17  244.04    9.11
 -10   3 -19    1.73    1.99
 -10  -3 -19    3.56    2.25
 -10  -3 -21   91.74    5.85
 -10   3 -21   98.64    6.31
  10  -4 -24    9.22    2.62
  10  -4 -22   92.50    5.85
  10  -4 -20  122.54    6.54
  10  -4 -18  241.59    8.86
  10  -4 -16  102.97    5.59
  10  -4 -14  398.70   11.21
  10  -4 -12  300.92    9.32
  10  -4 -10  663.64   14.70
  10  -4  -8  474.11   11.80
  10  -4  -6   52.65    3.69
  10  -4  -4  723.72   15.41
 -10  -4   4  765.71   11.16
 -10  -4   4  767.59   11.14
  10   4  -4  734.35   10.14
  10   4  -2  308.61    5.65
  10  -4  -2  302.09    8.93
  10  -4   0  299.32    8.84
  10   4   0  295.97    6.08
  10  -4   2  152.59    6.17
  10   4   2  138.66    4.23
  10  -4   4  124.23    5.63
  10   4   4  120.32    4.24
  10  -4   6  140.80    6.11
  10   4   6  147.20    5.00
  10  -4   8   76.23    4.61
  10   4   8   74.25    3.83
  10  -4  10   32.20    3.18
  10  -4  12  370.46   10.70
 -10  -4 -12  352.00    9.76
 -10   4 -14    2.07    1.86
 -10  -4 -14    4.53    1.84
  10  -4  14    4.96    1.92
 -10   4 -16   26.22    3.33
 -10  -4 -16   23.35    3.15
 -10  -4 -18  123.73    6.60
 -10   4 -18  141.70    7.33
 -10  -4 -20    5.73    2.61
  10  -5 -19   59.68    4.87
  10  -5 -17   18.83    3.19
  10  -5 -15  180.68    7.92
  10  -5 -13   14.08    2.66
  10  -5 -11    3.75    2.07
  10  -5  -9   15.38    2.70
  10  -5  -7  150.19    6.77
  10  -5  -5  121.69    6.04
  10  -5  -3   40.78    3.63
  10  -5  -1   19.29    2.77
 -10  -5   1   19.37    1.69
 -10  -5  -1  108.19    4.16
  10  -5   1  115.17    5.84
  10  -5   3   52.52    4.03
  10  -5   5   91.21    5.20
  10  -5   7   49.40    4.04
  10  -5   9    0.23    1.80
  10  -5  11    1.88    1.78
  10  -5  13   21.20    2.91
  10  -5  15    3.50    2.13
  10  -6 -12  311.16   11.07
  10  -6 -10   36.25    4.10
  10  -6  -8    5.89    2.29
  10  -6  -6   26.12    3.39
  10  -6  -4  129.21    6.73
  10  -6  -2  162.24    7.47
  10  -6   0   24.36    3.29
  10  -6   2    0.98    1.87
  10  -6   4  112.26    6.20
  10  -6   6    4.75    2.01
  10  -6   8    5.14    2.13
  10  -6  10   97.28    5.93
  10  -6  12  166.78    7.84
  11   0 -33    0.19    1.77
  11   0 -31   -0.64    1.62
  11   0 -29    0.64    1.73
  11   0 -27    1.39    1.45
  11   0 -25    0.49    1.45
  11   0 -23    2.51    1.46
  11   0 -21    0.19    1.22
 -11   0  21    1.08    1.04
  11   0 -19   -1.09    1.17
 -11   0  19    0.24    1.04
 -11   0  17    0.45    0.98
  11   0 -17   -0.72    1.05
  11   0 -15    0.49    0.97
 -11   0  15    0.27    0.89
 -11   0  13    0.45    0.90
  11   0 -13    0.08    0.93
  11   0 -11   -0.49    0.93
 -11   0  11    0.75    0.81
 -11   0  11    0.97    0.79
 -11   0   9    0.51    0.78
  11   0  -9   -0.41    0.92
 -11   0   7    0.24    0.87
  11   0  -7    2.07    1.06
  11   0  -5    0.38    0.99
 -11   0   5    0.27    0.91
 -11   0   3    0.18    0.97
  11   0  -3   -0.46    1.01
 -11   0   1    1.33    0.96
  11   0  -1    1.11    1.09
 -11   0  -1    1.34    0.96
  11   0   1    0.38    1.12
 -11   0  -3    1.97    1.32
 -11   0  -3   -1.03    1.13
  11   0   3   -0.83    1.22
 -11   0  -5    0.09    1.17
 -11   0  -5    0.65    1.09
 -11   0  -7    1.19    1.38
 -11   0  -7   -0.02    1.06
 -11   0  -9    1.67    1.47
 -11   0 -11    0.43    1.40
 -11   0 -13    1.82    1.70
 -11   0 -15    1.77    1.80
 -11   0 -17   -2.02    1.93
 -11   0 -19    3.65    2.04
 -11   0 -21    0.06    1.96
 -11   0 -23   -0.27    2.19
  11  -1 -34   18.27    3.10
  11  -1 -32   16.84    2.81
  11   1 -30    4.27    2.02
  11  -1 -30    2.36    1.77
  11   1 -30    6.69    1.95
  11   1 -28  118.00    4.93
  11   1 -28  104.62    4.99
  11  -1 -28  110.44    5.65
  11  -1 -26  125.14    5.79
  11   1 -26  128.56    4.87
 -11  -1  24    6.19    1.44
  11   1 -24    8.14    1.43
  11  -1 -24    6.40    1.99
  11   1 -22  187.74    5.41
  11  -1 -22  187.64    6.59
 -11  -1  22  182.80    5.66
  11   1 -20  220.39    5.61
  11  -1 -20  218.45    6.86
 -11  -1  20  212.98    5.81
  11  -1 -18  281.64    7.64
 -11   1  18  271.40    7.67
 -11  -1  18  267.17    6.32
  11   1 -18  287.70    6.24
 -11   1  16  228.84    6.56
  11   1 -16  231.52    5.16
 -11  -1  16  221.37    5.22
  11  -1 -16  227.90    6.58
  11   1 -14  819.90   12.30
 -11   1  14  809.67   14.28
 -11  -1  14  789.61   12.18
  11  -1 -14  806.87   14.41
 -11  -1  12 1126.67   15.70
  11  -1 -12 1135.84   18.30
  11   1 -12 1148.08   16.07
 -11  -1  10   79.15    2.21
 -11  -1  10   78.14    2.56
  11  -1 -10   84.19    3.59
  11   1 -10   81.33    2.59
 -11   1  10   84.29    3.56
  11  -1  -8  299.23    7.14
 -11   1   8  307.71    7.26
  11   1  -8  297.32    5.75
 -11  -1   8  296.83    5.79
 -11  -1   6 1245.99   17.66
  11   1  -6 1250.18   17.67
 -11   1   6 1252.68   19.47
  11  -1  -6 1252.11   19.42
 -11  -1   4   16.27    1.07
  11  -1  -4   13.48    1.73
  11   1  -4   16.01    1.37
 -11  -1   4   15.68    1.35
 -11   1   4   14.46    1.60
  11   1  -2   32.08    1.98
 -11   1   2   28.26    2.17
  11  -1  -2   33.02    2.43
 -11  -1   2   31.68    1.93
 -11  -1   2   27.66    1.50
 -11   1   0 2139.05   30.19
  11  -1   0 2085.24   30.09
 -11  -1   0 2089.98   29.02
 -11  -1   0 2083.78   27.99
  11  -1   2  396.44    9.02
 -11  -1  -2  388.89    8.34
 -11  -1  -2  387.71    7.73
 -11   1  -2  405.41    9.10
  11  -1   4   37.17    2.75
 -11  -1  -4   39.45    2.50
 -11  -1  -4   44.08    2.52
 -11   1  -4   39.85    2.75
  11  -1   6   51.04    3.25
 -11  -1  -6   52.78    3.01
 -11   1  -6   56.36    3.31
 -11  -1  -6   46.89    2.74
 -11   1  -8  465.91   10.82
  11  -1   8  486.92   11.08
 -11  -1  -8  500.06   10.96
 -11  -1  -8  490.95   10.49
 -11  -1 -10  440.21   10.29
 -11   1 -10  460.27   10.89
 -11   1 -12   16.22    2.43
 -11  -1 -12   12.86    2.19
 -11  -1 -14  107.62    5.22
 -11   1 -14  105.67    5.34
 -11  -1 -16  155.66    6.60
 -11   1 -16  154.27    6.72
 -11  -1 -18  127.08    6.32
 -11   1 -18  119.18    6.19
 -11  -1 -20    8.23    2.61
 -11   1 -20    4.47    2.05
 -11  -1 -22   17.21    3.11
 -11   1 -22   12.77    2.91
  11  -2 -31  142.91    7.13
  11  -2 -29   10.70    2.54
  11   2 -29   15.28    2.27
  11   2 -27   93.28    4.40
  11  -2 -27   98.57    5.67
  11   2 -25  396.61    9.08
  11   2 -25  386.09    7.89
  11  -2 -25  374.66   10.94
  11   2 -23  152.71    4.10
  11   2 -23  146.47    4.82
  11  -2 -23  140.21    6.31
  11  -2 -21  157.78    6.47
  11   2 -21  172.26    4.05
  11  -2 -19 1846.04   29.38
  11   2 -19 1853.39   24.00
  11  -2 -17  252.14    7.75
  11   2 -17  253.73    4.26
  11   2 -15   43.68    1.12
  11  -2 -15   45.04    3.24
  11  -2 -13   27.64    2.55
  11  -2 -11  298.09    8.01
 -11   2  11  315.84    8.20
  11  -2  -9  563.98   11.73
 -11   2   9  579.45   11.85
  11  -2  -7   87.30    3.97
 -11   2   7   89.12    4.02
 -11  -2   7   83.02    2.22
 -11  -2   5   92.06    2.66
 -11   2   5   99.81    4.27
  11  -2  -5   90.62    4.06
 -11  -2   3  801.22   10.87
 -11  -2   3  787.69   12.32
 -11   2   3  835.82   14.95
  11  -2  -3  793.05   14.72
 -11  -2   1 1975.50   27.14
 -11   2   1 2045.47   29.67
 -11  -2   1 1960.95   25.81
  11  -2  -1 2003.29   29.60
 -11   2  -1   10.09    1.72
 -11  -2  -1    8.17    1.22
 -11  -2  -1    9.31    1.13
  11  -2   1    6.89    1.56
 -11   2  -3  182.68    6.08
 -11  -2  -3  180.55    5.30
  11  -2   3  172.45    5.98
 -11  -2  -3  180.19    4.83
 -11  -2  -5  627.76   12.12
  11  -2   5  640.03   13.12
 -11  -2  -5  622.87   11.42
  11   2   7 1713.78   25.74
 -11  -2  -7 1781.34   26.76
  11  -2   7 1746.56   27.57
 -11  -2  -7 1724.08   25.81
  11   2   9   60.05    3.28
  11  -2   9   64.70    3.98
 -11  -2  -9   60.01    3.44
 -11   2 -11  412.11   10.81
  11  -2  11  406.67   10.72
 -11  -2 -11  403.01    9.99
 -11  -2 -13  281.81    8.49
 -11   2 -13  290.81    9.21
 -11  -2 -15  279.75    8.81
 -11   2 -15  274.34    9.29
 -11  -2 -17  114.82    5.86
 -11   2 -17  124.37    6.36
 -11  -2 -19  217.05    8.49
 -11   2 -19  219.70    8.84
 -11  -2 -21  254.82    9.65
 -11   2 -21  261.31    9.99
 -11  -2 -23    6.68    2.35
  11  -3 -28    2.10    2.15
  11  -3 -26   22.58    3.27
  11  -3 -24    1.98    1.78
  11  -3 -22    6.99    2.21
  11   3 -22    9.27    1.42
  11  -3 -20   25.82    3.01
  11   3 -20   29.33    1.72
  11  -3 -18   40.77    3.54
  11  -3 -16   21.93    2.72
  11  -3 -14   -1.11    1.61
  11  -3 -12    4.58    1.76
  11  -3 -10   60.78    3.83
  11  -3  -8   12.71    2.17
  11  -3  -6   32.49    2.88
 -11  -3   6   34.90    1.21
 -11  -3   4  293.34    5.51
  11  -3  -4  286.17    8.25
  11  -3  -2   15.35    2.20
 -11  -3   2   16.21    1.34
  11   3   0   34.63    1.72
 -11  -3   0   37.21    2.15
  11  -3   0   38.35    3.11
 -11  -3  -2  176.11    5.18
 -11  -3  -2  180.64    4.63
  11  -3   2  180.84    6.50
  11   3   2  171.76    4.52
 -11  -3  -4   27.10    2.21
 -11  -3  -4   26.77    2.04
  11  -3   4   25.64    2.65
  11   3   4   24.08    1.85
  11  -3   6  228.24    7.61
 -11  -3  -6  229.01    6.27
  11   3   6  218.88    6.08
  11   3   8   16.79    1.97
 -11  -3  -8   19.39    2.18
  11  -3   8   13.89    2.29
  11  -3  10   53.79    3.97
 -11  -3 -10   59.00    3.59
 -11   3 -12   27.23    3.19
  11  -3  12   28.81    3.12
 -11  -3 -12   24.14    2.62
 -11   3 -14    1.81    2.04
 -11  -3 -14    0.97    1.77
 -11   3 -16    3.75    2.06
 -11  -3 -16    4.87    2.03
 -11   3 -18   40.02    3.95
 -11  -3 -18   40.48    3.86
 -11   3 -20   41.31    4.37
 -11  -3 -20   32.35    3.59
 -11  -3 -22   11.29    2.89
  11  -4 -23   83.64    5.58
  11  -4 -21  311.04   10.66
  11  -4 -19  180.29    7.83
  11  -4 -17   49.49    4.19
  11  -4 -15   47.08    3.98
  11  -4 -13  184.21    7.27
  11  -4 -11  539.73   13.22
  11  -4  -9  194.62    7.32
  11  -4  -7   26.44    2.95
 -11  -4   5   38.12    1.43
 -11  -4   5   37.58    1.42
  11  -4  -5   36.57    3.30
 -11  -4   3   74.68    2.62
  11  -4  -3   73.08    4.43
  11   4  -3   73.72    1.86
 -11  -4   1  533.88    9.81
  11  -4  -1  539.29   12.83
  11   4  -1  546.51    8.78
  11  -4   1   88.71    4.92
  11   4   1   89.11    3.11
  11   4   3   39.34    2.37
  11  -4   3   33.93    3.21
  11  -4   5  100.99    5.25
  11   4   5   96.47    3.93
  11  -4   7  580.61   13.91
  11   4   7  573.77   11.75
  11  -4   9   77.40    4.81
  11  -4  11   81.51    5.06
 -11  -4 -11   73.82    4.29
 -11   4 -13  198.48    8.29
  11  -4  13  184.15    7.63
 -11  -4 -13  171.86    6.88
 -11   4 -15   46.38    4.33
 -11  -4 -15   41.89    3.91
 -11   4 -17    7.38    2.43
 -11  -4 -17    8.79    2.51
 -11  -4 -19   98.86    5.97
  11  -5 -18   25.94    3.55
  11  -5 -16    3.94    2.31
  11  -5 -14  113.68    6.36
  11  -5 -12  391.95   11.87
  11  -5 -10   34.99    3.61
  11  -5  -8  344.82   10.75
  11  -5  -6  593.64   14.64
  11  -5  -4   62.27    4.53
  11  -5  -2    3.28    1.98
 -11  -5   0  299.26    7.21
  11  -5   0  306.20    9.89
  11  -5   2  183.93    7.59
  11  -5   4   58.10    4.32
  11  -5   6   48.47    4.04
  11  -5   8  104.12    5.85
  11  -5  10  185.69    7.91
  11  -5  12   25.88    3.27
  11  -5  14   83.24    5.58
  11  -6  -9   80.10    5.56
  11  -6  -7    0.42    1.93
  11  -6  -5   24.37    3.16
  11  -6  -3   56.61    4.66
  11  -6  -1    5.38    2.40
  11  -6   1   43.16    4.17
  11  -6   3   34.95    3.80
  11  -6   5   10.39    2.65
  11  -6   7   30.88    3.64
  11  -6   9   47.56    4.37
  12   0 -34    1.21    1.71
  12   0 -32  147.77    6.53
  12   0 -30  758.81   16.04
  12   0 -28    4.15    1.73
  12   0 -26   65.54    3.88
  12   0 -24  158.86    5.72
  12   0 -22   85.80    4.02
 -12   0  22   86.26    4.10
  12   0 -20   71.45    3.57
 -12   0  20   67.85    3.52
 -12   0  18  295.89    7.34
  12   0 -18  301.72    7.39
 -12   0  16 1457.59   21.95
  12   0 -16 1475.40   22.07
 -12   0  14  437.05    8.71
  12   0 -14  453.66    8.96
 -12   0  12   34.78    2.06
  12   0 -12   39.00    2.26
 -12   0  12   37.15    2.20
 -12   0  10 3294.28   43.47
  12   0 -10 3316.03   43.39
  12   0  -8 1259.58   18.79
 -12   0   8 1229.65   18.76
  12   0  -6    2.64    1.07
 -12   0   6    3.56    1.06
 -12   0   4  122.81    4.13
  12   0  -4  126.69    4.21
  12   0  -2  187.07    5.36
 -12   0   2  184.89    5.30
  12   0   0  840.64   14.66
 -12   0   0  874.32   14.78
 -12   0  -2  148.59    4.69
  12   0   2  147.29    5.02
 -12   0  -2  159.14    5.17
  12   0   4  467.23   10.26
 -12   0  -4  492.04   10.49
 -12   0  -4  462.82    9.80
 -12   0  -6 4006.05   53.69
 -12   0  -6 3928.13   52.95
 -12   0  -8  630.90   12.82
 -12   0 -10  339.46    9.10
 -12   0 -12  106.58    5.09
 -12   0 -14  204.57    7.46
 -12   0 -16   49.68    3.94
 -12   0 -18   34.75    3.68
 -12   0 -20   83.58    5.56
 -12   0 -22  287.77   10.69
  12  -1 -35   15.48    3.04
  12  -1 -33   31.94    3.57
  12  -1 -31   42.93    3.95
  12   1 -29   34.46    2.84
  12  -1 -29   29.84    3.18
  12   1 -27  176.66    5.82
  12  -1 -27  164.73    6.75
  12   1 -25    4.86    1.36
  12  -1 -25    5.17    1.86
 -12  -1  23   14.47    1.68
  12   1 -23   19.49    1.89
  12  -1 -23   20.84    2.60
  12  -1 -21    5.61    1.55
  12   1 -21    5.08    1.21
 -12  -1  21    4.12    1.11
  12  -1 -19  186.24    6.32
 -12   1  19  195.64    6.43
 -12  -1  19  189.89    5.19
  12   1 -19  188.13    5.02
  12   1 -17   12.24    1.40
  12  -1 -17   14.11    2.01
 -12   1  17   15.94    1.99
 -12  -1  17   11.81    1.31
  12   1 -15  283.17    5.84
 -12   1  15  275.79    7.25
 -12  -1  15  262.49    5.62
  12  -1 -15  276.83    7.39
 -12   1  13  402.53    8.92
  12  -1 -13  405.36    9.12
 -12  -1  13  400.88    7.03
  12   1 -13  411.48    7.41
  12  -1 -11   12.67    1.71
  12   1 -11   13.67    1.26
 -12  -1  11   13.37    0.99
 -12   1  11   14.62    1.73
 -12  -1  11   12.67    1.10
  12  -1  -9  287.76    7.17
 -12  -1   9  272.32    5.70
 -12   1   9  303.81    7.37
 -12  -1   9  277.40    4.99
  12   1  -9  280.45    5.73
  12   1  -7   25.91    1.64
 -12  -1   7   26.05    1.67
  12  -1  -7   24.74    2.16
 -12   1   7   25.18    2.11
 -12  -1   5   78.30    2.88
  12   1  -5   82.91    3.01
 -12   1   5   84.40    3.65
  12  -1  -5   88.78    3.83
  12   1  -3  109.90    3.68
 -12   1   3  113.73    4.33
  12  -1  -3  113.22    4.35
 -12  -1   3  108.35    3.60
 -12  -1   3  110.25    3.08
 -12  -1   1    3.12    0.85
 -12  -1   1    2.14    0.95
 -12   1   1    2.46    1.11
  12  -1  -1    7.68    1.61
  12  -1   1  110.16    4.48
 -12  -1  -1  110.00    4.04
 -12  -1  -1  110.50    3.62
 -12   1  -1  114.78    4.54
  12  -1   3  775.37   14.68
 -12  -1  -3  787.52   14.04
 -12  -1  -3  767.66   13.20
 -12   1  -3  800.40   14.72
  12  -1   5  504.63   11.20
 -12  -1  -5  509.84   10.78
 -12  -1  -5  483.27   10.01
 -12   1  -7   81.68    4.11
  12  -1   7   81.62    4.18
 -12  -1  -7   80.19    4.00
 -12  -1  -7   79.73    3.78
 -12  -1  -9  294.58    7.96
 -12   1  -9  288.13    8.38
 -12  -1 -11  292.50    8.33
 -12   1 -11  282.02    8.62
 -12  -1 -13  187.79    6.90
 -12   1 -13  195.59    7.33
 -12   1 -15   21.42    2.89
 -12  -1 -15   17.32    2.55
 -12  -1 -17  305.47    9.86
 -12   1 -17  320.10   10.26
 -12  -1 -19  167.49    7.48
 -12   1 -19  162.72    7.47
 -12  -1 -21   48.38    4.35
 -12   1 -21   48.70    4.47
 -12  -1 -23   44.94    4.35
  12  -2 -32    3.95    2.42
  12  -2 -30   -1.78    1.99
  12  -2 -28  161.09    7.39
  12  -2 -26    0.28    1.74
  12  -2 -24  280.34    9.18
  12   2 -24  293.22    6.16
  12  -2 -22   11.26    2.33
  12   2 -22   12.14    1.16
  12   2 -20   17.78    1.19
  12  -2 -20   19.68    2.62
  12   2 -18  243.59    4.27
  12  -2 -18  242.81    7.77
  12   2 -16   79.84    1.81
  12  -2 -16   79.61    4.34
  12   2 -14    4.11    0.40
  12  -2 -14    4.05    1.62
  12  -2 -12   43.05    3.12
 -12   2  10  164.42    5.78
  12  -2 -10  154.40    5.60
  12  -2  -8  286.66    7.81
 -12   2   8  288.04    7.85
 -12  -2   8  289.54    5.11
 -12   2   6   62.80    3.50
 -12  -2   6   53.47    2.03
  12  -2  -6   56.18    3.32
 -12  -2   4  224.46    3.68
 -12  -2   4  215.97    4.97
 -12   2   4  227.67    6.82
  12  -2  -4  224.57    6.75
 -12  -2   2  106.14    2.78
 -12   2   2  112.58    4.72
 -12  -2   2  111.34    3.59
  12  -2  -2  108.16    4.69
 -12  -2   0  271.41    6.47
 -12  -2   0  279.84    5.72
  12  -2   0  283.08    7.91
 -12  -2  -2   10.77    1.41
 -12  -2  -2   11.90    1.34
  12  -2   2   12.74    1.99
 -12  -2  -4  104.86    4.24
  12  -2   4  107.50    4.85
 -12  -2  -4  108.15    3.88
 -12  -2  -6  151.62    5.40
  12  -2   6  149.38    5.91
 -12  -2  -6  145.99    4.93
  12  -2   8   29.50    2.86
 -12  -2  -8   26.39    2.46
 -12   2 -10   77.77    4.59
  12  -2  10   78.10    4.52
 -12  -2 -10   78.95    4.11
 -12  -2 -12   86.03    4.53
 -12   2 -12   84.48    4.91
 -12  -2 -14  388.00   10.51
 -12   2 -14  375.77   11.07
 -12   2 -16    7.53    2.11
 -12  -2 -16   14.56    2.51
 -12   2 -18   21.88    3.19
 -12  -2 -18   19.74    2.89
 -12   2 -20   10.58    2.69
 -12  -2 -20    1.20    2.06
 -12  -2 -22   13.26    2.76
  12  -3 -27   98.26    6.10
  12  -3 -25  296.41   10.29
  12  -3 -23   55.02    4.40
  12  -3 -21   -0.94    2.00
  12  -3 -19  728.67   16.25
  12  -3 -17    0.52    1.69
  12  -3 -15    6.21    2.09
  12  -3 -13  461.91   11.54
  12  -3 -11  129.04    5.69
  12  -3  -9    1.87    1.52
  12  -3  -7  131.71    5.59
 -12  -3   7  138.58    2.50
 -12  -3   5  652.82    9.89
  12  -3  -5  643.30   13.73
 -12  -3   3  124.47    3.57
  12  -3  -3  123.08    5.39
  12  -3  -1   13.00    2.16
 -12  -3   1   13.09    1.41
 -12  -3  -1  424.65    8.84
 -12  -3  -1  426.21    7.85
  12  -3   1  422.72   10.73
  12   3   3 1160.25   17.54
 -12  -3  -3 1137.58   18.68
 -12  -3  -3 1150.73   17.61
  12  -3   3 1156.02   20.74
  12   3   5  596.13   11.24
 -12  -3  -5  587.20   12.10
 -12  -3  -5  590.44   11.26
  12  -3   5  599.65   13.57
  12  -3   7  227.61    7.83
 -12  -3  -7  225.74    6.57
  12   3   7  225.73    6.45
  12  -3   9  447.43   11.64
 -12  -3  -9  416.05   10.09
  12  -3  11  532.30   13.26
 -12  -3 -11  511.78   11.95
 -12   3 -13  145.62    6.87
 -12  -3 -13  145.11    6.21
 -12   3 -15    3.92    1.87
 -12  -3 -15    4.71    2.06
 -12  -3 -17  636.61   15.43
 -12   3 -17  648.97   16.48
 -12  -3 -19   82.33    5.51
 -12  -3 -21    3.00    2.38
  12  -4 -24  492.63   14.28
  12  -4 -22   25.72    3.61
  12  -4 -20   26.22    3.58
  12  -4 -18   92.92    5.63
  12  -4 -16  101.16    5.72
  12  -4 -14  293.63    9.66
  12  -4 -12   47.87    3.90
  12  -4 -10  261.13    8.77
  12  -4  -8  151.11    6.48
  12  -4  -6   22.00    2.82
 -12  -4   4  546.58    8.82
  12  -4  -4  531.12   13.02
 -12  -4   2  113.15    3.62
  12  -4  -2  119.50    5.74
 -12  -4   0  407.97    8.52
  12  -4   0  414.15   11.18
  12   4   0  407.15    7.37
 -12  -4  -2  337.55    8.05
  12  -4   2  339.23   10.05
  12   4   2  334.22    7.07
 -12  -4  -4  109.49    4.58
  12  -4   4   99.44    5.33
  12   4   4  106.55    3.99
  12  -4   6  221.86    8.14
  12  -4   8   85.08    5.07
 -12  -4 -10   22.81    2.55
  12  -4  10   25.00    3.04
  12  -4  12  126.34    6.43
 -12  -4 -12  125.65    5.71
 -12   4 -14  117.80    6.53
  12  -4  14  120.84    6.50
 -12  -4 -14  107.90    5.70
 -12  -4 -16    8.98    2.37
 -12  -4 -18    3.22    2.17
 -12  -4 -20   42.75    4.35
  12  -5 -17    6.36    2.27
  12  -5 -15    8.13    2.46
  12  -5 -13   -0.55    2.12
  12  -5 -11    6.47    2.12
  12  -5  -9   82.18    5.30
  12  -5  -7   11.26    2.36
  12  -5  -5   56.34    4.39
  12  -5  -3   12.86    2.62
  12  -5  -1   14.66    2.64
  12  -5   1   33.81    3.60
  12  -5   3    7.99    2.41
  12  -5   5   23.19    3.11
  12  -5   7   10.60    2.39
  12  -5   9    3.39    2.24
  12  -5  11    8.24    2.56
  12  -5  13   34.93    3.88
  12  -6  -8  144.50    7.41
  12  -6  -6   14.27    2.85
  12  -6  -4   15.63    3.17
  12  -6  -2  348.19   11.59
  12  -6   0  135.27    7.12
  12  -6   2   40.44    4.01
  12  -6   4    5.19    2.23
  13   0 -33   -0.53    1.81
  13   0 -31    1.60    1.74
  13   0 -29    1.16    1.55
  13   0 -27    5.44    1.75
  13   0 -25    2.80    1.54
  13   0 -23   -0.40    1.22
  13   0 -21   -1.55    1.28
 -13   0  21    0.39    1.07
  13   0 -19    0.73    1.18
 -13   0  19    1.36    1.12
  13   0 -17   -0.67    1.04
 -13   0  17    0.96    0.97
  13   0 -15    0.24    1.15
 -13   0  15    0.30    0.95
 -13   0  13    0.17    0.87
  13   0 -13   -0.59    1.10
 -13   0  11    1.22    0.96
  13   0 -11    0.48    1.10
 -13   0   9    0.36    0.81
  13   0  -9    0.40    0.99
  13   0  -7    1.35    1.10
 -13   0   7    0.84    1.00
 -13   0   5   -0.31    0.87
  13   0  -5    0.50    1.01
  13   0  -3    0.76    1.10
 -13   0   3    1.29    1.08
 -13   0   1   -0.46    1.08
  13   0  -1    0.81    1.16
 -13   0  -1    0.47    1.12
  13   0   1    1.29    1.20
 -13   0  -3    0.47    1.16
 -13   0  -3   -0.71    1.12
  13   0   3    0.89    1.23
 -13   0  -5    0.02    1.27
 -13   0  -7   -0.34    1.38
 -13   0  -9    1.01    1.52
 -13   0 -11   -0.88    1.51
 -13   0 -13    0.77    1.66
 -13   0 -15   -1.83    2.01
 -13   0 -17   -1.61    1.96
 -13   0 -19   -0.56    1.98
 -13   0 -21   -2.40    2.11
  13  -1 -34   55.77    4.62
  13  -1 -32   36.22    3.70
  13  -1 -30   14.27    2.66
  13   1 -28  134.41    5.14
  13  -1 -28  121.03    5.92
  13   1 -26  281.58    7.41
  13  -1 -26  267.39    8.71
 -13  -1  24   22.78    2.14
  13  -1 -24   20.95    2.60
  13   1 -24   21.83    1.98
  13  -1 -22   68.45    4.11
 -13  -1  22   63.02    3.13
  13   1 -22   63.84    3.07
  13   1 -20  129.39    4.14
 -13  -1  20  129.90    4.30
  13  -1 -20  132.36    5.39
  13   1 -18  557.12    9.98
 -13   1  18  548.81   11.81
 -13  -1  18  552.73    9.97
  13  -1 -18  543.49   11.82
 -13   1  16   18.04    2.12
  13  -1 -16   17.74    2.13
  13   1 -16   15.76    1.43
 -13  -1  16   18.16    1.43
 -13   1  14  408.31    9.17
  13  -1 -14  400.81    9.32
 -13  -1  14  402.35    7.20
  13   1 -14  397.95    7.55
  13  -1 -12  460.09   10.12
 -13   1  12  471.26   10.21
 -13  -1  12  467.31    7.79
  13   1 -12  477.31    8.47
  13  -1 -10  685.03   13.00
 -13  -1  10  695.18   10.34
 -13  -1  10  692.18   11.32
  13   1 -10  712.37   11.36
 -13   1  10  696.03   13.19
 -13   1   8   34.35    2.52
  13   1  -8   33.31    1.95
 -13  -1   8   32.59    1.91
  13  -1  -8   34.61    2.54
 -13  -1   6  286.27    6.32
  13   1  -6  286.25    6.34
 -13   1   6  299.33    7.58
  13  -1  -6  284.62    7.42
 -13  -1   4 1778.62   23.81
  13   1  -4 1771.13   25.13
 -13   1   4 1820.71   26.76
  13  -1  -4 1787.09   26.73
 -13  -1   4 1745.91   25.10
 -13   1   2   35.86    2.70
  13  -1  -2   35.53    2.65
 -13  -1   2   37.41    2.28
 -13  -1   2   36.29    1.90
 -13  -1   0   13.13    1.39
 -13  -1   0   14.70    1.65
 -13   1   0   12.62    1.71
  13  -1   0   15.13    2.00
  13  -1   2  172.43    5.92
 -13  -1  -2  168.56    5.46
 -13  -1  -2  174.96    5.02
 -13   1  -2  172.12    5.90
  13  -1   4 1109.93   19.58
 -13  -1  -4 1151.94   19.15
 -13  -1  -4 1134.05   18.20
 -13   1  -6  123.43    5.13
  13  -1   6  123.47    5.29
 -13  -1  -6  122.78    4.67
 -13   1  -8   18.87    2.36
 -13  -1  -8   14.42    1.95
 -13  -1 -10  672.80   13.95
 -13   1 -10  689.39   14.72
 -13  -1 -12 1497.37   25.30
 -13   1 -12 1522.64   26.07
 -13   1 -14   20.94    2.80
 -13  -1 -14   17.68    2.56
 -13   1 -16    9.48    2.44
 -13  -1 -16    6.98    2.33
 -13  -1 -18  322.93   10.59
 -13   1 -18  330.78   10.89
 -13  -1 -20  102.81    6.22
 -13   1 -20  106.79    6.34
 -13  -1 -22   12.27    2.90
  13  -2 -31  228.14    9.23
  13  -2 -29  227.48    8.82
  13  -2 -27    2.42    2.93
  13  -2 -25    2.70    1.91
  13  -2 -23  171.48    6.98
  13   2 -21  750.09   11.03
  13  -2 -21  721.76   15.76
  13  -2 -19   20.56    2.73
  13   2 -19   25.93    1.23
  13   2 -17    7.82    0.67
  13  -2 -17    6.92    1.90
  13   2 -15  362.41    5.41
  13  -2 -15  349.26    9.42
  13  -2 -13  417.64   10.27
  13  -2 -11   12.30    1.97
  13  -2  -9  125.72    5.12
 -13  -2   9  128.29    3.07
 -13  -2   7  369.51    6.70
  13  -2  -7  380.18    9.39
 -13  -2   5  375.22    5.29
  13  -2  -5  375.91    9.33
 -13  -2   5  367.31    7.08
 -13  -2   3    4.80    1.00
  13  -2  -3    0.11    1.38
 -13  -2   3    2.25    0.63
 -13  -2   1  180.68    5.12
 -13  -2   1  184.11    4.30
  13  -2  -1  182.24    6.34
 -13  -2  -1   41.60    2.58
  13  -2   1   40.94    3.19
 -13  -2  -1   43.38    2.20
 -13  -2  -3    2.40    1.10
  13  -2   3    1.57    1.60
 -13  -2  -3    4.03    1.25
  13  -2   5  895.79   17.31
 -13  -2  -5  902.83   16.22
 -13  -2  -5  875.69   15.20
  13  -2   7  120.96    5.52
 -13  -2  -7  114.02    4.58
 -13   2  -9   47.37    3.66
  13  -2   9   50.92    3.88
 -13  -2  -9   46.63    3.29
 -13  -2 -11  214.74    7.27
 -13   2 -11  216.99    7.97
 -13  -2 -13   80.19    4.62
 -13   2 -13   85.63    5.17
 -13  -2 -15  373.47   10.76
 -13   2 -15  375.17   11.39
 -13   2 -17   27.14    3.47
 -13  -2 -17   28.37    3.40
 -13  -2 -19  111.78    6.33
 -13   2 -19  125.14    6.97
 -13  -2 -21  412.28   12.90
  13  -3 -28   13.34    2.96
  13  -3 -26    4.09    2.17
  13  -3 -24   98.78    5.92
  13  -3 -22   32.86    3.57
  13  -3 -20   30.57    3.29
  13  -3 -18    4.84    2.07
  13  -3 -16   64.31    4.25
  13  -3 -14    2.86    1.70
  13  -3 -12    7.74    1.95
  13  -3 -10  469.88   11.70
  13  -3  -8  256.75    8.13
  13  -3  -6  161.38    6.30
 -13  -3   6  159.45    3.54
 -13  -3   4   91.81    3.01
  13  -3  -4   90.93    4.75
  13  -3  -2    4.00    1.87
 -13  -3   2    1.37    0.76
  13  -3   0   10.13    2.24
 -13  -3   0   11.44    1.20
 -13  -3   0   12.71    1.46
 -13  -3  -2  210.13    6.09
 -13  -3  -2  215.41    5.33
  13  -3   2  210.16    7.42
 -13  -3  -4    2.93    1.16
 -13  -3  -4    2.04    1.13
  13  -3   4    2.06    1.63
  13  -3   6  168.18    6.88
 -13  -3  -6  163.95    5.39
  13   3   8   82.61    3.95
  13  -3   8   76.32    4.74
 -13  -3  -8   81.27    4.05
  13  -3  10    6.87    2.04
 -13  -3 -10    8.34    2.01
 -13   3 -12    4.79    2.14
  13  -3  12    5.05    2.00
 -13  -3 -12    7.17    2.10
 -13   3 -14   22.64    3.23
 -13  -3 -14   21.03    2.99
 -13   3 -16   38.22    4.16
 -13  -3 -16   42.63    3.91
 -13  -3 -18    5.13    2.33
 -13  -3 -20    3.91    2.49
  13  -4 -23   75.58    5.45
  13  -4 -21  426.85   12.96
  13  -4 -19  146.96    7.12
  13  -4 -17   15.51    2.67
  13  -4 -15  272.35    9.47
  13  -4 -13   94.37    5.45
  13  -4 -11    3.64    1.85
  13  -4  -9    8.71    2.20
  13  -4  -7  106.95    5.54
  13  -4  -5   52.43    3.96
  13  -4  -3    9.15    2.26
  13  -4  -1  363.67   10.68
 -13  -4  -1  106.81    4.17
  13  -4   1  102.36    5.47
  13  -4   3    1.58    1.71
  13  -4   5  133.44    6.39
  13  -4   7   41.25    3.70
 -13  -4  -9   28.44    2.71
  13  -4   9   31.99    3.44
 -13  -4 -11    6.25    1.93
  13  -4  11    4.09    1.98
 -13   4 -13   79.06    5.53
  13  -4  13   72.91    5.36
 -13  -4 -13   69.86    4.49
 -13  -4 -15  134.96    6.52
 -13  -4 -17   11.16    2.59
 -13  -4 -19    3.35    2.46
  13  -5 -16   17.85    3.13
  13  -5 -14  210.55    8.82
  13  -5 -12  163.87    7.65
  13  -5 -10  274.60    9.89
  13  -5  -8   26.51    3.36
  13  -5  -6   81.05    5.26
  13  -5  -4  401.00   11.97
  13  -5  -2  223.95    8.71
  13  -5   0  117.69    6.37
  13  -5   2  270.24    9.75
  13  -5   4  510.16   13.95
  13  -5   6   52.55    4.43
  13  -5   8   34.08    3.61
  13  -5  10   84.12    5.64
  14   0 -32    6.90    2.19
  14   0 -30  175.21    6.86
  14   0 -28   42.82    3.31
  14   0 -26   35.07    2.91
  14   0 -24    5.30    1.61
 -14   0  22  463.65   10.63
  14   0 -22  507.89   10.90
 -14   0  20  365.95    8.69
  14   0 -20  364.58    8.67
  14   0 -18   99.46    4.10
 -14   0  18  102.16    4.09
  14   0 -16    6.01    1.26
 -14   0  16    6.33    1.30
  14   0 -14 1959.57   28.06
 -14   0  14 1946.33   27.54
 -14   0  12  873.07   14.83
  14   0 -12  870.16   14.73
 -14   0  10  140.20    4.69
  14   0 -10  149.56    4.75
  14   0  -8  747.51   13.14
 -14   0   8  718.47   12.98
 -14   0   6 1468.18   22.31
  14   0  -6 1471.39   22.26
  14   0  -4   15.15    1.79
 -14   0   4   14.74    1.69
 -14   0   2  291.48    7.52
  14   0  -2  298.74    7.58
  14   0   0 1073.76   18.23
 -14   0   0 1081.62   18.25
 -14   0  -2  719.55   13.24
  14   0   2  710.97   13.84
 -14   0  -2  717.95   13.98
 -14   0  -4   78.08    3.84
 -14   0  -6   23.78    2.42
 -14   0  -8 1032.84   18.69
 -14   0 -10    4.76    1.85
 -14   0 -12  227.57    7.90
 -14   0 -14  264.86    8.93
 -14   0 -16  618.43   15.18
 -14   0 -18  207.96    8.64
 -14   0 -20   10.19    2.47
  14  -1 -33  103.37    6.02
  14  -1 -31  125.88    6.31
  14  -1 -29   23.88    3.14
  14  -1 -27    3.21    1.72
  14   1 -27    2.21    1.26
  14   1 -25  580.44   11.49
  14  -1 -25  569.85   13.37
  14  -1 -23   30.85    2.97
  14   1 -23   35.84    2.37
 -14  -1  23   29.90    2.27
  14  -1 -21   11.87    1.99
  14   1 -21   12.56    1.52
 -14  -1  21   12.49    1.50
  14   1 -19  459.66    8.79
  14  -1 -19  440.55   10.56
 -14  -1  19  425.44    8.61
 -14   1  17   16.49    2.02
  14  -1 -17   16.43    2.13
  14   1 -17   15.68    1.49
 -14  -1  17   14.74    1.37
  14  -1 -15   18.22    2.14
  14   1 -15   14.48    1.46
 -14   1  15   17.63    2.06
 -14  -1  15   15.46    1.36
  14  -1 -13  132.58    5.02
 -14  -1  13  131.47    3.45
 -14   1  13  136.76    5.04
  14   1 -13  131.49    3.91
  14  -1 -11  151.39    5.31
 -14  -1  11  147.09    3.57
  14   1 -11  154.59    4.28
 -14  -1  11  144.30    4.18
 -14   1  11  160.15    5.51
 -14   1   9  768.52   14.28
  14   1  -9  765.72   12.51
  14  -1  -9  750.33   14.09
 -14  -1   9  748.39   12.45
  14  -1  -7   22.07    2.25
 -14   1   7   23.50    2.26
 -14  -1   7   18.10    1.58
  14   1  -7   20.03    1.70
  14  -1  -5    0.88    1.35
 -14  -1   5    2.17    0.72
  14   1  -5    2.16    0.97
 -14   1   5    1.78    1.38
 -14  -1   5    1.06    0.85
  14   1  -3   36.23    2.41
 -14   1   3   37.84    2.74
  14  -1  -3   37.73    2.82
 -14  -1   3   36.19    2.30
 -14  -1   3   35.83    1.92
 -14   1   1   74.49    3.84
  14  -1  -1   74.46    3.86
 -14  -1   1   73.56    3.45
 -14  -1   1   75.45    2.98
  14  -1   1  398.77    9.79
 -14  -1  -1  397.54    9.15
 -14  -1  -1  402.17    8.35
 -14  -1  -3   18.24    1.92
  14  -1   3   15.82    2.31
 -14  -1  -3   17.85    1.99
  14  -1   5  865.47   16.72
 -14  -1  -5  859.10   15.32
 -14   1  -7   69.90    4.12
  14  -1   7   68.68    4.24
 -14  -1  -7   64.94    3.59
 -14   1  -9    8.57    2.03
 -14  -1  -9    4.31    1.55
 -14  -1 -11  193.40    6.97
 -14   1 -11  182.16    7.13
 -14  -1 -13   57.00    4.04
 -14   1 -13   72.02    4.68
 -14  -1 -15   70.37    4.70
 -14   1 -15   76.36    5.02
 -14   1 -17   34.34    3.83
 -14  -1 -17   27.60    3.55
 -14  -1 -19   49.87    4.38
 -14   1 -19   47.16    4.38
 -14  -1 -21   24.87    3.44
  14  -2 -30   12.93    2.75
  14  -2 -28   38.06    3.77
  14  -2 -26    6.14    2.30
  14  -2 -24    2.27    1.83
  14  -2 -22  314.88    9.64
  14  -2 -20   10.54    2.18
  14   2 -20    5.81    0.74
  14   2 -18   27.36    1.17
  14  -2 -18   25.16    2.82
  14  -2 -16    7.72    2.04
  14   2 -16    5.59    0.66
  14   2 -14  450.79    6.82
  14  -2 -14  442.57   10.93
  14  -2 -12   14.62    2.23
  14  -2 -10  124.79    5.30
 -14  -2  10  126.20    3.17
 -14  -2   8  216.01    4.74
  14  -2  -8  203.27    6.80
 -14  -2   6  193.02    4.75
  14  -2  -6  193.86    6.61
  14  -2  -4   36.66    3.03
 -14  -2   4   37.35    1.48
 -14  -2   4   35.37    2.08
  14  -2  -2    5.17    1.77
 -14  -2   2    6.24    1.28
 -14  -2   2    6.52    0.95
  14  -2   0   95.04    4.73
 -14  -2   0   98.27    3.92
 -14  -2   0   97.66    3.26
  14  -2   2   48.55    3.49
 -14  -2  -2   44.64    2.83
 -14  -2  -2   45.04    2.44
  14  -2   4   78.63    4.49
 -14  -2  -4   79.75    3.94
 -14  -2  -4   77.22    3.50
  14  -2   6  146.16    6.22
 -14  -2  -6  137.63    5.03
  14  -2   8  111.11    5.54
 -14  -2  -8  112.34    4.83
 -14   2 -10   72.92    4.67
  14  -2  10   73.57    4.71
 -14  -2 -10   75.01    4.21
 -14   2 -12   -3.10    2.09
 -14  -2 -12    0.99    1.56
 -14   2 -14   42.88    4.01
 -14  -2 -14   41.89    3.69
 -14  -2 -16   68.98    4.73
 -14   2 -16   70.83    5.12
 -14  -2 -18  157.72    7.41
 -14   2 -18  141.26    7.50
 -14  -2 -20    0.17    2.31
  14  -3 -27   32.21    3.84
  14  -3 -25  801.99   18.54
  14  -3 -23   16.53    2.78
  14  -3 -21    6.89    2.08
  14  -3 -19   83.90    5.08
  14  -3 -17  675.96   15.40
  14  -3 -15    4.90    1.74
  14  -3 -13    5.11    2.07
  14  -3 -11  128.37    5.90
  14  -3  -9  300.41    9.11
 -14  -3   7  206.66    4.07
  14  -3  -7  186.07    7.03
  14  -3  -5   52.23    3.84
 -14  -3   5   53.36    2.23
 -14  -3   3 1057.93   16.14
  14  -3  -3 1001.64   19.50
 -14  -3   1  583.10   10.90
  14  -3  -1  577.35   13.54
 -14  -3  -1    0.52    0.84
 -14  -3  -1    2.83    1.15
  14  -3   1   -1.10    1.83
 -14  -3  -3    5.70    1.26
 -14  -3  -3    2.80    1.13
  14  -3   3    2.73    1.74
  14  -3   5  730.98   15.98
 -14  -3  -5  723.44   13.28
  14  -3   7   80.84    5.06
 -14  -3  -7   75.56    3.89
  14  -3   9   48.98    4.06
 -14  -3  -9   47.16    3.35
 -14   3 -11  343.77   10.97
  14  -3  11  358.54   11.07
 -14  -3 -11  325.15    9.42
 -14  -3 -13  180.01    7.13
 -14   3 -13  180.33    8.02
 -14   3 -15   27.98    3.45
 -14  -3 -15   24.91    3.17
 -14  -3 -17   54.35    4.43
 -14  -3 -19  336.35   11.35
  14  -4 -22   78.89    5.61
  14  -4 -20   30.70    3.65
  14  -4 -18   31.29    3.62
  14  -4 -16   29.91    3.50
  14  -4 -14  252.33    9.20
  14  -4 -12   31.01    3.41
  14  -4 -10   30.42    3.37
  14  -4  -8   58.04    4.29
  14  -4  -6  296.67    9.58
  14  -4  -4  307.37    9.84
  14  -4  -2  271.02    9.20
  14  -4   0  279.65    9.42
  14  -4   2   10.17    2.43
  14  -4   4  149.49    6.90
  14  -4   6   85.79    5.40
  14  -4   8  249.39    9.35
 -14  -4  -8  250.84    7.49
  14  -4  10  156.58    7.40
 -14  -4 -10  147.33    6.01
 -14   4 -12    8.40    2.60
  14  -4  12   11.33    2.76
 -14  -4 -12   10.47    2.15
 -14  -4 -14   22.60    3.09
 -14  -4 -16    6.59    2.44
  14  -5 -15   51.68    4.58
  14  -5 -13   15.94    2.99
  14  -5 -11   10.24    2.68
  14  -5  -9    1.39    1.89
  14  -5  -7   16.57    2.75
  14  -5  -5    5.09    2.07
  14  -5  -3   11.65    2.59
  14  -5  -1   12.16    2.60
  14  -5   1   23.34    3.33
  14  -5   3   18.74    3.00
  14  -5   5    5.25    2.27
  14  -5   7   14.49    3.02
  15   0 -31    2.09    1.77
  15   0 -29   -0.72    1.61
  15   0 -27   -1.85    1.61
  15   0 -25    1.05    1.49
  15   0 -23    0.70    1.35
  15   0 -21   -1.32    1.43
 -15   0  21    0.51    1.14
  15   0 -19   -0.01    1.17
 -15   0  19   -2.02    1.27
 -15   0  17    2.29    1.14
  15   0 -17   -1.29    1.25
 -15   0  15    2.78    1.14
  15   0 -15    4.62    1.39
 -15   0  13    0.10    0.98
 -15   0  13    0.50    0.90
  15   0 -13    2.66    1.29
  15   0 -11    1.94    1.10
 -15   0  11   -0.76    0.99
  15   0  -9    0.89    1.18
 -15   0   9    0.58    0.97
 -15   0   7    0.09    0.94
  15   0  -7    0.49    1.19
 -15   0   5    1.22    1.10
  15   0  -5    0.07    1.25
  15   0  -3    0.00    1.35
 -15   0   3    1.13    1.02
  15   0  -1    0.83    1.31
 -15   0   1    0.94    1.16
 -15   0  -1   -1.61    1.46
  15   0   1    1.69    1.51
 -15   0  -3    1.12    1.30
  15   0   3   -0.53    1.52
 -15   0  -5   -0.21    1.48
 -15   0  -7    0.15    1.44
 -15   0  -9    0.67    1.57
 -15   0 -11    1.30    1.76
 -15   0 -13   -0.73    1.77
 -15   0 -15   -1.47    2.25
 -15   0 -17   -0.03    1.85
 -15   0 -19   -1.31    2.99
  15  -1 -34   33.49    3.93
  15  -1 -32  130.04    6.60
  15  -1 -30   27.74    3.19
  15  -1 -28   86.03    5.09
  15   1 -26  234.11    6.59
  15  -1 -26  219.43    7.95
  15   1 -24  138.50    4.74
  15  -1 -24  136.68    5.97
  15   1 -22    3.33    1.12
  15  -1 -22    0.63    1.65
  15  -1 -20    2.17    1.60
  15   1 -20    1.65    1.18
 -15  -1  20    1.38    0.94
  15  -1 -18  319.18    8.75
 -15  -1  18  319.56    6.86
  15   1 -18  338.70    7.24
  15  -1 -16  942.65   17.11
 -15   1  16  925.12   16.74
 -15  -1  16  927.51   14.25
  15   1 -16  950.04   14.87
  15  -1 -14   58.22    3.49
 -15  -1  14   59.52    2.32
  15   1 -14   61.00    2.73
 -15   1  12    8.75    1.83
 -15  -1  12    7.54    1.12
 -15  -1  12    7.29    0.95
  15  -1 -12    5.72    1.58
  15   1 -12    6.16    1.17
 -15  -1  10 1568.22   22.76
 -15   1  10 1585.14   24.90
  15   1 -10 1597.34   22.78
  15  -1 -10 1554.85   24.67
  15   1  -8  930.68   14.93
 -15  -1   8  889.32   14.79
  15  -1  -8  932.65   16.63
 -15   1   8  928.97   16.67
  15   1  -6  301.29    7.04
 -15  -1   6  287.72    6.93
  15  -1  -6  297.60    8.09
 -15   1   6  316.08    8.27
 -15  -1   4  251.49    6.66
  15   1  -4  262.92    6.67
  15  -1  -4  263.03    7.54
 -15  -1   4  258.51    5.76
  15  -1  -2  256.18    7.60
 -15  -1   2  259.96    6.86
 -15  -1   2  262.82    6.12
  15  -1   0 1297.53   22.02
 -15  -1   0 1327.38   21.16
 -15  -1   0 1294.99   19.82
  15  -1   2  275.39    8.20
 -15  -1  -2  272.55    7.66
 -15  -1  -2  274.66    7.00
  15  -1   4   33.13    3.07
 -15  -1  -4   32.29    2.50
 -15   1  -6  451.26   11.17
  15  -1   6  462.87   11.52
 -15  -1  -6  443.90   10.28
 -15  -1  -8  223.45    7.23
 -15   1  -8  224.85    7.77
 -15   1 -10   24.67    2.99
 -15  -1 -10   25.86    2.75
 -15  -1 -12  111.26    5.50
 -15   1 -12  117.05    5.90
 -15  -1 -14  102.67    5.56
 -15   1 -14   97.56    5.72
 -15   1 -16    2.32    1.96
 -15  -1 -16    4.60    2.15
 -15  -1 -18    6.39    2.33
 -15   1 -18    7.17    2.42
 -15  -1 -20  113.82    6.63
  15  -2 -31   14.59    2.86
  15  -2 -29   58.50    4.60
  15  -2 -27   55.57    4.41
  15  -2 -25  577.68   14.40
  15  -2 -23    0.08    1.84
  15  -2 -21  187.78    7.29
  15   2 -19  216.34    4.07
  15  -2 -19  212.88    7.63
  15   2 -17   47.31    1.64
  15  -2 -17   42.85    3.47
  15  -2 -15   25.33    2.74
  15   2 -15   24.37    1.22
  15  -2 -13  308.94    8.93
  15  -2 -11   71.89    4.16
 -15  -2  11   65.44    2.28
 -15  -2   9    2.99    0.86
  15  -2  -9    4.36    1.75
 -15  -2   7  727.28   11.94
  15  -2  -7  750.07   15.06
 -15  -2   5  475.98    7.16
  15  -2  -5  468.60   11.34
 -15  -2   5  469.77    9.06
  15  -2  -3   13.67    2.16
 -15  -2   3   16.60    1.64
 -15  -2   3   15.62    1.20
  15  -2  -1   62.12    3.94
 -15  -2   1   68.77    2.72
 -15  -2   1   68.92    3.34
  15  -2   1  940.73   18.24
 -15  -2  -1  964.29   16.68
 -15  -2  -1  942.18   15.19
  15  -2   3   62.10    4.12
 -15  -2  -3   64.06    3.58
 -15  -2  -3   67.10    3.23
  15  -2   5   63.11    4.17
 -15  -2  -5   52.54    3.14
  15  -2   7   52.79    4.00
 -15  -2  -7   49.60    3.26
 -15   2  -9  613.16   14.61
  15  -2   9  626.71   14.94
 -15  -2  -9  610.88   13.20
 -15  -2 -11  946.18   18.57
 -15   2 -11 1011.49   20.39
 -15   2 -13   29.31    3.48
 -15  -2 -13   33.50    3.33
 -15  -2 -15  131.76    6.51
 -15   2 -15  140.08    7.04
 -15  -2 -17  387.28   11.89
 -15   2 -17  399.77   12.73
 -15  -2 -19  166.57    7.88
  15  -3 -26   77.31    5.42
  15  -3 -24   83.18    5.53
  15  -3 -22  246.40    9.20
  15  -3 -20   50.80    4.26
  15  -3 -18   36.24    3.52
  15  -3 -16   -0.33    1.78
  15  -3 -14   -0.48    1.74
  15  -3 -12   34.99    3.39
  15  -3 -10  130.34    6.05
 -15  -3   8   50.51    1.73
  15  -3  -8   55.77    3.93
 -15  -3   6  120.67    3.39
  15  -3  -6  120.82    5.69
  15  -3  -4   77.95    4.66
 -15  -3   4   76.70    2.99
 -15  -3   2    7.39    1.38
  15  -3  -2   11.43    2.46
 -15  -3   0   51.70    2.22
 -15  -3   0   42.39    2.68
  15  -3   0   45.39    3.80
 -15  -3  -2   89.76    3.40
 -15  -3  -2   87.65    4.08
  15  -3   2   90.17    5.15
 -15  -3  -4   33.28    2.39
  15  -3   4   28.12    3.14
 -15  -3  -6   30.93    2.51
  15  -3   6   28.37    3.28
  15  -3   8   47.88    4.11
 -15  -3  -8   45.52    3.23
  15  -3  10  106.03    6.01
 -15  -3 -10  101.68    5.01
 -15   3 -12   54.60    4.64
 -15  -3 -12   55.47    4.01
 -15   3 -14   41.11    4.19
 -15  -3 -14   33.17    3.42
 -15  -3 -16    4.66    2.33
 -15  -3 -18   40.04    4.12
  15  -4 -21   84.39    5.81
  15  -4 -19  100.22    6.16
  15  -4 -17   39.54    4.09
  15  -4 -15   36.34    3.87
  15  -4 -13  216.82    8.58
  15  -4 -11   14.53    2.70
  15  -4  -9  154.41    7.01
  15  -4  -7   31.54    3.41
  15  -4  -5   66.28    4.81
  15  -4  -3   25.40    3.19
  15  -4  -1  113.71    6.10
  15  -4   1  930.43   19.72
  15  -4   3  156.11    7.22
  15  -4   5    9.30    2.59
  15  -4   7   20.70    3.09
  15  -4   9   54.77    4.59
  15  -4  11    7.99    2.46
  15  -5 -12    0.05    1.96
  15  -5 -10  171.65    7.93
  15  -5  -8   71.98    5.25
  15  -5  -6    2.20    2.14
  15  -5  -4   25.36    3.40
  15  -5  -2  104.75    6.30
  15  -5   0  880.71   19.94
  15  -5   2   53.90    4.64
  15  -5   4  189.39    8.45
  16   0 -30   27.12    2.95
  16   0 -28   48.51    3.54
  16   0 -26   19.71    2.28
  16   0 -24   13.44    2.02
  16   0 -22   30.42    2.59
  16   0 -20  191.54    6.17
 -16   0  20  192.41    6.06
  16   0 -18   42.15    2.87
 -16   0  18   43.37    2.73
 -16   0  16   68.42    3.29
  16   0 -16   66.13    3.41
 -16   0  14    8.24    1.47
  16   0 -14    9.58    1.74
 -16   0  14    8.36    1.47
 -16   0  12 1881.86   27.86
  16   0 -12 1878.72   27.77
 -16   0  10  863.94   15.44
  16   0 -10  885.95   15.47
 -16   0   8   23.61    2.19
  16   0  -8   24.00    2.19
  16   0  -6  845.17   15.25
 -16   0   6  838.87   15.20
 -16   0   4 3210.69   44.46
  16   0  -4 3216.59   44.37
 -16   0   2 1497.15   24.04
  16   0  -2 1522.95   24.12
  16   0   0  279.88    7.97
  16   0   2 1637.35   26.30
 -16   0  -2 1610.08   25.24
 -16   0  -4 1350.82   22.40
 -16   0  -6    3.20    1.67
 -16   0  -8   59.19    3.97
 -16   0 -10  583.91   13.72
 -16   0 -12  704.94   15.95
 -16   0 -14   36.34    3.63
 -16   0 -16   55.28    4.57
 -16   0 -18  184.42    8.42
  16  -1 -33   10.25    2.46
  16  -1 -31   17.28    2.84
  16  -1 -29  231.21    8.48
  16  -1 -27    5.26    1.95
  16   1 -25    3.99    1.39
  16  -1 -25    8.01    2.11
  16   1 -23  377.49    8.34
  16  -1 -23  344.99    9.89
  16   1 -21  124.74    4.29
  16  -1 -21  114.59    5.28
  16  -1 -19   32.89    2.94
 -16  -1  19   36.51    2.14
  16   1 -19   36.22    2.31
  16  -1 -17   19.57    2.37
  16   1 -17   20.62    1.73
 -16  -1  17   21.59    1.60
  16  -1 -15   55.83    3.46
 -16   1  15   58.21    3.36
 -16  -1  15   58.14    2.39
  16   1 -15   64.39    2.91
 -16  -1  13   51.23    2.60
 -16  -1  13   50.26    2.15
  16   1 -13   50.13    2.58
  16  -1 -13   47.07    3.20
 -16  -1  11    2.42    1.07
  16  -1 -11    2.85    1.55
 -16  -1  11    2.33    0.82
  16   1 -11    1.50    0.98
  16  -1  -9    0.42    1.32
 -16  -1   9    1.02    0.88
  16   1  -9   -0.28    1.03
  16  -1  -7   11.06    2.00
 -16  -1   7   10.78    1.52
  16   1  -7    8.83    1.35
  16   1  -5   20.31    1.98
 -16  -1   5   23.56    2.02
  16  -1  -5   21.63    2.46
 -16  -1   5   21.38    1.58
  16  -1  -3   93.53    4.52
 -16  -1   3   93.06    3.42
 -16  -1   3   87.64    3.88
  16  -1  -1  365.27    9.68
 -16  -1   1  364.42    8.87
 -16  -1   1  369.48    8.01
 -16  -1  -1   15.72    1.82
  16  -1   1   16.03    2.35
  16  -1   3   31.13    3.06
 -16  -1  -3   38.37    2.76
 -16   1  -5   31.70    2.92
  16  -1   5   36.81    3.28
 -16  -1  -5   32.45    2.66
 -16  -1  -7   60.57    3.76
 -16   1  -7   57.55    3.95
 -16   1  -9   22.72    3.00
 -16  -1  -9   20.87    2.52
 -16   1 -11    8.94    2.24
 -16  -1 -11   10.12    2.25
 -16  -1 -13   71.95    4.64
 -16   1 -13   66.56    4.78
 -16  -1 -15  376.43   11.48
 -16   1 -15  394.55   12.14
 -16   1 -17    2.54    1.91
 -16  -1 -17    4.18    2.17
 -16  -1 -19   17.98    3.25
  16  -2 -30    4.86    2.34
  16  -2 -28    4.59    2.26
  16  -2 -26   11.08    2.38
  16  -2 -24    3.46    2.12
  16  -2 -22  178.24    7.26
  16  -2 -20   66.53    4.40
  16  -2 -18   -0.77    1.77
  16   2 -18    0.17    0.59
  16   2 -16  128.19    3.08
  16  -2 -16  133.79    5.92
  16  -2 -14    0.35    1.54
  16  -2 -12  220.87    7.55
 -16  -2  10  176.63    4.42
  16  -2 -10  168.62    6.52
  16  -2  -8   27.20    2.86
 -16  -2   8   23.43    1.72
 -16  -2   6  231.76    5.87
 -16  -2   6  243.10    4.11
  16  -2  -6  231.67    7.71
  16  -2  -4  162.53    6.44
 -16  -2   4  157.40    3.67
 -16  -2   4  149.08    4.78
 -16  -2   2   31.82    1.85
 -16  -2   2   30.17    2.30
  16  -2  -2   25.81    2.81
 -16  -2   0    6.58    1.48
  16  -2   0    6.50    2.03
 -16  -2   0    6.74    1.27
  16  -2   2   11.02    2.43
 -16  -2  -2    8.37    1.38
  16  -2   4  240.98    8.34
 -16  -2  -4  233.20    6.64
  16  -2   6   51.88    4.05
 -16  -2  -6   48.92    3.20
 -16   2  -8  112.21    5.84
  16  -2   8  130.16    6.41
 -16  -2  -8  136.16    5.51
 -16   2 -10   16.86    2.83
 -16  -2 -10   20.05    2.60
 -16   2 -12    3.11    1.95
 -16  -2 -12    3.65    1.78
 -16   2 -14   24.23    3.55
 -16  -2 -14   21.79    3.02
 -16  -2 -16    8.61    2.45
 -16  -2 -18   -1.97    2.00
  16  -3 -25    7.06    2.54
  16  -3 -23  187.17    8.09
  16  -3 -21  361.35   11.36
  16  -3 -19   11.58    2.59
  16  -3 -17  210.00    8.11
  16  -3 -15   86.47    5.15
  16  -3 -13   52.35    4.02
  16  -3 -11  174.90    7.12
  16  -3  -9    3.68    1.91
  16  -3  -7  479.18   12.39
  16  -3  -5    2.49    1.82
 -16  -3   5    1.21    0.77
  16  -3  -3    3.30    1.88
 -16  -3   3    4.43    1.11
 -16  -3   1  186.37    4.25
  16  -3  -1  183.65    8.37
 -16  -3   1  182.44    5.78
 -16  -3  -1    2.30    1.04
  16  -3   1    2.30    2.02
 -16  -3  -1    3.06    1.27
  16  -3   3   89.56    5.34
 -16  -3  -3   87.72    3.60
  16  -3   5  425.49   12.23
 -16  -3  -5  428.99    9.64
  16  -3   7  486.66   13.22
 -16  -3  -7  445.14   10.54
  16  -3   9   26.19    3.31
 -16  -3  -9   26.34    2.77
 -16   3 -11   11.08    2.73
  16  -3  11    9.46    2.49
 -16  -3 -11   12.55    2.31
 -16  -3 -13   48.14    3.94
 -16   3 -13   56.61    4.87
 -16  -3 -15  651.82   15.84
 -16  -3 -17   23.22    3.36
  16  -4 -20  256.68    9.91
  16  -4 -18  107.29    6.34
  16  -4 -16  220.38    9.03
  16  -4 -14   45.91    4.18
  16  -4 -12   91.88    5.65
  16  -4 -10  225.91    8.75
  16  -4  -8   12.38    2.56
  16  -4  -6  397.88   11.90
  16  -4  -4  705.00   16.77
  16  -4  -2    4.95    2.23
  16  -4   0  175.77    7.76
  16  -4   2  110.45    6.15
  16  -4   4  396.11   12.34
  16  -4   6  386.67   12.12
  16  -4   8  119.24    6.76
  16  -5  -9   10.12    2.65
  16  -5  -7    9.06    2.50
  16  -5  -5  102.29    6.32
  16  -5  -3   53.56    4.82
  16  -5  -1   37.71    4.02
  17   0 -27   -1.28    1.61
  17   0 -25    0.05    1.34
  17   0 -23   -0.90    1.26
  17   0 -21    0.59    1.27
 -17   0  19   -0.46    1.26
  17   0 -19   -0.59    1.28
 -17   0  17    1.23    1.06
  17   0 -17   -1.15    1.28
  17   0 -15    1.67    1.37
 -17   0  15    2.20    1.16
  17   0 -13    1.14    1.31
 -17   0  13    0.61    1.08
  17   0 -11    0.68    1.19
 -17   0  11   -0.52    1.10
 -17   0   9   -0.29    1.11
  17   0  -9   -1.13    1.35
 -17   0   7    0.16    1.04
  17   0  -7    1.37    1.45
 -17   0   5    1.14    1.32
  17   0  -5    2.64    1.45
  17   0  -3    0.82    1.43
  17   0  -1   -0.74    1.55
 -17   0  -1   -0.71    1.26
  17   0   1    1.52    1.45
 -17   0  -3    1.18    1.46
 -17   0  -5    0.93    1.47
 -17   0  -7   -1.57    1.72
 -17   0  -9    1.33    1.57
 -17   0 -11    0.95    1.88
 -17   0 -13    0.72    1.91
 -17   0 -15    1.13    1.87
 -17   0 -17   -2.26    2.10
  17  -1 -32    2.37    2.18
  17  -1 -30   94.98    5.58
  17  -1 -28  271.65    9.20
  17  -1 -26   91.66    5.13
  17  -1 -24    3.66    1.91
  17  -1 -22    9.04    2.02
  17   1 -22    9.51    1.44
  17  -1 -20  218.85    7.42
  17   1 -20  219.33    5.92
  17  -1 -18  213.76    7.26
  17   1 -18  213.80    5.76
  17   1 -16   10.28    1.43
 -17  -1  16    7.36    1.06
  17  -1 -16    9.60    1.91
 -17  -1  14  179.87    4.46
  17   1 -14  181.41    5.20
  17  -1 -14  169.85    6.24
  17  -1 -12    4.15    1.50
 -17  -1  12    4.67    0.91
 -17  -1  12    3.18    1.13
  17   1 -12    5.99    1.35
  17   1 -10   39.25    2.52
  17  -1 -10   41.56    3.18
 -17  -1  10   38.97    2.48
  17   1  -8  210.76    5.99
 -17  -1   8  205.91    5.91
  17  -1  -8  207.85    6.95
 -17  -1   6  744.92   12.16
  17   1  -6  730.28   13.51
 -17  -1   6  722.00   13.48
  17  -1  -6  744.17   14.95
 -17  -1   4  107.68    4.37
  17   1  -4  107.80    4.47
  17  -1  -4  104.55    4.97
 -17  -1   4  111.69    3.78
  17  -1  -2  539.02   12.48
 -17  -1   2  533.24   10.31
 -17  -1   2  534.40   11.45
  17  -1   0  226.24    7.66
 -17  -1   0  233.43    6.39
  17  -1   2  764.25   16.11
 -17  -1  -2  774.86   14.33
 -17   1  -4   34.66    3.17
  17  -1   4   33.81    3.30
 -17  -1  -4   37.78    2.93
  17  -1   6  625.42   14.60
 -17  -1  -6  594.11   12.89
 -17   1  -6  594.01   13.85
 -17  -1  -8  679.58   14.70
 -17   1  -8  703.22   15.67
 -17  -1 -10  133.54    6.07
 -17   1 -10  140.93    6.64
 -17   1 -12   24.79    3.12
 -17  -1 -12   21.07    2.95
 -17  -1 -14  126.64    6.47
 -17   1 -14  149.08    7.27
 -17  -1 -16  140.64    7.03
 -17   1 -16  151.07    7.68
 -17  -1 -18   60.42    5.04
  17  -2 -29    1.12    2.13
  17  -2 -27  278.65    9.89
  17  -2 -25  767.36   17.45
  17  -2 -23  152.93    6.88
  17  -2 -21  132.34    6.36
  17  -2 -19  544.14   13.41
  17  -2 -17  527.70   12.97
  17  -2 -15  193.74    7.24
  17  -2 -13  136.78    5.99
 -17  -2  11  468.87    8.54
  17  -2 -11  459.39   11.67
 -17  -2   9  537.97    9.80
  17  -2  -9  535.84   12.84
 -17  -2   7   96.04    3.60
 -17  -2   7   89.99    1.96
  17  -2  -7   91.79    4.93
 -17  -2   5  102.36    3.94
  17  -2  -5  102.45    5.28
 -17  -2   5  104.53    2.80
  17  -2  -3  242.71    8.20
 -17  -2   3  248.42    5.43
 -17  -2   3  244.86    6.72
  17  -2  -1  355.28   10.30
 -17  -2   1  358.84    7.50
 -17  -2   1  360.30    8.84
 -17  -2  -1   29.74    2.21
  17  -2   1   32.04    3.14
  17  -2   3    9.57    2.31
 -17  -2  -3    7.73    1.50
  17  -2   5  333.74   10.36
 -17  -2  -5  315.28    8.36
 -17   2  -7   80.24    5.02
  17  -2   7   80.48    5.20
 -17  -2  -7   78.37    4.21
 -17   2  -9    0.39    1.84
  17  -2   9   -0.26    1.88
 -17  -2  -9    1.36    1.56
 -17  -2 -11  274.22    8.93
 -17   2 -11  287.82   10.16
 -17   2 -13   18.61    3.39
 -17  -2 -13   19.58    2.89
 -17  -2 -15   15.58    2.96
 -17  -2 -17   19.26    3.22
  17  -3 -24    5.49    2.44
  17  -3 -22   10.17    2.53
  17  -3 -20   -1.18    2.06
  17  -3 -18    3.80    2.23
  17  -3 -16   27.09    3.30
  17  -3 -14   17.09    2.68
  17  -3 -12   52.62    4.24
  17  -3 -10  144.16    6.64
  17  -3  -8   -1.81    1.94
  17  -3  -6    0.48    1.68
  17  -3  -4   71.01    4.72
  17  -3  -2   13.74    2.36
  17  -3   0   48.55    4.14
 -17  -3  -2   15.63    1.65
  17  -3   2   16.15    2.90
 -17  -3  -4   10.88    1.59
  17  -3   4    8.81    2.33
  17  -3   6   12.28    2.53
 -17  -3  -6   12.15    1.83
  17  -3   8   66.44    4.86
 -17  -3  -8   65.33    3.93
 -17   3 -10  103.59    6.24
  17  -3  10  102.38    6.20
 -17  -3 -10  104.11    5.21
 -17  -3 -12   67.24    4.40
 -17  -3 -14  238.82    8.82
 -17  -3 -16   69.35    5.07
  17  -4 -19   69.39    5.29
  17  -4 -17  109.80    6.44
  17  -4 -15   19.21    3.26
  17  -4 -13   12.09    2.84
  17  -4 -11   85.48    5.53
  17  -4  -9  111.17    6.29
  17  -4  -7    2.49    1.94
  17  -4  -5    7.87    2.61
  17  -4  -3  140.64    7.04
  17  -4  -1    5.52    2.35
  17  -4   1    4.54    2.13
  17  -4   3   80.31    5.58
  17  -4   5  214.19    9.02
  18   0 -26  386.10   10.14
  18   0 -24  398.35   10.08
  18   0 -22   41.97    3.07
  18   0 -20   11.30    1.93
 -18   0  18   99.99    4.24
  18   0 -18  103.34    4.54
 -18   0  16  873.03   15.44
  18   0 -16  902.37   16.27
 -18   0  14   91.82    4.27
 -18   0  14   96.26    3.92
  18   0 -14   97.43    4.33
 -18   0  12  122.17    4.93
  18   0 -12  136.35    5.19
  18   0 -10   -0.30    1.25
 -18   0  10    3.24    1.28
  18   0  -8   30.68    2.69
  18   0  -6  325.97    8.67
  18   0  -4  373.98    9.61
  18   0  -2 1289.24   22.19
 -18   0   0  896.03   16.48
  18   0   0  904.08   17.46
 -18   0  -2   99.17    4.66
 -18   0  -4    0.79    1.40
 -18   0  -6  475.18   11.79
 -18   0  -8   72.51    4.59
 -18   0 -10   93.01    5.28
 -18   0 -12  526.28   13.91
 -18   0 -14  345.54   11.25
 -18   0 -16   77.26    5.56
  18  -1 -31   22.78    3.14
  18  -1 -29   28.56    3.30
  18  -1 -27   60.01    4.28
  18  -1 -25   59.16    4.19
  18  -1 -23    2.33    1.77
  18  -1 -21  282.70    8.74
  18   1 -21  276.18    6.97
  18  -1 -19  333.76    9.53
  18   1 -19  344.00    7.86
  18   1 -17   99.82    3.90
  18  -1 -17   99.38    4.90
  18   1 -15  263.50    6.64
  18  -1 -15  253.29    7.96
 -18  -1  13  439.46    8.01
  18   1 -13  428.42    9.20
  18  -1 -13  441.80   10.86
 -18  -1  13  427.39    9.20
 -18  -1  11   22.66    2.05
  18  -1 -11   22.39    2.50
  18   1 -11   23.84    2.12
  18   1  -9   61.04    3.23
  18  -1  -9   54.60    3.71
 -18  -1   9   53.97    3.02
 -18  -1   7  336.28    7.01
  18   1  -7  329.65    8.20
 -18  -1   7  324.13    8.12
  18  -1  -7  334.04    9.29
  18   1  -5 1119.49   19.04
 -18  -1   5 1090.33   18.87
  18  -1  -5 1110.05   20.31
 -18  -1   5 1141.51   17.43
 -18  -1   3    0.65    1.00
  18  -1  -3    2.07    1.65
  18  -1  -1  619.62   14.08
 -18  -1   1  630.53   12.01
  18  -1   1  322.18    9.62
 -18  -1  -1  317.39    8.08
 -18  -1  -3    9.20    1.76
  18  -1   3    8.79    2.14
 -18   1  -5   71.60    4.50
  18  -1   5   79.77    4.95
 -18  -1  -5   70.93    3.97
 -18   1  -7   38.06    3.54
 -18  -1  -7   31.98    2.94
 -18  -1  -9  117.42    5.64
 -18   1  -9  117.40    6.05
 -18   1 -11   27.90    3.39
 -18  -1 -11   33.24    3.40
 -18   1 -13    6.25    2.44
 -18  -1 -13   -0.68    1.79
 -18   1 -15   21.03    3.06
 -18  -1 -15   24.98    3.42
 -18  -1 -17   73.47    5.44
  18  -2 -28   10.17    2.43
  18  -2 -26   20.94    3.08
  18  -2 -24  398.71   11.83
  18  -2 -22    6.33    2.04
  18  -2 -20   18.85    2.83
  18  -2 -18    0.60    1.81
  18  -2 -16   17.67    2.58
  18  -2 -14    4.43    1.89
  18  -2 -12   32.30    3.29
  18  -2 -10  270.16    8.78
 -18  -2   8   69.28    3.11
  18  -2  -8   73.02    4.53
  18  -2  -6    7.61    2.17
 -18  -2   6    5.66    1.25
 -18  -2   6    6.11    0.78
  18  -2  -4  217.89    7.86
 -18  -2   4  216.88    4.88
 -18  -2   4  217.78    6.38
 -18  -2   2   44.48    2.31
  18  -2  -2   41.26    3.60
 -18  -2   2   41.69    2.85
 -18  -2   0   40.20    2.50
  18  -2   0   37.98    3.53
  18  -2   2   22.36    3.04
 -18  -2  -2   26.88    2.29
  18  -2   4   51.48    4.20
 -18  -2  -4   56.21    3.36
  18  -2   6  170.27    7.56
 -18  -2  -6  174.56    6.27
 -18   2  -8    0.51    1.93
  18  -2   8    1.89    1.99
 -18  -2  -8    3.63    1.74
 -18   2 -10   33.25    3.75
 -18  -2 -10   30.70    3.15
 -18  -2 -12  134.15    6.44
 -18   2 -12  142.51    7.35
 -18  -2 -14   -1.88    1.82
 -18  -2 -16    1.95    1.91
  18  -3 -23   31.75    3.81
  18  -3 -21  342.25   11.29
  18  -3 -19  114.20    6.28
  18  -3 -17    0.57    1.84
  18  -3 -15  156.10    7.15
  18  -3 -13  859.77   18.68
  18  -3 -11   85.28    5.25
  18  -3  -9  174.46    7.48
  18  -3  -7  520.79   13.71
  18  -3  -5  749.87   17.10
  18  -3  -3    4.73    2.05
  18  -3  -1    3.13    2.24
  18  -3   1  677.98   16.37
  18  -3   3  233.41    9.07
  18  -3   5   36.51    4.05
  18  -3   7   32.99    3.77
 -18   3  -9  103.24    6.30
  18  -3   9  108.68    6.48
  18  -4 -16   95.57    6.11
  18  -4 -14    0.35    1.90
  18  -4 -12   11.59    2.79
  18  -4 -10  192.70    8.39
  18  -4  -8  123.20    6.76
  18  -4  -6   76.01    5.40
  18  -4  -4    4.34    2.40
  18  -4  -2   45.15    4.28
  18  -4   0   34.14    3.90
  18  -4   2   21.34    3.28
  19   0 -25   -2.81    1.56
  19   0 -23   -0.61    1.46
  19   0 -21   -0.47    1.32
  19   0 -19    1.86    1.38
  19   0 -17    2.46    1.45
  19   0 -15    0.96    1.27
 -19   0  15    2.72    1.29
  19   0 -13   -0.68    1.36
  19   0 -11    1.02    1.24
  19   0  -9   -2.27    1.50
  19   0  -7    1.27    1.36
  19   0  -5    0.35    1.31
  19   0  -3   -1.98    1.72
 -19   0   1   -0.41    1.33
  19   0  -1   -2.61    1.58
 -19   0  -1    1.15    1.38
  19   0   1    0.02    1.55
 -19   0  -3    0.44    1.43
 -19   0  -5    4.20    1.63
 -19   0  -7    1.11    1.59
 -19   0  -9   -0.06    1.87
 -19   0 -11    1.15    1.84
 -19   0 -13   -0.15    1.95
 -19   0 -15   -2.18    2.33
  19  -1 -30    8.20    2.46
  19  -1 -28  122.59    6.20
  19  -1 -26  160.88    6.90
  19  -1 -24   10.90    2.33
  19  -1 -22   44.95    3.63
  19  -1 -20  399.31   10.80
  19   1 -20  406.20    8.97
  19   1 -18  416.61    9.04
  19  -1 -18  395.15   10.63
  19  -1 -16    1.83    1.43
  19   1 -16    0.98    1.02
 -19  -1  14   26.27    2.19
  19  -1 -14   21.08    2.58
  19   1 -14   26.52    2.24
  19   1 -12  474.67   10.08
 -19  -1  12  463.93   10.00
  19  -1 -12  456.84   11.45
  19   1 -10  103.95    4.29
  19  -1 -10   96.93    5.01
 -19  -1  10  100.83    4.25
 -19  -1   8  175.77    4.76
  19   1  -8  163.92    5.67
  19  -1  -8  179.84    6.74
 -19  -1   8  166.50    5.67
  19   1  -6  396.36    9.56
 -19  -1   6  378.76    9.38
  19  -1  -6  395.27   10.54
 -19  -1   6  395.72    8.22
  19  -1  -4  153.48    6.41
 -19  -1   4  150.30    4.82
  19  -1  -2   35.28    3.29
 -19  -1   2   33.60    2.43
  19  -1   0   49.82    3.88
 -19  -1   0   50.59    3.15
  19  -1   2  206.91    7.92
 -19  -1  -2  211.33    6.66
 -19   1  -4  560.06   13.54
  19  -1   4  562.37   14.24
 -19  -1  -4  551.17   12.39
 -19   1  -6   23.07    2.83
 -19  -1  -6   29.20    2.87
 -19   1  -8   48.02    4.06
 -19  -1  -8   50.99    3.89
 -19  -1 -10  119.03    6.05
 -19   1 -10  125.76    6.62
 -19  -1 -12   80.40    5.25
 -19   1 -12   85.23    5.76
 -19  -1 -14    1.49    1.90
  19  -2 -29   73.87    5.34
  19  -2 -27    1.99    2.04
  19  -2 -25   10.30    2.56
  19  -2 -23  125.51    6.47
  19  -2 -21   -1.85    2.04
  19  -2 -19   69.41    4.68
  19  -2 -17  282.72    9.39
  19  -2 -15   62.30    4.39
  19  -2 -13  343.01   10.28
  19  -2 -11   57.49    4.28
  19  -2  -9  273.24    9.08
  19  -2  -7  392.58   11.16
 -19  -2   5    2.10    1.20
  19  -2  -5    2.77    1.66
  19  -2  -3  103.92    5.56
 -19  -2   3  107.32    3.53
  19  -2  -1 1104.64   21.82
 -19  -2   1 1098.53   17.38
  19  -2   1  103.22    5.78
 -19  -2  -1  100.48    4.09
  19  -2   3   29.74    3.43
 -19  -2  -3   30.73    2.60
  19  -2   5  322.50   10.75
 -19  -2  -5  336.33    8.97
 -19   2  -7  360.07   11.51
  19  -2   7  389.97   12.17
 -19  -2  -7  372.79   10.04
 -19  -2  -9  110.37    5.50
 -19   2  -9  106.90    6.18
 -19  -2 -11   72.30    4.82
 -19   2 -11   75.12    5.41
 -19  -2 -13  167.92    7.43
 -19  -2 -15  141.23    7.10
  19  -3 -22   39.20    4.07
  19  -3 -20    9.47    2.45
  19  -3 -18   -3.30    2.37
  19  -3 -16  107.37    6.10
  19  -3 -14   47.22    4.28
  19  -3 -12   30.37    3.42
  19  -3 -10   24.84    3.18
  19  -3  -8    3.40    2.05
  19  -3  -6    5.36    2.29
  19  -3  -4   18.03    3.02
  19  -3  -2   23.98    3.30
  19  -3   0   25.31    3.27
  19  -3   2   55.01    4.53
  19  -3   4   54.24    4.65
  19  -3   6    0.37    1.88
  19  -4 -13   15.66    3.06
  19  -4 -11    1.59    2.19
  19  -4  -9  237.99    9.54
  19  -4  -7   75.90    5.45
  19  -4  -5    3.33    2.40
  19  -4  -3   30.59    3.78
  19  -4  -1  300.65   10.89
  20   0 -24   24.66    2.61
  20   0 -22  351.98    9.45
  20   0 -20  227.13    7.32
  20   0 -18   23.58    2.47
  20   0 -16  289.43    8.33
  20   0 -14  333.06    8.99
  20   0 -12   -0.62    1.45
  20   0 -10   86.11    4.40
  20   0  -8  235.17    7.55
  20   0  -6    2.83    1.60
  20   0  -4  324.26    9.39
 -20   0   2  104.23    4.73
  20   0  -2  109.56    5.36
  20   0   0  415.33   11.22
 -20   0   0  405.15   10.30
 -20   0  -2  239.33    7.82
 -20   0  -4    7.49    2.07
 -20   0  -6  283.11    9.18
 -20   0  -8  544.60   13.83
 -20   0 -10   12.21    2.65
 -20   0 -12   28.46    3.46
  20  -1 -29    7.27    2.25
  20  -1 -27    0.43    1.77
  20  -1 -25   57.11    4.18
  20  -1 -23   10.58    2.28
  20  -1 -21   11.91    2.35
  20  -1 -19  212.70    7.64
  20   1 -17  191.20    5.81
  20  -1 -17  171.71    6.79
  20   1 -15   50.53    3.02
  20  -1 -15   49.45    3.68
  20  -1 -13    3.18    1.56
  20   1 -13    4.36    1.48
  20   1 -11  123.21    4.85
  20  -1 -11  121.97    5.70
 -20  -1   9  116.21    3.80
  20   1  -9  108.53    4.63
  20  -1  -9  109.93    5.44
 -20  -1   7    3.54    1.00
  20   1  -7    0.26    1.21
  20  -1  -7    3.05    1.72
  20  -1  -5  190.26    7.29
 -20  -1   5  196.58    5.63
  20  -1  -3  152.43    6.61
 -20  -1   3  161.02    5.24
  20  -1  -1   92.40    5.28
 -20  -1   1   96.12    4.26
 -20  -1  -1    5.94    1.55
  20  -1   1    2.91    1.89
 -20   1  -3  181.51    7.24
  20  -1   3  194.81    7.92
 -20  -1  -3  186.08    6.61
 -20  -1  -5  275.77    8.55
 -20   1  -5  289.58    9.55
 -20   1  -7    4.78    2.04
 -20  -1  -7    4.93    1.80
 -20   1  -9   28.81    3.54
 -20  -1  -9   27.87    3.14
 -20  -1 -11   65.55    4.88
 -20   1 -11   65.56    5.00
 -20  -1 -13    9.85    2.60
  20  -2 -28    9.51    2.71
  20  -2 -26   17.75    3.60
  20  -2 -24    3.02    1.87
  20  -2 -22    1.09    1.83
  20  -2 -20   10.36    2.36
  20  -2 -18   38.23    3.63
  20  -2 -16    1.81    1.66
  20  -2 -14  207.21    8.01
  20  -2 -12   55.08    4.22
  20  -2 -10    1.09    1.84
  20  -2  -8   14.38    2.68
  20  -2  -6    1.95    1.83
  20  -2  -4   27.85    3.25
  20  -2  -2   26.48    3.22
  20  -2   0  243.67    9.11
  20  -2   2    2.65    2.01
  20  -2   4   13.27    2.82
 -20  -2  -4   14.09    2.09
 -20   2  -6   13.42    3.16
  20  -2   6   17.67    3.14
 -20  -2  -6   16.88    2.39
 -20  -2  -8   98.24    5.15
 -20   2  -8   92.39    5.86
 -20  -2 -10    1.66    1.67
 -20  -2 -12   21.44    3.12
  20  -3 -21    4.93    2.08
  20  -3 -19  131.76    6.98
  20  -3 -17  227.28    9.10
  20  -3 -15    7.73    2.48
  20  -3 -13  228.01    9.03
  20  -3 -11  432.72   12.78
  20  -3  -9  132.65    6.83
  20  -3  -7   14.29    2.85
  20  -3  -5   48.83    4.28
  20  -3  -3  314.28   10.73
  20  -3  -1  193.09    8.40
  20  -3   1   12.64    2.67
  20  -3   3  343.59   11.64
  21   0 -23   -1.20    1.39
  21   0 -21    0.18    1.44
  21   0 -19    3.34    1.69
  21   0 -17    0.52    1.38
  21   0 -15    0.86    1.66
  21   0 -13   -0.01    1.51
  21   0 -11    0.46    1.46
  21   0  -9    0.24    1.61
  21   0  -7    1.33    1.37
  21   0  -5   -1.87    1.88
 -21   0   3   -1.52    1.46
  21   0  -3    1.61    1.81
 -21   0   1    0.66    1.31
  21   0  -1   -1.64    1.76
 -21   0  -1   -1.14    1.42
 -21   0  -3    2.15    1.73
 -21   0  -5    1.27    1.74
 -21   0  -7    3.70    2.05
 -21   0  -9    0.72    1.67
 -21   0 -11    0.68    1.92
  21  -1 -26   66.51    4.63
  21  -1 -24  130.36    6.32
  21  -1 -22   81.70    4.92
  21  -1 -20   10.75    2.30
  21  -1 -18   74.80    4.57
  21   1 -16  309.96    7.97
  21  -1 -16  305.16    9.45
  21  -1 -14    4.00    1.97
  21   1 -14   -1.75    1.29
  21   1 -12   46.18    3.09
  21  -1 -12   44.11    3.61
  21   1 -10    4.75    1.44
  21  -1 -10    5.18    1.89
  21   1  -8  480.99   11.08
  21  -1  -8  450.48   12.07
 -21  -1   8  468.32    9.33
 -21  -1   6    4.84    1.20
  21  -1  -6    5.02    2.07
 -21  -1   4    3.67    1.14
  21  -1  -4    2.54    1.96
 -21  -1   2   27.52    2.37
  21  -1  -2   24.46    3.05
  21  -1   0   49.83    4.15
 -21  -1   0   55.10    3.43
 -21  -1  -2   16.51    2.28
 -21   1  -2    8.72    2.04
  21  -1   2   15.66    3.05
 -21  -1  -4  404.91   10.63
 -21   1  -4  409.44   11.82
 -21  -1  -6  190.18    7.32
 -21   1  -6  189.20    7.95
 -21   1  -8    0.23    1.86
 -21  -1  -8   -1.70    1.98
 -21  -1 -10   54.88    4.34
 -21   1 -10   56.06    4.80
 -21  -1 -12  170.71    7.74
  21  -2 -25    3.09    2.16
  21  -2 -23   32.27    3.57
  21  -2 -21  201.44    8.31
  21  -2 -19  110.18    6.02
  21  -2 -17   18.67    2.90
  21  -2 -15  263.28    9.60
  21  -2 -13  854.74   18.59
  21  -2 -11  149.45    6.94
  21  -2  -9    0.35    1.77
  21  -2  -7  535.25   13.95
  21  -2  -5  474.72   13.16
  21  -2  -3   36.05    3.70
  21  -2  -1  354.74   11.34
  21  -2   1  264.38    9.85
  21  -2   3  385.31   12.20
 -21   2  -5  188.03    8.23
  21  -2   5  177.71    8.27
 -21   2  -7   35.07    3.98
  21  -3 -18    2.71    2.08
  21  -3 -16   59.01    4.74
  21  -3 -14   60.08    4.89
  21  -3 -12   31.93    3.59
  21  -3 -10   15.94    2.87
  21  -3  -8    5.85    2.44
  21  -3  -6   -3.78    2.33
  21  -3  -4    0.23    2.12
  21  -3  -2    1.55    1.97
  21  -3   0    3.05    2.26
  22   0 -20  578.54   13.20
  22   0 -18  247.80    7.97
  22   0 -16   22.52    2.59
  22   0 -14   87.87    4.68
  22   0 -12 1589.35   26.58
  22   0 -10   61.33    4.05
  22   0  -8  225.84    7.87
  22   0  -6   57.65    4.10
 -22   0   4  286.85    8.28
  22   0  -4  261.38    8.87
 -22   0   2    8.14    1.95
  22   0  -2    8.57    2.04
 -22   0   0   53.88    3.81
 -22   0  -2  251.10    8.42
 -22   0  -4   48.25    3.84
 -22   0  -6   61.11    4.51
 -22   0  -8  143.23    6.99
 -22   0 -10  333.64   11.16
  22  -1 -25   72.36    4.81
  22  -1 -23   64.97    4.58
  22  -1 -21    0.20    1.72
  22  -1 -19   86.80    5.10
  22  -1 -17    4.54    1.96
  22  -1 -15    1.28    1.71
  22   1 -15    4.29    1.51
  22   1 -13  109.42    4.77
  22  -1 -13  105.43    5.60
  22   1 -11    5.43    1.62
  22  -1 -11    8.38    2.25
  22   1  -9  226.54    7.30
  22  -1  -9  225.86    8.32
  22  -1  -7  379.61   11.19
  22  -1  -5    2.45    1.92
  22  -1  -3    3.29    1.83
  22  -1  -1  198.86    8.21
 -22  -1   1  210.81    6.77
 -22  -1  -1    9.89    1.90
 -22   1  -1    9.84    2.26
  22  -1   1   13.93    2.64
 -22   1  -3    8.48    2.27
  22  -1   3    8.35    2.42
 -22  -1  -3    6.75    1.81
 -22   1  -5   36.89    3.84
 -22  -1  -5   39.90    3.49
 -22  -1  -7  248.98    8.79
 -22   1  -7  246.33    9.45
 -22  -1  -9    7.83    2.45
 -22  -1 -11    4.74    2.17
  22  -2 -24   -1.39    2.10
  22  -2 -22   29.04    3.66
  22  -2 -20   82.59    5.49
  22  -2 -18   26.55    3.38
  22  -2 -16   75.75    5.07
  22  -2 -14   12.47    2.70
  22  -2 -12  132.13    6.65
  22  -2 -10   48.34    4.33
  22  -2  -8  134.27    6.74
  22  -2  -6    2.01    1.80
  22  -2  -4   45.94    4.24
  22  -2  -2    1.14    1.85
  22  -2   0    2.31    2.10
  22  -2   2    2.42    2.34
 -22   2  -4    5.11    2.28
  22  -3 -15  184.97    8.42
  22  -3 -13   38.72    4.20
  22  -3 -11    3.12    2.21
  22  -3  -9  337.30   11.59
  22  -3  -7  143.79    7.46
  23   0 -19   -0.50    1.46
  23   0 -17   -2.78    1.69
  23   0 -15    1.40    1.69
  23   0 -13    1.42    1.63
  23   0 -11    0.56    1.47
  23   0  -9   -1.63    1.56
  23   0  -7   -0.64    1.72
 -23   0   5    0.19    1.24
  23   0  -5    0.55    1.87
 -23   0   3   -2.12    1.44
  23   0  -3   -1.20    1.71
 -23   0   1   -2.03    1.61
 -23   0  -1    1.13    1.90
 -23   0  -3   -3.24    1.85
 -23   0  -5   -0.22    1.71
 -23   0  -7    1.43    1.94
 -23   0  -9    1.51    1.86
  23  -1 -24   14.40    2.74
  23  -1 -22   78.67    5.05
  23  -1 -20  100.72    5.64
  23  -1 -18    4.36    1.92
  23  -1 -16  296.47    9.82
  23  -1 -14   59.75    4.43
  23   1 -12   66.63    3.83
  23  -1 -12   59.55    4.38
  23   1 -10  237.06    7.62
  23  -1 -10  243.25    8.81
  23  -1  -8  370.24   11.24
  23  -1  -6   26.02    3.15
  23  -1  -4   15.85    2.79
  23  -1  -2   10.39    2.46
 -23   1   0  239.68    8.74
  23  -1   0  244.62    9.43
 -23   1  -2   24.77    3.01
  23  -1   2   23.82    3.45
 -23   1  -4  102.05    5.95
 -23   1  -6  175.67    8.01
  23  -2 -23    8.53    2.55
  23  -2 -21    1.97    1.93
  23  -2 -19  244.99    9.45
  23  -2 -17  193.14    8.24
  23  -2 -15    0.64    1.89
  23  -2 -13  138.80    7.08
  23  -2 -11  482.56   13.66
  23  -2  -9   92.72    5.82
  23  -2  -7   16.56    2.97
  23  -2  -5   95.49    6.04
  23  -2  -3  441.25   13.25
  23  -2  -1   66.88    5.36
 -23   2  -3  193.86    8.55
  24   0 -16   44.14    3.57
  24   0 -14   80.32    4.77
  24   0 -12   45.91    3.70
  24   0 -10  216.94    8.02
  24   0  -8  199.97    7.80
  24   0  -6   23.36    3.03
  24   0  -4  259.58    9.26
 -24   0   2  233.63    8.02
 -24   0   0  144.24    6.36
 -24   0  -2    7.03    2.14
 -24   0  -4   84.30    5.39
 -24   0  -6    3.22    2.15
  24  -1 -21   41.74    3.95
  24  -1 -19    2.49    2.09
  24  -1 -17    0.56    1.73
  24  -1 -15    9.96    2.31
  24  -1 -13  125.04    6.39
  24  -1 -11  269.45    9.57
  24  -1  -9    5.14    2.12
  24  -1  -7  438.26   12.73
  24  -1  -5  108.95    6.19
  24  -1  -3   28.82    3.53
 -24   1   1  119.56    6.14
  24  -1  -1  113.34    6.50
 -24   1  -1   31.36    3.50
 -24   1  -3  131.86    6.80
 -24   1  -5   11.46    2.75
  24  -2 -18   59.82    4.85
  24  -2 -16   29.35    3.69
  24  -2 -14   75.81    5.40
  24  -2 -12   -1.00    1.96
  24  -2 -10   -0.15    2.09
  24  -2  -8   31.25    3.68
  24  -2  -6   36.32    3.79
  25   0 -15    2.72    1.92
  25   0 -13    0.90    1.73
  25   0 -11    0.41    1.82
  25   0  -9    0.13    1.83
  25   0  -7   -1.28    1.75
  25   0  -5   -1.39    2.03
  25  -1 -20  201.18    8.27
  25  -1 -18   82.24    5.27
  25  -1 -16  150.69    7.11
  25  -1 -14  316.08   10.50
  25  -1 -12  187.53    7.98
  25  -1 -10   12.65    2.50
  25  -1  -8   39.64    3.97
  25  -1  -6  121.63    6.67
  25  -1  -4  224.32    9.15
 -25   1   2   34.39    3.56
 -25   1   0   36.49    3.66
 -25   1  -2  201.60    8.55
  26   0 -12   14.46    2.61
  26   0 -10  106.77    5.89
  26   0  -8  612.36   15.25
  26   0  -6  295.96   10.28
  26  -1 -17    4.90    2.23
  26  -1 -15    3.55    2.09
  26  -1 -13    3.27    2.27
  26  -1 -11   32.66    3.88
  26  -1  -9    3.05    2.29
  27   0  -9    1.49    1.95
  27   0  -7    1.59    2.03
   0   0   0    0.00    0.00


TITL pvl301 in I2/a
REM I2/a (#15 in standard setting)
CELL 0.71073  19.948379   5.506089  26.579126  90.0000 106.2092  90.0000
ZERR    5.00   0.000658   0.000162   0.000914   0.0000   0.0036   0.0000
LATT  2
SYMM -x+1/2, y,-z
SFAC C H N O S Zn
UNIT 50.00 50.00 50.00 50.00 5.00 5.00
TREF
HKLF 4
END
_computing_structure_solution     'SHELXT 2014/5 (Sheldrick, 2014)'
;
_shelx_hkl_checksum    3047

