 
data_pvl819_auto_a
 
_audit_creation_method            'SHELXL-2018/3'
_shelx_SHELXL_version_number      '2018/3'
_chemical_name_systematic         ?
_chemical_name_common             ?
_chemical_melting_point           ?
_chemical_formula_moiety          ?
_chemical_formula_sum
 'C3.43 H1.90 N1.52 O0.76 S0.19 Zn0.19' 
_chemical_formula_weight          95.19

loop_
 _atom_type_symbol
 _atom_type_description
 _atom_type_scat_dispersion_real
 _atom_type_scat_dispersion_imag
 _atom_type_scat_source
 'C'  'C'   0.0033   0.0016
 'International Tables Vol C Tables 4.2.6.8 and 6.1.1.4'
 'H'  'H'   0.0000   0.0000
 'International Tables Vol C Tables 4.2.6.8 and 6.1.1.4'
 'N'  'N'   0.0061   0.0033
 'International Tables Vol C Tables 4.2.6.8 and 6.1.1.4'
 'O'  'O'   0.0106   0.0060
 'International Tables Vol C Tables 4.2.6.8 and 6.1.1.4'
 'S'  'S'   0.1246   0.1234
 'International Tables Vol C Tables 4.2.6.8 and 6.1.1.4'
 'Zn'  'Zn'   0.2839   1.4301
 'International Tables Vol C Tables 4.2.6.8 and 6.1.1.4'
 
_space_group_crystal_system       orthorhombic
_space_group_IT_number            64
_space_group_name_H-M_alt         'C m c a'
_space_group_name_Hall            '-C 2bc 2'
 
_shelx_space_group_comment
;
The symmetry employed for this shelxl refinement is uniquely defined
by the following loop, which should always be used as a source of
symmetry information in preference to the above space-group names.
They are only intended as comments.
;
 
loop_
 _space_group_symop_operation_xyz
 'x, y, z'
 '-x, -y+1/2, z+1/2'
 '-x, y+1/2, -z+1/2'
 'x, -y, -z'
 'x+1/2, y+1/2, z'
 '-x+1/2, -y+1, z+1/2'
 '-x+1/2, y+1, -z+1/2'
 'x+1/2, -y+1/2, -z'
 '-x, -y, -z'
 'x, y-1/2, -z-1/2'
 'x, -y-1/2, z-1/2'
 '-x, y, z'
 '-x+1/2, -y+1/2, -z'
 'x+1/2, y, -z-1/2'
 'x+1/2, -y, z-1/2'
 '-x+1/2, y+1/2, z'
 
_cell_length_a                    13.8630(5)
_cell_length_b                    19.0397(8)
_cell_length_c                    14.1184(4)
_cell_angle_alpha                 90
_cell_angle_beta                  90
_cell_angle_gamma                 90
_cell_volume                      3726.5(2)
_cell_formula_units_Z             42
_cell_measurement_temperature     170(2)
_cell_measurement_reflns_used     ?
_cell_measurement_theta_min       ?
_cell_measurement_theta_max       ?
 
_exptl_crystal_description        ?
_exptl_crystal_colour             ?
_exptl_crystal_density_meas       ?
_exptl_crystal_density_method     ?
_exptl_crystal_density_diffrn     1.782          
_exptl_crystal_F_000              2016
_exptl_transmission_factor_min    ?
_exptl_transmission_factor_max    ?
_exptl_crystal_size_max           ?
_exptl_crystal_size_mid           ?
_exptl_crystal_size_min           ?
_exptl_absorpt_coefficient_mu     1.480
_shelx_estimated_absorpt_T_min    ?
_shelx_estimated_absorpt_T_max    ?
_exptl_absorpt_correction_type    ?
_exptl_absorpt_correction_T_min   ?
_exptl_absorpt_correction_T_max   ?
_exptl_absorpt_process_details    ?
_exptl_absorpt_special_details    ?
_diffrn_ambient_temperature       170(2)
_diffrn_radiation_wavelength      0.71073
_diffrn_radiation_type            MoK\a
_diffrn_source                    ?
_diffrn_measurement_device_type   ?
_diffrn_measurement_method        ?
_diffrn_detector_area_resol_mean  ?
_diffrn_reflns_number             15415
_diffrn_reflns_av_unetI/netI      0.0261
_diffrn_reflns_av_R_equivalents   0.0441
_diffrn_reflns_limit_h_min        -18
_diffrn_reflns_limit_h_max        14
_diffrn_reflns_limit_k_min        -19
_diffrn_reflns_limit_k_max        23
_diffrn_reflns_limit_l_min        -18
_diffrn_reflns_limit_l_max        18
_diffrn_reflns_theta_min          2.139
_diffrn_reflns_theta_max          29.086
_diffrn_reflns_theta_full         25.242
_diffrn_measured_fraction_theta_max   0.918
_diffrn_measured_fraction_theta_full  1.000
_diffrn_reflns_Laue_measured_fraction_max    0.918
_diffrn_reflns_Laue_measured_fraction_full   1.000
_diffrn_reflns_point_group_measured_fraction_max   0.918
_diffrn_reflns_point_group_measured_fraction_full  1.000
_reflns_number_total              2384
_reflns_number_gt                 2142
_reflns_threshold_expression      'I > 2\s(I)'
_reflns_Friedel_coverage          0.000
_reflns_Friedel_fraction_max      .
_reflns_Friedel_fraction_full     .
 
_reflns_special_details
;
 Reflections were merged by SHELXL according to the crystal
 class for the calculation of statistics and refinement.
 
 _reflns_Friedel_fraction is defined as the number of unique
 Friedel pairs measured divided by the number that would be
 possible theoretically, ignoring centric projections and
 systematic absences.
;
 
_computing_data_collection        ?
_computing_cell_refinement        ?
_computing_data_reduction         ?
_computing_structure_solution     'SHELXT 2018/2 (Sheldrick, 2018)'
_computing_structure_refinement 'SHELXL-2018/3 (Sheldrick, 2018)'
_computing_molecular_graphics     ?
_computing_publication_material   ?
_refine_special_details           ?
_refine_ls_structure_factor_coef  Fsqd
_refine_ls_matrix_type            full
_refine_ls_weighting_scheme       calc
_refine_ls_weighting_details
'w=1/[\s^2^(Fo^2^)+(0.0335P)^2^+2.2156P] where P=(Fo^2^+2Fc^2^)/3'
_atom_sites_solution_primary      ?
_atom_sites_solution_secondary    ?
_atom_sites_solution_hydrogens    geom
_refine_ls_hydrogen_treatment     constr
_refine_ls_extinction_method      none
_refine_ls_extinction_coef        .
_refine_ls_number_reflns          2384
_refine_ls_number_parameters      227
_refine_ls_number_restraints      0
_refine_ls_R_factor_all           0.0327
_refine_ls_R_factor_gt            0.0280
_refine_ls_wR_factor_ref          0.0721
_refine_ls_wR_factor_gt           0.0695
_refine_ls_goodness_of_fit_ref    1.075
_refine_ls_restrained_S_all       1.075
_refine_ls_shift/su_max           0.000
_refine_ls_shift/su_mean          0.000
 
loop_
 _atom_site_label
 _atom_site_type_symbol
 _atom_site_fract_x
 _atom_site_fract_y
 _atom_site_fract_z
 _atom_site_U_iso_or_equiv
 _atom_site_adp_type
 _atom_site_occupancy
 _atom_site_site_symmetry_order  
 _atom_site_calc_flag
 _atom_site_refinement_flags_posn
 _atom_site_refinement_flags_adp
 _atom_site_refinement_flags_occupancy
 _atom_site_disorder_assembly
 _atom_site_disorder_group
C30 C 0.4858(6) 0.10283(17) 0.6580(2) 0.0290(17) Uani 0.5 1 d . . P A -1
H30 H 0.435468 0.117399 0.699154 0.035 Uiso 0.5 1 calc R U P A -1
C40 C 0.508(2) 0.03084(18) 0.6505(2) 0.035(3) Uani 0.5 1 d . . P A -1
H40 H 0.473952 -0.001901 0.688516 0.041 Uiso 0.5 1 calc R U P A -1
Zn1 Zn 0.500000 0.43641(2) 0.55765(2) 0.02216(10) Uani 1 2 d S T P . .
O1 O 0.60362(8) 0.48351(7) 0.63725(8) 0.0334(3) Uani 1 1 d . . . . .
O2 O 0.60001(12) 0.57991(9) 0.54719(9) 0.0483(4) Uani 1 1 d . . . . .
C1 C 0.62813(12) 0.54540(11) 0.61783(11) 0.0325(4) Uani 1 1 d . . . . .
C2 C 0.69420(12) 0.58299(10) 0.68483(11) 0.0304(4) Uani 1 1 d . . . . .
C6 C 0.750000 0.69197(16) 0.750000 0.0467(7) Uani 1 2 d S T P . .
H6 H 0.750001 0.741869 0.749999 0.056 Uiso 1 2 calc R U P . .
C7 C 0.69703(14) 0.65548(11) 0.68362(13) 0.0414(5) Uani 1 1 d . . . . .
H7 H 0.662109 0.680466 0.636545 0.050 Uiso 1 1 calc R U . . .
C12 C 0.750000 0.54614(14) 0.750000 0.0268(5) Uani 1 2 d S T P . .
H12 H 0.750000 0.496248 0.749999 0.032 Uiso 1 2 calc R U P . .
C9 C 0.5357(2) 0.15237(18) 0.6066(2) 0.0284(7) Uani 0.5 1 d . . P A -1
C11 C 0.6266(2) 0.05651(18) 0.5311(3) 0.0284(7) Uani 0.5 1 d . . P A -1
C8 C 0.6057(2) 0.12984(18) 0.5403(2) 0.0281(7) Uani 0.5 1 d . . P A -1
N5 N 0.6551(3) 0.1703(2) 0.4800(3) 0.0330(8) Uani 0.5 1 d . . P A -1
C3 C 0.4538(4) 0.3128(2) 0.6812(3) 0.0657(14) Uani 0.5 1 d . . P A -1
H3 H 0.419127 0.342250 0.723532 0.079 Uiso 0.5 1 calc R U P A -1
C4 C 0.5427(3) 0.28119(19) 0.5722(2) 0.0359(8) Uani 0.5 1 d . . P A -1
H4 H 0.591947 0.279462 0.525389 0.043 Uiso 0.5 1 calc R U P A -1
N8 N 0.4591(4) 0.24483(18) 0.6925(3) 0.0758(16) Uani 0.5 1 d . . P A -1
N4 N 0.6923(2) 0.04262(18) 0.4650(3) 0.0388(7) Uani 0.5 1 d . . P A -1
S1 S 0.72245(8) 0.11724(7) 0.42031(8) 0.0422(2) Uani 0.5 1 d . . P A -1
C13 C 0.5781(2) 0.00669(18) 0.5900(2) 0.0288(7) Uani 0.5 1 d . . P A -1
N3 N 0.500000 0.22481(12) 0.61892(15) 0.0474(6) Uani 1 2 d S T P . .
N1 N 0.500000 0.33766(11) 0.60702(13) 0.0278(4) Uani 1 2 d S T P . .
N102_1 N 0.6758(4) -0.1656(2) 0.5717(4) 0.0689(14) Uani 0.5 1 d . . P A -1
N103_1 N 0.6016(2) -0.06493(15) 0.5862(2) 0.0353(7) Uani 0.5 1 d . . P A -1
C3_1 C 0.6818(4) -0.0971(3) 0.5569(4) 0.0602(15) Uani 0.5 1 d . . P A -1
H3_1 H 0.735620 -0.074039 0.529293 0.072 Uiso 0.5 1 calc R U P A -1
C4_1 C 0.5881(4) -0.1718(2) 0.6120(4) 0.0620(13) Uani 0.5 1 d . . P A -1
H4_1 H 0.562898 -0.216073 0.630762 0.074 Uiso 0.5 1 calc R U P A -1
N4_1 N 0.5395(2) -0.11362(17) 0.6241(3) 0.0495(9) Uani 0.5 1 d . . P A -1
 
loop_
 _atom_site_aniso_label
 _atom_site_aniso_U_11
 _atom_site_aniso_U_22
 _atom_site_aniso_U_33
 _atom_site_aniso_U_23
 _atom_site_aniso_U_13
 _atom_site_aniso_U_12
C30 0.020(5) 0.0303(15) 0.0370(13) 0.0026(11) 0.0060(16) -0.0029(14)
C40 0.039(8) 0.0286(15) 0.0359(13) 0.0075(11) -0.005(3) -0.012(4)
Zn1 0.02738(15) 0.02256(16) 0.01653(14) 0.00189(9) 0.000 0.000
O1 0.0247(6) 0.0475(8) 0.0281(6) -0.0059(5) -0.0055(5) 0.0009(5)
O2 0.0572(9) 0.0563(10) 0.0313(7) -0.0013(6) -0.0246(6) 0.0049(7)
C1 0.0243(8) 0.0477(12) 0.0255(8) -0.0051(7) -0.0048(7) 0.0052(7)
C2 0.0267(8) 0.0421(11) 0.0224(7) 0.0001(7) -0.0039(6) 0.0013(7)
C6 0.0589(18) 0.0370(16) 0.0443(15) 0.000 -0.0141(13) 0.000
C7 0.0462(11) 0.0441(12) 0.0339(9) 0.0054(8) -0.0129(8) 0.0042(9)
C12 0.0211(10) 0.0372(13) 0.0222(9) 0.000 -0.0016(9) 0.000
C9 0.0303(14) 0.0219(17) 0.0330(15) 0.0026(13) 0.0024(12) -0.0027(12)
C11 0.0212(14) 0.0248(18) 0.0391(17) 0.0044(13) -0.0027(14) 0.0010(12)
C8 0.0229(15) 0.0231(17) 0.0383(16) 0.0045(13) -0.0029(13) -0.0009(12)
N5 0.0265(16) 0.0279(18) 0.0446(19) 0.0031(16) 0.0101(15) -0.0007(13)
C3 0.105(4) 0.026(2) 0.066(3) -0.0058(19) 0.049(3) -0.010(2)
C4 0.0447(18) 0.0277(19) 0.0354(16) 0.0103(14) 0.0146(15) 0.0068(15)
N8 0.126(4) 0.0295(19) 0.072(2) -0.0043(17) 0.062(2) -0.015(2)
N4 0.0311(15) 0.0261(17) 0.0593(19) 0.0073(15) 0.0083(14) 0.0053(13)
S1 0.0369(6) 0.0293(6) 0.0604(6) 0.0081(5) 0.0201(5) 0.0068(5)
C13 0.0242(15) 0.0231(17) 0.0392(17) 0.0050(14) -0.0104(14) -0.0024(13)
N3 0.0895(19) 0.0230(12) 0.0295(10) 0.0004(9) 0.000 0.000
N1 0.0338(10) 0.0254(11) 0.0241(9) 0.0010(8) 0.000 0.000
N102_1 0.063(3) 0.030(2) 0.114(4) 0.013(3) -0.001(3) 0.017(2)
N103_1 0.0293(15) 0.0250(16) 0.0516(17) 0.0102(13) -0.0111(14) -0.0001(12)
C3_1 0.054(3) 0.040(3) 0.086(4) 0.020(3) 0.003(3) 0.020(2)
C4_1 0.063(3) 0.022(2) 0.101(4) 0.021(2) -0.015(3) 0.001(2)
N4_1 0.0393(15) 0.0254(17) 0.084(2) 0.0186(16) -0.0123(17) -0.0050(13)
 
_geom_special_details
;
 All esds (except the esd in the dihedral angle between two l.s. planes)
 are estimated using the full covariance matrix.  The cell esds are taken
 into account individually in the estimation of esds in distances, angles
 and torsion angles; correlations between esds in cell parameters are only
 used when they are defined by crystal symmetry.  An approximate (isotropic)
 treatment of cell esds is used for estimating esds involving l.s. planes.
;
 
loop_
 _geom_bond_atom_site_label_1
 _geom_bond_atom_site_label_2
 _geom_bond_distance
 _geom_bond_site_symmetry_2
 _geom_bond_publ_flag
C30 C9 1.377(6) . ?
C30 C40 1.409(8) . ?
C40 C13 1.37(2) . ?
Zn1 N1 2.005(2) . ?
Zn1 O1 2.0325(11) 12_655 ?
Zn1 O1 2.0325(11) . ?
Zn1 O2 2.0518(13) 9_666 ?
Zn1 O2 2.0518(13) 4_566 ?
Zn1 Zn1 2.9179(5) 9_666 ?
O1 C1 1.257(2) . ?
O2 C1 1.256(2) . ?
C1 C2 1.499(2) . ?
C2 C7 1.381(3) . ?
C2 C12 1.392(2) . ?
C6 C7 1.378(2) 7_646 ?
C6 C7 1.378(2) . ?
C9 C8 1.414(5) . ?
C9 N3 1.476(4) . ?
C11 N4 1.330(5) . ?
C11 C13 1.429(5) . ?
C11 C8 1.432(5) . ?
C8 N5 1.337(5) . ?
N5 S1 1.613(4) . ?
C3 N8 1.307(5) . ?
C3 N1 1.315(4) . ?
C4 N1 1.323(4) . ?
C4 N3 1.393(4) . ?
N8 N3 1.244(4) . ?
N4 S1 1.610(3) . ?
C13 N103_1 1.403(4) . ?
N102_1 C3_1 1.324(7) . ?
N102_1 C4_1 1.348(8) . ?
N103_1 C3_1 1.334(6) . ?
N103_1 N4_1 1.373(4) . ?
C4_1 N4_1 1.307(6) . ?
 
loop_
 _geom_angle_atom_site_label_1
 _geom_angle_atom_site_label_2
 _geom_angle_atom_site_label_3
 _geom_angle
 _geom_angle_site_symmetry_1
 _geom_angle_site_symmetry_3
 _geom_angle_publ_flag
C9 C30 C40 121.1(9) . . ?
C13 C40 C30 121.9(11) . . ?
N1 Zn1 O1 102.80(5) . 12_655 ?
N1 Zn1 O1 102.80(5) . . ?
O1 Zn1 O1 89.95(7) 12_655 . ?
N1 Zn1 O2 96.25(6) . 9_666 ?
O1 Zn1 O2 89.32(6) 12_655 9_666 ?
O1 Zn1 O2 160.61(6) . 9_666 ?
N1 Zn1 O2 96.25(6) . 4_566 ?
O1 Zn1 O2 160.62(6) 12_655 4_566 ?
O1 Zn1 O2 89.32(6) . 4_566 ?
O2 Zn1 O2 85.03(9) 9_666 4_566 ?
N1 Zn1 Zn1 166.43(5) . 9_666 ?
O1 Zn1 Zn1 86.69(4) 12_655 9_666 ?
O1 Zn1 Zn1 86.69(4) . 9_666 ?
O2 Zn1 Zn1 73.93(5) 9_666 9_666 ?
O2 Zn1 Zn1 73.93(5) 4_566 9_666 ?
C1 O1 Zn1 118.96(10) . . ?
C1 O2 Zn1 134.68(15) . 9_666 ?
O2 C1 O1 125.44(17) . . ?
O2 C1 C2 116.16(18) . . ?
O1 C1 C2 118.38(15) . . ?
C7 C2 C12 119.75(17) . . ?
C7 C2 C1 119.14(15) . . ?
C12 C2 C1 121.08(17) . . ?
C7 C6 C7 119.5(3) 7_646 . ?
C6 C7 C2 120.70(18) . . ?
C2 C12 C2 119.5(2) . 7_646 ?
C30 C9 C8 119.0(4) . . ?
C30 C9 N3 114.2(3) . . ?
C8 C9 N3 126.3(3) . . ?
N4 C11 C13 126.7(3) . . ?
N4 C11 C8 113.3(3) . . ?
C13 C11 C8 120.0(3) . . ?
N5 C8 C9 126.7(3) . . ?
N5 C8 C11 113.6(3) . . ?
C9 C8 C11 119.6(3) . . ?
C8 N5 S1 105.6(3) . . ?
N8 C3 N1 115.2(4) . . ?
N1 C4 N3 105.0(3) . . ?
N3 N8 C3 103.1(3) . . ?
C11 N4 S1 106.1(3) . . ?
N4 S1 N5 101.38(19) . . ?
C40 C13 N103_1 120.9(4) . . ?
C40 C13 C11 118.2(4) . . ?
N103_1 C13 C11 120.9(3) . . ?
N8 N3 C4 110.7(3) . . ?
N8 N3 C9 122.6(3) . . ?
C4 N3 C9 121.4(2) . . ?
C3 N1 C4 102.8(3) . . ?
C3 N1 Zn1 127.9(2) . . ?
C4 N1 Zn1 129.27(18) . . ?
C3_1 N102_1 C4_1 102.1(5) . . ?
C3_1 N103_1 N4_1 109.4(4) . . ?
C3_1 N103_1 C13 130.7(4) . . ?
N4_1 N103_1 C13 119.7(3) . . ?
N102_1 C3_1 N103_1 110.6(5) . . ?
N4_1 C4_1 N102_1 116.4(4) . . ?
C4_1 N4_1 N103_1 101.4(4) . . ?
 
_refine_diff_density_max    0.486
_refine_diff_density_min   -0.477
_refine_diff_density_rms    0.057

_shelx_res_file
;
TITL pvl819_auto_a.res in Cmca
    pvl819_auto_a.res
    created by SHELXL-2018/3 at 16:02:38 on 25-Dec-2021
REM Old TITL pvl819_auto in Aea2
REM SHELXT solution in Cmca: R1 0.157, Rweak 0.011, Alpha 0.034
REM <I/s>   1.474 for  144 systematic absences,  Orientation a'=c, b'=-b, c'=a
REM Formula found by SHELXT:  C25 N7 O8 Zn
CELL  0.71073  13.8630  19.0397  14.1184   90.000   90.000   90.000
ZERR   42.000   0.0005   0.0008   0.0004    0.000    0.000    0.000
LATT  7
SYMM -X, 1/2-Y, 1/2+Z
SYMM -X, 1/2+Y, 1/2-Z
SYMM X, -Y, -Z
SFAC C H N O S ZN
UNIT 144 80 64 32 8 8
ACTA
TEMP -103
L.S. 10
BOND
LIST 4
FMAP 2
PLAN 20
WGHT    0.033500    2.215600
FVAR       0.25376
PART -1 10.5000
C30   1    0.485834    0.102825    0.657976    10.50000    0.01961    0.03029 =
         0.03701    0.00264    0.00603   -0.00286
AFIX  43
H30   2    0.435468    0.117399    0.699154    10.50000   -1.20000
AFIX   0
C40   1    0.508257    0.030839    0.650521    10.50000    0.03910    0.02859 =
         0.03587    0.00750   -0.00459   -0.01169
AFIX  43
H40   2    0.473952   -0.001901    0.688516    10.50000   -1.20000
AFIX   0
PART 0
ZN1   6    0.500000    0.436406    0.557652    10.50000    0.02738    0.02256 =
         0.01653    0.00189    0.00000    0.00000
O1    4    0.603623    0.483514    0.637252    11.00000    0.02468    0.04749 =
         0.02813   -0.00591   -0.00553    0.00087
O2    4    0.600012    0.579913    0.547189    11.00000    0.05724    0.05628 =
         0.03131   -0.00134   -0.02457    0.00494
C1    1    0.628127    0.545403    0.617827    11.00000    0.02430    0.04766 =
         0.02553   -0.00505   -0.00481    0.00524
C2    1    0.694200    0.582992    0.684833    11.00000    0.02671    0.04206 =
         0.02243    0.00006   -0.00386    0.00126
C6    1    0.750000    0.691973    0.750000    10.50000    0.05891    0.03700 =
         0.04427    0.00000   -0.01406    0.00000
AFIX  43
H6    2    0.750001    0.741869    0.749999    10.50000   -1.20000
AFIX   0
C7    1    0.697033    0.655479    0.683623    11.00000    0.04623    0.04415 =
         0.03387    0.00545   -0.01288    0.00418
AFIX  43
H7    2    0.662109    0.680466    0.636545    11.00000   -1.20000
AFIX   0
C12   1    0.750000    0.546144    0.750000    10.50000    0.02107    0.03717 =
         0.02220    0.00000   -0.00165    0.00000
AFIX  43
H12   2    0.750000    0.496248    0.749999    10.50000   -1.20000
AFIX   0
PART 0
PART -1  10.5
C9    1    0.535729    0.152369    0.606557    10.50000    0.03031    0.02192 =
         0.03298    0.00258    0.00243   -0.00273
C11   1    0.626582    0.056505    0.531132    10.50000    0.02125    0.02477 =
         0.03906    0.00437   -0.00274    0.00095
C8    1    0.605652    0.129844    0.540317    10.50000    0.02292    0.02306 =
         0.03832    0.00448   -0.00287   -0.00093
N5    3    0.655147    0.170298    0.480041    10.50000    0.02654    0.02788 =
         0.04462    0.00315    0.01005   -0.00073
C3    1    0.453843    0.312833    0.681202    10.50000    0.10487    0.02650 =
         0.06587   -0.00584    0.04897   -0.01012
AFIX  43
H3    2    0.419127    0.342250    0.723532    10.50000   -1.20000
AFIX   0
C4    1    0.542748    0.281188    0.572171    10.50000    0.04467    0.02768 =
         0.03543    0.01033    0.01456    0.00680
AFIX  43
H4    2    0.591947    0.279462    0.525389    10.50000   -1.20000
AFIX   0
N8    3    0.459123    0.244834    0.692545    10.50000    0.12601    0.02950 =
         0.07183   -0.00432    0.06176   -0.01488

N4    3    0.692256    0.042624    0.465015    10.50000    0.03110    0.02606 =
         0.05934    0.00735    0.00830    0.00529
S1    5    0.722452    0.117237    0.420308    10.50000    0.03686    0.02933 =
         0.06044    0.00806    0.02013    0.00681
C13   1    0.578143    0.006695    0.590025    10.50000    0.02415    0.02310 =
         0.03917    0.00498   -0.01040   -0.00236
PART 0
N3    3    0.500000    0.224810    0.618923    10.50000    0.08954    0.02302 =
         0.02949    0.00039    0.00000    0.00000
N1    3    0.500000    0.337663    0.607022    10.50000    0.03380    0.02540 =
         0.02414    0.00099    0.00000    0.00000
RESI 1
PART -1
N102  3    0.675789   -0.165613    0.571677    10.50000    0.06295    0.03011 =
         0.11358    0.01319   -0.00125    0.01677
N103  3    0.601644   -0.064933    0.586206    10.50000    0.02934    0.02504 =
         0.05164    0.01021   -0.01112   -0.00013
C3    1    0.681757   -0.097104    0.556915    10.50000    0.05406    0.04004 =
         0.08643    0.01951    0.00307    0.01992
AFIX  43
H3    2    0.735620   -0.074039    0.529293    10.50000   -1.20000
AFIX   0
C4    1    0.588081   -0.171793    0.612041    10.50000    0.06305    0.02241 =
         0.10055    0.02098   -0.01549    0.00094
AFIX  43
H4    2    0.562898   -0.216073    0.630762    10.50000   -1.20000
AFIX   0
N4    3    0.539519   -0.113618    0.624055    10.50000    0.03931    0.02542 =
         0.08365    0.01863   -0.01235   -0.00499
PART 0
RESI 0
HKLF 4




REM  pvl819_auto_a.res in Cmca
REM wR2 = 0.0721, GooF = S = 1.075, Restrained GooF = 1.075 for all data
REM R1 = 0.0280 for 2142 Fo > 4sig(Fo) and 0.0327 for all 2384 data
REM 227 parameters refined using 0 restraints

END

WGHT      0.0335      2.2156

REM Highest difference peak  0.486,  deepest hole -0.477,  1-sigma level  0.057
Q1    1   0.4121  0.2433  0.6353  11.00000  0.05    0.49
Q2    1   0.5409  0.2177  0.6404  11.00000  0.05    0.43
Q3    1   0.5000  0.2269  0.5835  10.50000  0.05    0.39
Q4    1   0.4093  0.3106  0.6298  11.00000  0.05    0.38
Q5    1   0.6644  0.5623  0.6580  11.00000  0.05    0.35
Q6    1   0.7068  0.5624  0.7146  11.00000  0.05    0.30
Q7    1   0.5742  0.5503  0.5634  11.00000  0.05    0.30
Q8    1   0.5512  0.5751  0.5165  11.00000  0.05    0.23
Q9    1   0.5485  0.4423  0.6055  11.00000  0.05    0.23
Q10   1   0.5000  0.1274  0.6129  10.50000  0.05    0.23
Q11   1   0.7872  0.6738  0.7685  11.00000  0.05    0.22
Q12   1   0.5000  0.3314  0.6377  10.50000  0.05    0.21
Q13   1   0.5778  0.6005  0.5464  11.00000  0.05    0.21
Q14   1   0.5000  0.3742  0.6027  10.50000  0.05    0.20
Q15   1   0.6349 -0.1787  0.5610  11.00000  0.05    0.20
Q16   1   0.5243  0.3286  0.5743  11.00000  0.05    0.20
Q17   1   0.6021  0.4597  0.6564  11.00000  0.05    0.20
Q18   1   0.5000  0.4583  0.4646  10.50000  0.05    0.19
Q19   1   0.6009  0.5155  0.6404  11.00000  0.05    0.18
Q20   1   0.5996  0.0903  0.5389  11.00000  0.05    0.18
;
_shelx_res_checksum   94280

_shelx_hkl_file
;
 -16   0   0  177.17   14.33
 -16   0   0  190.11   15.74
 -14   0   0   56.27    7.51
 -14   0   0   55.15    7.79
 -12   0   0  332.50   12.49
 -12   0   0  351.51   16.76
 -12   0   0  335.99   17.41
 -10   0   0 3894.51   40.16
 -10   0   0 4027.44   51.26
 -10   0   0 4000.47   53.94
  -8   0   0 2596.45   29.66
  -8   0   0 2691.29   37.14
  -8   0   0 2666.89   38.97
  -6   0   0  894.70   15.26
  -6   0   0  924.84   18.89
  -6   0   0  910.27   19.53
  -4   0   0 2614.47   25.39
  -4   0   0 2543.22   26.39
  -4   0   0 2500.38   20.62
  -2   0   0 5714.39   28.08
  -2   0   0 5723.79   26.62
   2   0   0 5742.81   28.14
   2   0   0 5774.97   27.49
   4   0   0 2554.17   26.81
   4   0   0 2508.25   25.59
   6   0   0  928.22   19.82
   6   0   0  902.96   18.89
   8   0   0 2590.82   37.17
  10   0   0 4014.03   52.10
  12   0   0  336.87   16.87
 -17   1   0    1.91    1.48
 -17  -1   0    1.11    2.73
 -15   1   0    1.64    2.05
 -15  -1   0   -1.71    2.11
 -15   1   0    1.07    1.75
 -15  -1   0    0.48    1.27
 -13  -1   0    0.48    0.76
 -13   1   0   -0.19    0.94
 -13   1   0   -0.50    1.63
 -13   1   0   -1.62    1.73
 -13  -1   0   -0.68    1.62
 -13  -1   0    1.09    1.51
 -11   1   0   -0.41    0.68
 -11  -1   0    0.62    0.55
 -11  -1   0   -2.78    1.91
 -11   1   0   -2.42    1.79
 -11   1   0    0.19    1.30
 -11  -1   0   -0.75    1.43
  -9  -1   0   -0.49    1.15
  -9   1   0    2.63    1.93
  -9   1   0    0.74    1.19
  -9  -1   0    0.01    1.72
  -9   1   0    3.27    1.91
  -9  -1   0    1.19    0.83
  -7  -1   0   -0.84    0.90
  -7  -1   0    1.77    1.36
  -7   1   0   -1.38    1.61
  -7   1   0   -0.78    1.32
  -7   1   0    0.79    0.73
  -7  -1   0    0.19    0.47
  -5   1   0    1.21    0.82
  -5  -1   0    2.34    1.32
  -5  -1   0    0.38    0.94
  -5   1   0   -0.80    1.15
  -5   1   0    7.92    1.89
  -5  -1   0    0.19    0.55
  -3  -1   0    4.08    1.21
  -3  -1   0    4.20    1.05
  -3   1   0    3.74    1.10
  -3  -1   0    2.87    0.65
  -3   1   0    3.26    1.02
  -1  -1   0    1.66    0.57
   3   1   0    2.40    0.90
   3   1   0    2.74    0.96
   3  -1   0    4.04    1.11
   3   1   0    3.95    0.74
   5   1   0    1.09    0.88
   5   1   0    2.25    1.44
   5   1   0    0.46    0.78
   5  -1   0    3.10    1.22
   7   1   0    0.67    1.26
   7  -1   0   -0.12    0.79
   7   1   0    1.00    1.00
   9   1   0   -0.91    1.33
   9  -1   0    1.71    1.52
   9   1   0    0.63    0.76
  11   1   0   -1.02    1.36
  11  -1   0    0.20    1.04
  13   1   0    1.61    1.71
  13  -1   0   -0.35    0.93
 -18  -2   0   22.20    5.97
 -16   2   0  193.23   15.09
 -16   2   0  198.79   15.92
 -16  -2   0  206.71   16.74
 -14  -2   0   38.41    6.43
 -14   2   0   54.78    7.54
 -14   2   0   47.53    7.27
 -14  -2   0   41.44    6.91
 -12   2   0  150.04    9.57
 -12   2   0  147.22   11.18
 -12  -2   0  199.60   12.62
 -12   2   0  150.89   11.59
 -12  -2   0  195.78   13.50
 -10  -2   0 1961.55   25.42
 -10   2   0 1935.59   31.97
 -10   2   0 1992.69   37.08
 -10  -2   0 1975.84   35.78
 -10   2   0 1966.89   37.22
 -10  -2   0 1933.48   38.05
  -8   2   0 1777.11   31.26
  -8   2   0 1770.24   31.64
  -8  -2   0 1850.25   30.85
  -8   2   0 1698.31   27.38
  -8  -2   0 1780.82   21.78
  -8   2   0 1775.63   31.82
  -8  -2   0 1793.70   32.64
  -6  -2   0    5.37    1.63
  -6   2   0    4.73    1.55
  -6  -2   0    6.04    1.22
  -6   2   0    5.64    1.63
  -6  -2   0   12.74    2.62
  -4  -2   0  560.11   12.33
  -4   2   0  684.07   14.34
  -4  -2   0  555.03   13.37
  -2   2   0  291.44    7.44
  -2  -2   0  257.59    7.16
   0   2   0 9129.73   35.22
   0  -2   0 8878.30   35.77
   2  -2   0  293.44    7.47
   2   2   0  251.62    7.17
   4   2   0  552.30   12.23
   4   2   0  558.13    8.55
   4  -2   0  697.98   14.42
   4   2   0  539.20   13.30
   6   2   0    4.79    1.18
   6   2   0    5.98    1.82
   6  -2   0    5.86    1.71
   8   2   0 1895.29   34.08
   8   2   0 1789.88   30.20
   8  -2   0 1755.58   31.72
   8   2   0 1904.34   32.42
  10   2   0 2027.27   39.31
  10  -2   0 2025.85   38.28
  10   2   0 2010.14   36.90
  12  -2   0  143.01   11.04
  12   2   0  199.93   12.92
 -17   3   0    0.28    1.51
 -17  -3   0   -3.04    2.88
 -17   3   0   -1.23    2.07
 -15   3   0    1.54    1.81
 -15   3   0   -2.39    1.46
 -15  -3   0    2.41    2.49
 -13   3   0   -0.12    1.16
 -13   3   0    4.30    2.39
 -13   3   0    0.01    1.24
 -13  -3   0    1.61    1.54
 -11   3   0    3.05    1.76
 -11   3   0    2.74    1.99
 -11  -3   0    0.65    1.39
 -11   3   0    1.01    1.69
 -11  -3   0   -0.05    1.10
  -9  -3   0    0.71    0.95
  -9   3   0    3.03    1.85
  -9   3   0    0.90    1.05
  -9   3   0    1.77    1.33
  -9   3   0    0.29    1.63
  -9  -3   0    1.05    1.10
  -7   3   0    2.33    0.96
  -7  -3   0    2.23    0.91
  -7   3   0    4.78    1.42
  -7  -3   0    3.41    1.75
  -5   3   0    0.70    0.84
  -5  -3   0    0.47    1.02
  -3   3   0    1.42    1.02
  -3  -3   0    1.72    1.20
  -1  -3   0    3.64    0.96
  -1   3   0    4.10    1.08
  -1  -3   0    3.98    1.06
   1   3   0    4.77    1.18
   1  -3   0    4.76    1.18
   1   3   0    3.67    1.10
   3  -3   0    1.94    1.07
   3   3   0    1.78    1.10
   5   3   0   -0.50    1.00
   5   3   0    0.99    0.84
   5  -3   0    1.74    1.32
   5   3   0    0.08    0.49
   7   3   0    6.97    2.10
   7   3   0    6.69    2.10
   7  -3   0    4.33    1.66
   7   3   0    6.88    1.38
   9   3   0    0.09    1.13
   9   3   0    1.06    1.49
   9   3   0    2.45    1.34
   9  -3   0    1.86    1.32
  11   3   0    3.94    1.85
  11  -3   0    3.00    2.02
  11   3   0    1.07    1.26
  13   3   0    0.86    1.79
 -18  -4   0   12.11    4.66
 -16   4   0   28.08    6.35
 -16   4   0   33.61    6.81
 -16  -4   0   33.71    6.86
 -14   4   0   25.53    5.53
 -14   4   0   20.18    4.89
 -14  -4   0   11.22    3.80
 -12   4   0   31.87    4.87
 -12   4   0   34.69    5.80
 -12   4   0   31.37    5.11
 -12  -4   0   44.06    6.72
 -10   4   0   47.33    5.45
 -10   4   0   46.49    5.87
 -10   4   0   51.15    6.39
 -10   4   0   49.56    6.31
 -10  -4   0   22.43    4.40
  -8   4   0  137.60    9.12
  -8   4   0  144.53    9.51
  -8  -4   0  210.22   11.98
  -6   4   0  291.70   12.05
  -6  -4   0  287.88   12.29
  -4   4   0  580.81   15.00
  -4  -4   0  494.55   14.33
  -2  -4   0 1987.46   24.50
  -2   4   0 1822.77   23.74
  -2  -4   0 2003.53   25.07
   0  -4   0 1467.19   19.92
   0   4   0 1341.04   19.28
   2   4   0 1933.61   24.78
   2  -4   0 1790.83   23.41
   2   4   0 1998.54   25.07
   4   4   0  457.76   12.55
   4  -4   0  592.70   15.23
   4   4   0  475.05   14.01
   6   4   0  273.23   10.83
   6   4   0  286.46    7.77
   6  -4   0  283.32   11.96
   6   4   0  296.95   12.53
   8   4   0  205.34    6.94
   8   4   0  214.87   12.00
   8   4   0  199.89   10.59
   8  -4   0  147.99    9.67
  10   4   0   22.56    4.06
  10   4   0   22.44    4.38
  10   4   0   21.68    3.93
  10  -4   0   47.65    6.12
  12  -4   0   30.76    5.35
  12   4   0   41.57    6.03
 -17   5   0   -1.50    1.43
 -17   5   0   -2.43    1.90
 -17  -5   0    5.64    3.12
 -15   5   0    1.32    1.81
 -15   5   0   -1.95    2.51
 -15  -5   0   -0.68    2.00
 -13   5   0   -0.01    0.98
 -13   5   0   -0.06    2.16
 -13   5   0   -1.51    2.54
 -13  -5   0    4.03    2.61
 -11   5   0    0.03    1.04
 -11   5   0    3.46    2.19
 -11   5   0    0.79    1.56
 -11   5   0    0.03    1.60
 -11  -5   0   -2.47    1.98
  -9   5   0   -2.69    2.18
  -9   5   0    0.47    1.01
  -9  -5   0    0.30    1.91
  -7   5   0    1.51    1.63
  -7  -5   0   -1.05    1.57
  -5  -5   0    3.47    2.27
  -5   5   0   -0.07    1.02
  -5  -5   0   -0.14    1.30
  -3  -5   0    2.38    1.20
  -3   5   0    0.85    1.03
  -3  -5   0    1.98    1.59
  -1   5   0   -2.01    1.34
   1   5   0   -0.10    0.96
   1   5   0    0.26    0.85
   1   5   0    0.82    0.97
   1  -5   0    0.08    0.73
   3  -5   0    6.03    1.58
   3   5   0    0.01    1.00
   5   5   0   -0.31    0.86
   5  -5   0    0.75    1.24
   5   5   0   -0.27    0.94
   7   5   0    0.61    1.08
   7   5   0    2.50    1.22
   7  -5   0    0.39    0.99
   7   5   0    5.43    1.14
   9   5   0    0.69    0.74
   9   5   0   -0.36    1.07
   9  -5   0   -0.78    1.90
   9   5   0    0.03    0.60
  11   5   0   -0.17    1.65
  11   5   0    2.22    2.13
  11   5   0    1.61    0.97
  11  -5   0   -1.64    1.91
 -18  -6   0   31.38    7.49
 -16   6   0  136.26   13.56
 -16  -6   0  135.79   14.34
 -16   6   0  145.04   14.05
 -14   6   0  138.85   12.68
 -14   6   0  124.33   11.96
 -14  -6   0  100.49   11.54
 -12   6   0   33.00    5.58
 -12   6   0   32.09    5.75
 -12   6   0   33.07    5.54
 -12   6   0   31.80    5.70
 -12  -6   0   16.46    4.25
 -10   6   0  636.51   22.41
 -10   6   0  618.10   22.75
 -10  -6   0  503.72   21.46
  -8   6   0  592.89   20.47
  -8  -6   0  621.67   21.82
  -6  -6   0  555.08   19.72
  -6   6   0  552.28   18.18
  -6  -6   0  542.70   18.62
  -4  -6   0 1509.69   28.06
  -4   6   0 1468.79   27.25
  -4  -6   0 1497.37   28.05
  -2  -6   0 1177.71   22.16
  -2   6   0 1186.50   22.81
   0   6   0  954.57   19.53
   0  -6   0  908.92   19.68
   2   6   0 1191.22   21.78
   2  -6   0 1165.45   22.33
   2   6   0 1159.49   22.22
   2   6   0 1189.96   22.27
   4  -6   0 1446.17   27.10
   4   6   0 1487.45   27.70
   6   6   0  513.94   16.35
   6  -6   0  537.88   18.15
   6   6   0  515.68   17.91
   8   6   0  595.66   19.14
   8   6   0  600.82   12.97
   8  -6   0  578.84   20.42
   8   6   0  636.14   22.04
  10   6   0  505.22   21.29
  10   6   0  495.50   18.95
  10  -6   0  645.22   23.59
  12   6   0   22.93    4.59
  12   6   0   22.67    4.59
 -17   7   0    2.60    2.70
 -17  -7   0    0.75    2.50
 -15  -7   0   -3.34    3.28
 -15   7   0   -1.65    1.56
 -15   7   0    0.03    1.89
 -15  -7   0    1.25    1.76
 -13   7   0   -3.02    2.32
 -13   7   0   -1.07    1.77
 -13   7   0   -0.08    1.87
 -13  -7   0    3.62    2.68
 -11   7   0   -1.43    1.88
 -11   7   0    0.37    1.44
 -11  -7   0    0.50    1.51
  -9  -7   0    0.06    1.33
  -9   7   0   -0.58    1.24
  -9  -7   0    2.00    2.02
  -7  -7   0    6.33    2.88
  -7   7   0    6.31    2.36
  -7  -7   0    5.41    2.29
  -5  -7   0    3.82    1.53
  -5   7   0    0.97    1.34
  -5  -7   0    3.06    1.99
  -3  -7   0    1.86    1.21
  -3   7   0    0.54    1.06
  -3  -7   0    5.06    2.21
  -1   7   0    0.91    1.20
   1   7   0    1.49    1.17
   1   7   0    0.51    1.31
   1  -7   0    1.22    1.28
   1   7   0    0.50    0.89
   3   7   0    1.77    1.07
   3  -7   0    1.01    1.14
   3   7   0    2.19    1.40
   5  -7   0    5.05    1.90
   5   7   0    2.86    1.48
   7   7   0    3.41    1.29
   7   7   0    5.21    2.31
   7  -7   0    5.56    2.22
   7   7   0    5.75    1.56
   9   7   0    0.33    1.81
   9   7   0    0.92    1.11
   9  -7   0   -0.77    1.17
   9   7   0    0.01    0.62
  11   7   0   -0.59    1.21
  11  -7   0    2.90    2.44
  13   7   0    0.37    1.37
 -16   8   0  445.79   24.49
 -16   8   0  460.01   25.63
 -16  -8   0  452.43   26.50
 -14   8   0  145.50   13.15
 -14   8   0  144.05   13.47
 -14  -8   0  155.81   16.47
 -14   8   0  148.41   13.74
 -14  -8   0  151.13   14.47
 -12   8   0  477.53   22.22
 -12  -8   0  520.10   27.40
 -12   8   0  468.50   22.58
 -12  -8   0  538.13   25.43
 -10  -8   0  491.39   23.92
 -10   8   0  450.77   20.61
 -10  -8   0  457.90   21.61
  -8  -8   0 1239.61   34.53
  -8   8   0 1047.19   29.27
  -8  -8   0 1184.14   31.57
  -6  -8   0 2051.03   39.79
  -6   8   0 1890.89   36.43
  -6  -8   0 2045.15   39.34
  -4  -8   0  217.18   11.86
  -4   8   0  148.99    9.70
  -4  -8   0  223.13   12.16
  -2   8   0  605.98   18.65
   0   8   0 3076.28   41.01
   0  -8   0 3108.53   41.22
   2   8   0  761.96   19.88
   2   8   0  760.74   21.06
   2  -8   0  595.92   18.47
   2   8   0  797.57   21.17
   4  -8   0  150.08    9.91
   4   8   0  215.71   11.77
   6  -8   0 1917.50   37.53
   6   8   0 2104.19   39.67
   8   8   0 1192.82   29.09
   8   8   0 1208.91   21.01
   8  -8   0 1108.13   30.48
   8   8   0 1247.38   32.97
  10   8   0  442.71   18.87
  10  -8   0  441.34   20.74
  10   8   0  466.80   12.18
  12   8   0  486.55   21.16
 -17   9   0    3.18    3.15
 -17  -9   0    0.00    1.90
 -15   9   0    2.74    2.83
 -15   9   0    2.85    2.67
 -15  -9   0    0.20    1.67
 -15   9   0    0.92    1.65
 -15  -9   0    0.35    1.89
 -13   9   0   -0.55    1.51
 -13  -9   0    5.57    3.15
 -13   9   0   -2.88    3.19
 -13  -9   0    2.06    2.02
 -11  -9   0   -1.75    2.44
 -11   9   0    2.61    2.80
 -11  -9   0   -0.11    1.51
  -9  -9   0    0.10    1.46
  -9   9   0    0.42    1.35
  -9  -9   0   -0.22    1.53
  -7  -9   0   -2.42    2.14
  -7   9   0   -1.78    2.23
  -7  -9   0   -0.86    1.87
  -5  -9   0    0.31    1.15
  -5   9   0    1.46    1.56
  -5  -9   0   -0.57    1.08
  -3   9   0   -0.47    1.20
  -1   9   0    2.66    1.99
   1   9   0    1.46    0.90
   1   9   0    4.70    1.94
   1  -9   0    2.66    1.13
   1   9   0    6.07    2.46
   3   9   0   -0.75    0.97
   3   9   0    1.31    1.30
   3  -9   0    0.11    0.97
   3   9   0    0.22    1.34
   5  -9   0    1.05    1.11
   5   9   0    0.36    1.22
   7   9   0    1.07    1.25
   7  -9   0    1.79    1.73
   7   9   0   -0.50    1.33
   9   9   0   -2.23    2.04
   9  -9   0   -1.88    2.27
   9   9   0    0.48    0.73
  11   9   0    0.46    0.61
  11   9   0    0.06    1.61
 -16  10   0  187.83   17.10
 -16  10   0  180.80   15.89
 -16 -10   0  218.05   19.26
 -14  10   0   52.68    8.91
 -14  10   0   57.28    8.46
 -14 -10   0   68.32   11.32
 -14  10   0   53.30    8.55
 -14 -10   0   58.46    9.39
 -12 -10   0   72.29   10.57
 -12  10   0   56.59    8.58
 -12 -10   0   69.06    9.64
 -10 -10   0  179.71   14.86
 -10  10   0  147.92   12.55
 -10 -10   0  170.67   14.01
  -8 -10   0  511.21   23.29
  -8  10   0  689.58   25.63
  -8 -10   0  539.02   23.37
  -6 -10   0 1257.23   33.54
  -6  10   0 1158.14   31.08
  -6 -10   0 1230.52   32.99
  -4 -10   0  222.59   12.93
  -4  10   0  304.25   15.21
  -2  10   0  505.73   19.02
   0  10   0 1310.73   29.91
   0 -10   0 1291.48   30.02
   2  10   0  544.39   18.63
   2  10   0  568.16   20.01
   2 -10   0  506.06   19.39
   2  10   0  566.66   20.31
   4  10   0  221.28   13.24
   4 -10   0  295.26   15.06
   4  10   0  215.99   12.58
   4  10   0  219.69   13.26
   6 -10   0 1184.59   31.99
   6  10   0 1303.22   33.84
   8  10   0  512.89   20.62
   8 -10   0  692.33   25.75
  10  10   0  179.77    8.59
  10  10   0  170.41   12.43
 -15  11   0   -0.80    1.92
 -15  11   0   -1.68    2.97
 -15  11   0    3.08    2.61
 -15 -11   0    0.25    2.64
 -13  11   0    0.12    1.52
 -13 -11   0    1.62    2.87
 -13  11   0   -1.66    2.55
 -13 -11   0   -2.45    2.42
 -11 -11   0    1.96    1.68
 -11  11   0   -0.37    1.93
 -11 -11   0   -3.05    3.21
  -9 -11   0   -1.80    2.44
  -9  11   0   -1.89    2.41
  -9 -11   0   -1.13    2.28
  -7 -11   0    3.10    2.27
  -7  11   0    1.17    1.33
  -7 -11   0   -0.14    1.96
  -5 -11   0    2.21    1.86
  -5  11   0    3.45    2.05
  -3  11   0    4.29    2.57
  -1  11   0    3.23    1.63
   1  11   0    7.70    2.31
   1  11   0    4.24    1.97
   1  11   0    3.20    1.76
   1 -11   0    7.27    2.72
   3  11   0   -0.77    0.98
   3 -11   0    0.01    1.09
   3  11   0    1.30    1.28
   3  11   0    2.79    2.38
   5 -11   0    2.15    1.93
   5  11   0    3.32    2.03
   5  11   0    1.27    1.67
   7 -11   0    3.30    2.05
   9  11   0    0.60    0.77
   9  11   0    1.28    2.10
  11  11   0    0.83    0.75
 -16  12   0    3.58    4.02
 -16  12   0    1.99    3.25
 -16 -12   0    4.56    3.29
 -14  12   0    0.65    1.43
 -14 -12   0   -0.87    2.90
 -14  12   0    0.99    1.64
 -14 -12   0    0.56    2.97
 -12 -12   0  111.26   13.38
 -12  12   0   95.10   11.34
 -12 -12   0  133.67   14.07
 -10 -12   0  164.15   15.10
 -10  12   0  187.85   15.16
 -10 -12   0  163.34   14.79
  -8 -12   0  179.58   14.47
  -8  12   0  197.65   14.52
  -8 -12   0  174.60   14.12
  -6 -12   0   90.90    9.61
  -6  12   0   97.65    9.87
  -4  12   0  185.54   12.99
  -2  12   0  187.07   12.87
   0  12   0  296.35   15.66
   0  12   0  301.31   15.98
   2  12   0  190.56   12.08
   2 -12   0  208.50   13.75
   2  12   0  187.14   12.87
   2  12   0  184.92   12.39
   4  12   0  191.57   13.08
   4 -12   0  189.28   13.34
   4  12   0  209.76   14.10
   4  12   0  189.51   13.32
   6  12   0   93.69    9.46
   8  12   0  173.69   12.97
  10  12   0  164.61    9.28
 -15  13   0    0.12    1.91
 -15  13   0    2.52    1.71
 -15 -13   0   -2.76    2.60
 -13 -13   0   -0.83    2.05
 -13  13   0   -0.05    1.72
 -13 -13   0    0.09    2.76
 -11 -13   0   -0.96    1.88
 -11  13   0   -2.59    2.78
 -11 -13   0   -3.72    3.15
  -9 -13   0    1.04    1.58
  -9  13   0    4.74    3.11
  -9 -13   0   -0.76    2.53
  -7 -13   0    1.20    2.37
  -7  13   0    0.12    1.48
  -5  13   0   -1.49    1.95
  -3  13   0    0.61    1.80
  -1  13   0    1.78    1.92
   1  13   0   -0.16    1.11
   1  13   0    0.80    0.96
   1 -13   0    2.02    2.02
   1  13   0    1.84    1.70
   3  13   0    1.52    1.35
   3  13   0   -0.22    1.11
   3 -13   0   -1.72    2.56
   3  13   0    0.20    1.19
   5  13   0   -0.15    1.57
   7  13   0    0.05    1.66
   9  13   0   -4.22    3.32
  11  13   0    1.61    0.95
 -14  14   0   21.19    6.25
 -14 -14   0   15.23    5.04
 -12 -14   0   92.30   13.00
 -12  14   0  102.62   12.52
 -12 -14   0  102.68   13.12
 -10 -14   0  373.21   23.61
 -10  14   0  364.84   22.20
  -8 -14   0  119.50   12.72
  -8  14   0  197.02   15.68
  -6  14   0   80.68    9.67
  -4  14   0   86.68    9.68
  -2  14   0  866.50   29.96
   0  14   0   93.54    9.11
   0  14   0   95.64    9.75
   2  14   0  952.78   29.29
   2  14   0  958.02   30.91
   4  14   0   40.52    6.64
   6  14   0  123.10   11.82
   8  14   0  120.65   12.10
  10  14   0  390.98   16.16
  10  14   0  352.76   21.18
  12  14   0   96.58   11.54
 -15  15   0    1.08    3.23
 -13 -15   0    0.44    1.97
 -13  15   0    3.63    2.79
 -11 -15   0    9.34    4.91
 -11  15   0    4.05    3.46
  -9 -15   0    1.75    2.02
  -9  15   0   -1.29    2.29
  -7  15   0    2.85    2.63
  -5  15   0   -1.91    2.33
  -3  15   0    3.62    2.26
  -1  15   0    0.68    1.55
   1  15   0   -0.53    1.14
   1  15   0   -0.67    1.92
   3  15   0    2.27    2.22
   5  15   0   -0.58    1.68
   7  15   0    4.55    3.05
   9  15   0    1.21    1.67
  11  15   0   -0.86    1.34
  13  15   0    1.44    3.03
 -14  16   0  124.79   15.25
 -12 -16   0  129.67   15.46
 -12  16   0  136.34   15.07
 -10 -16   0   58.03    9.85
 -10  16   0   68.69   10.39
  -8  16   0  538.23   27.46
  -6  16   0    6.78    3.11
  -4  16   0  291.64   19.02
  -2  16   0  297.13   19.06
   0  16   0  560.10   25.62
   2  16   0  281.50   18.25
   4  16   0  234.22   16.70
   6  16   0    2.40    2.06
   8  16   0  559.05   28.22
  10  16   0   63.31    9.85
  12  16   0  125.06   14.17
  14  16   0  107.95   13.62
 -13  17   0   -0.06    2.40
 -11  17   0    2.50    2.58
  -9  17   0   -1.28    2.31
  -7  17   0    1.13    1.96
  -5  17   0    3.51    3.28
  -3  17   0    0.28    1.88
  -1  17   0    0.65    2.11
   1  17   0    1.90    1.53
   3  17   0    1.95    2.12
   5  17   0   -0.68    1.93
   7  17   0   -1.98    2.53
   9  17   0    1.51    2.11
  11  17   0    4.00    3.26
  13  17   0   -2.31    3.02
 -12  18   0   22.87    6.67
 -10  18   0   15.85    4.85
  -8  18   0  134.69   14.74
  -6  18   0  262.23   19.95
  -4  18   0  276.13   20.13
  -2  18   0  167.89   15.49
   0  18   0  888.60   34.97
   2  18   0  121.10   12.98
   4  18   0  270.52   19.50
   6  18   0  227.38   18.12
   8  18   0  182.56   16.67
  10  18   0   24.24    6.39
  12  18   0   27.04    7.19
 -11  19   0   -2.06    2.44
  -9  19   0    0.83    2.87
  -7  19   0    1.34    1.99
  -5  19   0    0.30    1.67
  -3  19   0    1.70    3.26
  -1  19   0    0.41    2.13
   1  19   0    1.53    2.18
   3  19   0    0.48    1.61
   5  19   0   -2.12    2.97
   7  19   0   -1.77    2.21
   9  19   0   -1.68    1.87
  11  19   0    2.82    3.18
  -8  20   0   23.58    6.41
  -6  20   0   -0.84    2.65
  -4  20   0    1.64    1.69
  -2  20   0   11.25    4.54
   0  20   0   68.08   10.53
   2  20   0   14.23    4.62
   4  20   0    0.03    2.18
   6  20   0    3.32    1.60
   8  20   0   12.47    4.21
  10  20   0   28.04    7.38
  -7  21   0    1.05    2.95
  -5  21   0    4.62    3.99
  -3  21   0    1.52    2.21
  -1  21   0   -1.79    1.72
   1  21   0    1.82    3.31
   3  21   0   -1.35    2.85
   5  21   0    3.84    3.33
   7  21   0   -0.23    1.87
   9  21   0   -1.12    2.32
  -6  22   0  103.70   14.19
  -4  22   0  273.89   22.97
  -2  22   0  126.40   15.22
   0  22   0  312.18   23.84
   2  22   0  132.17   15.57
   4  22   0  276.90   22.74
   6  22   0   79.51   11.99
  -1  23   0   -3.81    2.58
   1  23   0   -0.20    2.78
   3  23   0    6.82    4.32
 -18   0  -1   -2.54    3.26
 -16   0  -1   -0.61    1.28
 -16   0   1   -2.12    1.92
 -16   0   1   -1.26    1.38
 -16   0  -1    0.46    1.70
 -14   0  -1    3.97    2.83
 -14   0  -1   -1.17    2.06
 -14   0   1    1.26    2.20
 -14   0   1    1.02    1.63
 -12   0   1    0.83    0.72
 -12   0  -1    1.31    0.94
 -12   0  -1    0.73    1.32
 -12   0   1    2.12    1.61
 -12   0  -1   -1.35    2.49
 -12   0   1    4.38    2.53
 -10   0  -1   -1.62    1.68
 -10   0   1   -1.35    1.60
 -10   0   1    0.29    1.08
 -10   0  -1    0.57    1.64
 -10   0  -1    0.66    0.65
 -10   0   1    1.17    0.83
  -8   0  -1   -1.09    1.83
  -8   0  -1    1.55    1.18
  -8   0   1    0.95    1.27
  -8   0   1    0.86    1.35
  -8   0  -1    0.23    0.49
  -8   0   1    0.48    0.74
  -6   0  -1    2.32    1.29
  -6   0   1    0.64    0.80
  -6   0   1   -1.01    1.41
  -6   0  -1    0.88    0.95
  -6   0   1    2.27    1.07
  -6   0  -1    1.20    0.81
  -4   0   1   -0.29    0.63
  -4   0  -1   -2.24    1.33
  -4   0  -1    0.61    0.63
  -4   0   1    1.21    1.14
  -4   0   1    1.45    0.87
  -2   0  -1    1.46    0.95
  -2   0   1    3.08    1.13
  -2   0   1    1.29    0.67
   2   0   1    2.23    0.73
   2   0  -1    2.63    0.97
   2   0   1    2.45    0.77
   2   0  -1    1.02    0.60
   4   0   1    0.25    0.79
   4   0  -1    3.86    1.59
   4   0  -1    0.59    0.74
   4   0   1   -0.06    0.70
   4   0  -1    0.20    0.61
   6   0  -1    1.58    0.84
   6   0  -1   -0.34    0.81
   6   0   1    0.82    1.07
   8   0   1    0.93    0.96
   8   0  -1    0.41    0.68
  10   0  -1   -1.06    1.67
  10   0   1    0.63    1.49
  12   0  -1    1.98    1.86
  12   0   1    0.84    1.04
  14   0  -1    0.59    1.02
 -17   1   1  104.77   11.95
 -17  -1   1   90.67   11.11
 -17   1   1  112.22   11.98
 -17  -1   1   89.18   10.80
 -17  -1  -1   83.52   11.36
 -17   1  -1   89.78   11.53
 -15   1  -1  221.13   14.76
 -15  -1   1  237.51   16.55
 -15  -1  -1  253.23   15.50
 -15   1   1  202.83   15.43
 -15   1  -1  211.80   16.43
 -15   1   1  221.08   15.48
 -15  -1  -1  235.45   17.45
 -15  -1   1  240.72   16.67
 -13  -1   1  104.84    7.54
 -13   1  -1   95.11    6.79
 -13   1   1  110.81    8.54
 -13  -1  -1   73.31    4.83
 -13   1   1  108.44   10.34
 -13  -1   1   97.66    9.64
 -13   1  -1   88.48    8.61
 -13  -1  -1   77.83    7.92
 -13   1  -1   81.47    9.33
 -13  -1  -1   81.27    9.31
 -13   1   1  118.54   10.43
 -13  -1   1   98.82    9.67
 -11   1   1  723.11   20.34
 -11   1  -1  720.57   17.66
 -11  -1  -1  796.61   15.34
 -11  -1   1  776.47   19.55
 -11   1  -1  734.09   22.20
 -11  -1   1  816.20   25.53
 -11  -1  -1  834.99   23.16
 -11   1   1  729.89   24.40
 -11  -1  -1  824.47   27.10
 -11   1  -1  740.83   25.49
 -11   1   1  758.46   23.56
 -11  -1   1  819.68   24.75
  -9   1   1 1021.15   22.41
  -9  -1   1 1097.94   21.35
  -9  -1  -1 1161.90   16.92
  -9   1  -1 1073.40   19.82
  -9  -1  -1 1223.63   24.74
  -9   1  -1 1078.68   27.38
  -9  -1   1 1144.75   27.19
  -9   1   1 1055.86   26.68
  -9   1  -1 1131.99   24.57
  -9  -1   1 1124.11   25.77
  -9  -1  -1 1219.55   29.63
  -9   1   1 1033.24   24.39
  -7  -1  -1 1760.56   17.70
  -7  -1   1 1763.85   24.35
  -7   1   1 1837.56   27.38
  -7   1   1 1897.81   31.70
  -7   1   1 1825.86   27.59
  -7  -1   1 1814.13   30.37
  -7  -1  -1 1792.39   25.70
  -7   1  -1 1839.40   27.07
  -7   1  -1 1833.82   31.87
  -7  -1   1 1856.86   28.86
  -7  -1  -1 1817.19   32.13
  -5  -1  -1    9.27    2.48
  -5   1  -1    5.25    1.38
  -5   1   1    5.82    1.48
  -5  -1  -1    6.49    1.46
  -5   1   1    3.15    1.06
  -5   1  -1    6.65    1.52
  -5  -1   1    5.57    1.71
  -5  -1  -1    7.05    0.95
  -5  -1   1    5.92    1.51
  -5   1   1    7.23    1.67
  -5   1   1    5.53    1.44
  -5   1  -1   11.90    2.45
  -5  -1   1    6.15    1.61
  -3   1   1 2490.32   25.68
  -3   1   1 2567.33   23.84
  -3   1   1 2593.18   19.67
  -3  -1   1 2464.08   24.86
  -3  -1   1 2395.41   21.18
  -3   1   1 2577.52   19.84
  -3  -1   1 2482.27   21.24
  -1   1   1 1348.68   13.69
  -1  -1   1 1502.90   14.54
  -1  -1   1 1521.68   13.77
  -1   1  -1 1217.52   13.23
  -1  -1  -1 1406.43   14.10
   1   1  -1 1491.87   14.29
   1   1  -1 1400.33   13.08
   1   1  -1 1256.56   12.58
   1  -1   1 1267.94   13.44
   1   1   1 1336.91   13.63
   3   1  -1 2444.35   25.13
   3   1  -1 2457.22   21.09
   3  -1  -1 2518.86   19.70
   3   1  -1 2465.81   20.95
   5   1  -1    6.51    1.64
   5   1  -1    6.04    1.52
   5   1   1    6.05    1.70
   5   1   1    7.15    1.53
   5   1  -1    5.88    1.25
   5  -1   1    5.53    1.53
   5  -1  -1    6.91    1.64
   5   1   1    7.43    1.69
   5   1  -1    5.92    1.25
   7   1   1 1847.33   32.54
   7   1  -1 1833.51   29.00
   7   1  -1 1756.78   30.02
   7  -1  -1 1783.92   27.01
   7  -1   1 1799.80   31.14
   7   1  -1 1804.61   26.61
   7   1   1 1808.42   31.06
   9   1  -1 1173.82   26.67
   9  -1  -1 1032.25   23.88
   9   1   1 1230.41   28.75
   9  -1   1 1120.22   27.56
   9   1  -1 1112.47   24.37
  11   1  -1  788.62   22.98
  11  -1   1  743.85   25.09
  11   1   1  828.86   26.14
  11  -1  -1  724.82   22.62
  13  -1  -1  105.46    9.41
  13   1  -1  100.21    9.24
 -18  -2  -1   73.00   11.17
 -18   2  -1   83.95   11.47
 -16   2  -1   18.91    4.69
 -16   2   1   16.92    5.09
 -16   2  -1   15.68    5.07
 -16  -2   1   18.10    4.96
 -16   2   1   17.02    4.56
 -16  -2  -1   21.67    5.57
 -14  -2   1   47.39    7.21
 -14   2  -1   62.78    7.53
 -14   2   1   47.95    7.38
 -14   2  -1   58.54    8.48
 -14  -2   1   50.22    7.57
 -14   2   1   51.36    7.27
 -14  -2  -1   56.09    8.21
 -12  -2   1   47.65    4.77
 -12   2   1   44.05    5.40
 -12   2  -1   35.86    4.44
 -12   2   1   55.39    7.19
 -12   2  -1   35.83    5.24
 -12   2  -1   35.25    6.04
 -12  -2   1   51.63    6.75
 -12  -2  -1   37.84    5.39
 -12  -2   1   53.21    6.94
 -12   2   1   49.40    6.49
 -12  -2  -1   34.42    5.86
 -10  -2   1    1.90    0.75
 -10   2  -1   17.00    2.82
 -10   2   1    1.43    1.15
 -10  -2   1    3.76    1.97
 -10   2  -1   11.59    2.90
 -10  -2  -1   13.54    2.58
 -10   2   1    1.47    0.90
 -10   2  -1   14.55    3.10
 -10   2   1    2.13    1.88
 -10  -2   1    1.31    1.30
 -10  -2  -1   19.43    4.19
  -8  -2   1   54.70    5.76
  -8   2  -1   45.77    4.85
  -8   2   1   60.34    5.52
  -8  -2  -1   45.74    4.51
  -8   2  -1   50.87    5.75
  -8   2   1   65.39    6.34
  -8  -2  -1   44.41    2.68
  -8   2   1   63.12    5.55
  -8  -2   1   54.95    4.47
  -8   2   1   65.85    5.87
  -8  -2  -1   43.15    5.47
  -8  -2   1   58.05    5.67
  -6   2   1    5.87    2.20
  -6   2  -1    4.78    1.75
  -6  -2   1    1.60    1.33
  -6  -2  -1    3.19    1.06
  -6  -2  -1    2.64    1.34
  -6   2   1    2.05    1.29
  -6   2   1    1.31    1.24
  -6  -2   1    2.28    1.04
  -6   2  -1    8.21    2.11
  -6   2   1    3.22    1.42
  -6  -2   1    1.77    1.11
  -4  -2  -1   20.55    2.94
  -4  -2   1   54.33    4.29
  -4  -2   1   49.79    3.34
  -4   2  -1   45.31    4.24
  -4   2   1   94.05    4.92
  -4  -2   1   50.57    3.85
  -2  -2   1 1322.20   17.82
  -2   2   1 1508.52   15.61
  -2   2  -1 1560.96   19.04
  -2  -2   1 1370.41   15.70
  -2  -2  -1 1410.12   18.18
   0   2  -1  161.11    4.79
   0  -2   1  158.51    4.72
   0   2   1  154.85    4.48
   0  -2  -1  157.98    4.59
   2   2  -1 1323.27   17.21
   2  -2  -1 1475.18   15.37
   2  -2   1 1525.23   18.66
   2   2   1 1390.19   18.11
   2   2  -1 1335.59   15.52
   4   2  -1   49.07    4.07
   4   2   1   19.16    2.75
   4   2  -1   50.89    3.35
   4  -2  -1   89.85    4.82
   4  -2   1   50.50    4.34
   4   2  -1   51.27    3.84
   6   2   1    5.10    1.77
   6   2   1    5.32    1.41
   6   2  -1    4.38    1.70
   6   2  -1    1.84    1.15
   6  -2   1    3.78    1.48
   6  -2  -1    2.94    1.43
   6   2  -1    2.75    0.92
   8   2   1   46.83    5.57
   8   2  -1   52.71    5.59
   8   2  -1   58.26    5.66
   8   2   1   44.39    5.34
   8  -2  -1   52.51    5.10
   8  -2   1   46.68    5.49
   8   2  -1   57.36    5.25
  10   2  -1    2.58    1.58
  10   2   1   20.44    4.22
  10   2   1   18.00    3.48
  10  -2   1   14.88    3.57
  10   2  -1    1.37    1.15
  10  -2  -1    0.91    1.42
  12  -2   1   39.76    6.38
  12  -2  -1   51.59    6.39
  12   2   1   38.12    6.02
  12   2  -1   47.11    6.09
  14  -2  -1   44.41    6.63
  14   2  -1   54.48    7.17
 -17   3  -1   12.81    4.47
 -17   3   1   10.18    4.42
 -17  -3  -1   12.17    4.05
 -17  -3   1   11.47    4.17
 -15   3   1   46.93    7.14
 -15   3   1   58.85    8.65
 -15   3  -1   50.88    8.02
 -15   3  -1   67.16    8.44
 -15  -3  -1   40.80    7.58
 -15  -3   1   34.32    6.46
 -13   3  -1   42.00    5.19
 -13   3   1   36.92    5.57
 -13   3   1   36.48    6.46
 -13   3  -1   42.22    6.13
 -13  -3   1   36.55    6.07
 -13   3  -1   37.03    6.32
 -13  -3  -1   44.16    7.12
 -13   3   1   39.28    6.28
 -13  -3   1   33.84    5.77
 -11   3   1    0.44    0.99
 -11   3  -1    0.66    1.15
 -11   3   1   -0.03    1.31
 -11  -3   1    2.61    1.67
 -11   3  -1    2.25    2.31
 -11   3   1    2.03    1.42
 -11   3  -1    1.01    1.40
 -11  -3   1    3.23    1.91
 -11  -3  -1    8.17    3.48
  -9   3  -1  308.60   13.51
  -9   3   1  286.23   14.28
  -9  -3   1  288.03   13.92
  -9   3  -1  300.08   14.68
  -9   3   1  308.40   13.46
  -9   3   1  294.03   13.00
  -9   3  -1  310.43   15.05
  -9   3   1  296.12   13.36
  -9  -3   1  295.85   14.04
  -9  -3  -1  310.49   15.34
  -7   3   1  205.08    9.61
  -7  -3   1  170.96    9.61
  -7   3  -1  227.60   11.40
  -7   3  -1  234.08   11.64
  -7   3   1  186.98    9.35
  -7  -3  -1  206.97   11.16
  -7  -3   1  161.86    9.23
  -5  -3   1    3.48    1.45
  -5   3   1    4.27    1.44
  -5   3  -1    7.53    2.23
  -5  -3  -1    6.40    1.95
  -5  -3   1    2.74    0.92
  -3  -3   1  226.26    9.18
  -3   3   1  204.04    7.27
  -3   3  -1  150.93    7.10
  -3  -3   1  217.67    7.82
  -3  -3  -1  182.53    7.89
  -1  -3  -1 2172.44   19.43
  -1   3  -1 1961.78   21.85
  -1  -3  -1 2196.27   22.86
  -1  -3   1 2096.83   20.17
   1   3  -1 2124.96   22.30
   1  -3   1 1949.21   21.64
   1  -3  -1 1927.12   20.55
   1   3   1 2091.54   22.14
   1   3  -1 2121.69   20.08
   3   3  -1  225.44    8.43
   3  -3  -1  204.88    7.28
   3  -3   1  150.54    7.13
   3   3  -1  227.20    7.87
   3   3   1  173.77    7.74
   5   3   1    8.82    2.25
   5   3  -1    1.51    0.68
   5   3   1   10.15    1.74
   5   3  -1    4.52    1.52
   5  -3  -1    4.96    1.41
   5  -3   1    8.40    2.00
   5   3  -1    2.10    1.10
   7   3  -1  156.16    8.87
   7   3   1  217.45   11.54
   7   3   1  200.07    8.96
   7   3  -1  155.43    9.17
   7  -3   1  230.58   11.73
   7  -3  -1  183.82    9.37
   7   3  -1  166.07    7.24
   9   3  -1  281.34   13.78
   9   3  -1  292.36   13.88
   9   3   1  318.12   15.58
   9   3   1  292.77   12.24
   9   3  -1  298.74   12.92
   9   3   1  296.20   14.38
   9  -3   1  312.40   15.19
   9  -3  -1  285.81   13.07
  11   3  -1    4.69    2.37
  11   3   1    4.12    2.06
  11  -3  -1   -0.03    0.95
  11  -3   1   -0.39    1.48
  11   3  -1    3.33    1.54
  11   3   1    5.04    2.22
  13  -3  -1   34.60    5.61
  13   3  -1   34.05    5.46
 -18  -4  -1   35.37    7.75
 -16   4   1    5.37    2.31
 -16   4  -1   -0.38    2.09
 -16   4   1    6.23    3.69
 -16   4  -1    7.33    2.83
 -16  -4   1   10.86    3.24
 -16  -4  -1    7.61    3.68
 -14   4   1   12.39    4.03
 -14   4  -1    4.36    2.64
 -14   4   1    9.69    3.16
 -14   4  -1    5.43    2.82
 -14  -4   1    7.28    3.08
 -14  -4  -1    5.32    3.12
 -12   4   1   23.83    4.44
 -12   4  -1   22.12    3.91
 -12   4   1   26.80    5.26
 -12   4  -1   18.60    3.71
 -12   4  -1   23.79    5.01
 -12   4   1   25.93    4.77
 -12  -4  -1   30.56    5.76
 -12  -4   1   35.94    5.89
 -10   4   1  119.99    9.00
 -10   4  -1  163.31   11.63
 -10   4  -1  164.97   10.76
 -10   4   1  126.44   10.18
 -10   4   1  127.58    9.30
 -10   4   1  128.20    9.64
 -10   4  -1  162.26   11.70
 -10  -4   1   85.77    8.16
 -10  -4  -1  111.28    9.96
  -8   4   1   60.24    5.69
  -8   4  -1   53.62    6.04
  -8   4  -1   51.17    5.98
  -8   4   1   55.86    5.60
  -8  -4   1   85.89    7.35
  -8  -4  -1   75.13    7.37
  -6   4  -1   56.68    5.70
  -6   4   1   54.24    4.99
  -6  -4  -1   50.93    5.51
  -6  -4   1   47.41    4.95
  -4  -4   1  430.48   14.27
  -4   4  -1  307.70   11.59
  -4   4   1  369.32   11.43
  -4  -4   1  429.14   12.53
  -4  -4  -1  353.01   12.53
  -2  -4   1    4.47    1.25
  -2  -4  -1    8.56    1.80
  -2   4  -1    8.99    2.10
  -2  -4  -1    9.40    1.82
  -2   4   1    2.97    1.17
   0   4  -1   68.30    4.46
   0  -4   1   67.93    4.37
   0   4   1   67.52    4.69
   0   4   1   69.96    4.28
   2   4  -1    3.59    1.30
   2  -4   1    3.84    1.31
   2   4  -1    5.23    1.52
   2   4   1    8.45    2.06
   2  -4  -1    5.66    1.38
   2   4  -1    3.78    1.14
   4   4  -1  429.28   13.08
   4  -4  -1  370.70   11.50
   4  -4   1  304.86   11.51
   4   4   1  341.61   12.41
   4   4  -1  439.50   12.90
   6   4   1   47.98    4.22
   6   4  -1   46.88    4.99
   6   4   1   50.83    2.35
   6   4  -1   47.95    3.86
   6  -4  -1   55.48    5.00
   6  -4   1   60.00    5.79
   6   4   1   52.57    5.65
   6   4  -1   47.23    4.82
   8   4   1   68.32    5.64
   8   4   1   75.97    7.35
   8   4  -1   74.47    6.79
   8   4  -1   81.82    5.33
   8  -4   1   54.93    6.13
   8  -4  -1   57.40    5.77
   8   4  -1   77.52    6.86
  10   4  -1   96.62    8.61
  10   4  -1   84.45    7.99
  10   4   1  104.28    9.62
  10   4   1  101.07    7.80
  10   4   1  111.43    9.36
  10  -4   1  158.67   11.44
  10   4  -1   89.92    7.59
  10  -4  -1  135.86    9.91
  12   4  -1   31.75    5.51
  12   4   1   32.45    5.55
  12   4  -1   32.70    4.99
  12  -4  -1   32.21    5.41
 -17   5   1    5.44    3.54
 -17   5  -1    6.49    4.07
 -17  -5  -1    1.20    1.53
 -17  -5   1    0.87    2.52
 -15   5  -1  135.48   12.37
 -15   5   1   99.08   11.52
 -15  -5  -1  130.65   13.53
 -15  -5   1  109.19   11.98
 -15   5  -1  128.44   12.97
 -15   5   1  113.62   11.27
 -13   5   1  111.22   10.17
 -13   5   1  123.78   10.73
 -13   5  -1  120.29   11.60
 -13   5  -1  113.49    9.41
 -13   5   1  122.40   11.75
 -13   5  -1  120.96   10.85
 -13  -5  -1   96.12   10.74
 -13  -5   1   92.83   10.05
 -11   5  -1  482.92   19.81
 -11   5   1  459.45   19.01
 -11   5   1  493.13   19.53
 -11   5  -1  486.54   21.26
 -11   5   1  488.82   21.50
 -11   5   1  478.35   19.91
 -11   5  -1  478.27   21.33
 -11  -5  -1  426.41   20.77
 -11  -5   1  412.79   19.27
  -9   5   1    2.71    1.49
  -9   5  -1    0.42    1.45
  -9   5   1    0.30    1.12
  -9   5  -1   -0.24    1.12
  -9  -5  -1    5.50    2.39
  -9  -5   1    1.61    1.22
  -7   5  -1  517.75   18.40
  -7   5   1  525.33   16.95
  -7  -5   1  414.16   16.02
  -7  -5  -1  385.30   16.24
  -5  -5   1   49.24    5.43
  -5   5  -1   59.66    5.69
  -5   5   1   36.95    4.18
  -5  -5   1   46.08    4.82
  -5  -5  -1   62.50    5.79
  -3  -5   1  291.75   11.37
  -3  -5  -1  281.95   10.63
  -3   5   1  293.73   10.72
  -3   5  -1  283.58   11.09
  -3  -5   1  279.09   10.65
  -3  -5  -1  279.65   11.23
  -1  -5  -1  133.94    6.10
  -1   5  -1  138.13    7.20
  -1   5   1  107.26    6.24
  -1  -5   1  108.82    6.03
  -1  -5  -1  142.24    7.23
   1   5  -1  117.26    6.35
   1   5   1  130.13    6.00
   1  -5   1  129.83    6.95
   1   5  -1  112.14    6.14
   1  -5  -1  114.44    6.41
   1   5   1  138.81    6.85
   3   5  -1  260.29   11.07
   3  -5  -1  295.49   10.51
   3  -5   1  287.78   11.28
   3   5   1  274.63   11.02
   3   5  -1  283.81   10.70
   5   5  -1   42.67    4.66
   5   5  -1   40.12    3.53
   5  -5   1   55.05    5.53
   5  -5  -1   35.98    4.09
   5   5   1   65.78    6.31
   5   5  -1   45.73    4.87
   7   5   1  380.90   13.15
   7   5  -1  406.89   15.49
   7   5  -1  412.08   11.87
   7   5   1  394.35    7.39
   7  -5  -1  522.78   17.18
   7  -5   1  519.88   18.63
   7   5   1  427.87   17.26
   7   5  -1  422.55   16.00
   9   5   1    5.29    1.68
   9   5  -1    3.38    1.88
   9   5  -1    1.23    1.53
   9   5   1    2.84    1.09
   9  -5  -1    1.46    1.47
   9  -5   1    2.21    2.04
   9   5  -1    3.17    1.21
  11   5   1  398.90   16.49
  11   5  -1  413.19   19.14
  11   5  -1  398.44   18.34
  11  -5  -1  471.22   19.72
  11  -5   1  483.98   21.51
  11   5  -1  420.34   17.70
  11   5   1  435.27   19.75
  13  -5  -1  117.91   10.69
  13   5  -1   93.08    9.14
 -18  -6  -1    7.41    3.18
 -16  -6   1   -0.72    2.58
 -16   6   1    1.53    1.60
 -16   6  -1   -1.58    2.61
 -16   6  -1    1.67    1.74
 -16   6   1    2.25    2.10
 -16  -6  -1    1.69    3.10
 -16  -6   1    3.60    2.70
 -14   6  -1    0.76    1.53
 -14   6  -1    3.44    1.72
 -14   6   1   -0.75    1.89
 -14   6   1    0.12    2.53
 -14  -6   1   -2.13    1.86
 -14  -6  -1    3.81    2.59
 -12   6  -1   19.99    4.70
 -12   6  -1   22.32    4.87
 -12   6   1   12.79    3.57
 -12   6   1   13.67    4.13
 -12   6   1    7.36    2.86
 -12   6   1    9.58    3.01
 -12   6  -1   18.52    4.48
 -12  -6   1   12.53    3.97
 -12  -6  -1   19.40    5.03
 -10   6  -1  211.38   13.48
 -10   6   1  256.76   13.72
 -10   6   1  254.15   14.13
 -10   6  -1  221.81   14.10
 -10  -6   1  253.93   14.92
 -10  -6  -1  196.47   13.71
  -8  -6   1   78.13    8.72
  -8   6  -1   42.53    5.74
  -8   6   1   81.67    7.33
  -8  -6  -1   36.79    5.30
  -8  -6   1   77.44    7.58
  -6  -6   1   82.81    7.72
  -6   6   1   86.15    6.92
  -6   6  -1   79.08    7.06
  -6  -6  -1   82.45    7.59
  -6  -6   1   75.27    6.72
  -4  -6   1  172.78    9.76
  -4  -6  -1  189.73   10.04
  -4   6  -1  194.41   10.14
  -4   6   1  167.64    9.08
  -4  -6   1  187.00    9.86
  -4  -6  -1  196.81   10.41
  -2  -6  -1  896.73   18.53
  -2   6  -1  911.18   20.44
  -2   6   1  915.38   19.67
  -2  -6  -1  920.62   20.33
   0   6  -1   70.11    5.44
   0  -6   1   61.61    5.27
   0   6   1   65.67    5.48
   0   6   1   63.28    5.12
   2   6  -1  835.21   19.15
   2   6   1  884.18   18.53
   2  -6   1  909.05   20.46
   2   6  -1  881.02   19.55
   2   6  -1  899.83   19.32
   2  -6  -1  906.55   19.89
   2   6   1  887.86   20.30
   4  -6   1  194.18   10.38
   4  -6  -1  174.88    9.10
   4   6   1  192.73   10.26
   4   6  -1  161.98    8.96
   6   6  -1   81.52    6.91
   6   6   1   75.60    6.03
   6   6  -1   83.23    5.54
   6  -6   1   82.97    7.40
   6  -6  -1   87.54    7.15
   6   6  -1   78.24    6.84
   6   6   1   81.15    7.27
   8   6   1   36.99    4.53
   8   6  -1   71.83    7.01
   8   6   1   39.23    2.51
   8   6  -1   73.50    5.34
   8  -6  -1   86.99    7.68
   8  -6   1   42.86    5.78
   8   6   1   40.51    5.65
   8   6  -1   74.70    7.32
  10   6  -1  250.58   14.43
  10   6   1  214.01   11.79
  10   6  -1  244.87   14.03
  10   6   1  222.39   14.53
  10  -6  -1  250.01   14.17
  10  -6   1  222.62   14.36
  10   6  -1  258.54   10.13
  12   6  -1   13.91    3.64
  12   6   1   19.89    4.15
  12  -6  -1   13.27    3.68
  12   6  -1    8.46    2.84
 -17   7   1   60.80    9.71
 -17   7  -1   61.74    9.70
 -17  -7   1   44.00    8.28
 -17  -7  -1   49.90    9.32
 -15  -7   1   57.26   10.45
 -15   7   1   52.90    8.63
 -15   7  -1   54.90    8.75
 -15   7   1   51.37    7.46
 -15   7  -1   50.21    7.97
 -15  -7   1   59.53    9.59
 -15  -7  -1   51.80    8.90
 -13   7   1  302.69   17.28
 -13   7  -1  296.53   17.84
 -13   7   1  309.94   19.31
 -13   7  -1  299.60   18.60
 -13  -7   1  309.49   21.91
 -13   7  -1  305.04   19.26
 -13   7   1  308.00   18.13
 -13  -7  -1  295.12   19.40
 -13  -7   1  300.92   18.93
 -11   7  -1  162.43   12.53
 -11   7   1  171.42   12.02
 -11  -7   1  186.22   15.20
 -11   7   1  167.84   12.38
 -11   7  -1  160.32   12.73
 -11  -7  -1  188.74   14.38
 -11  -7   1  176.69   13.28
  -9  -7   1  331.26   18.68
  -9   7   1  411.11   17.76
  -9   7  -1  386.16   18.36
  -9  -7  -1  332.48   17.72
  -9  -7   1  330.50   16.52
  -7  -7  -1  234.12   14.46
  -7  -7   1  216.90   13.67
  -7   7   1  300.57   14.23
  -7   7  -1  326.78   15.69
  -7  -7   1  210.45   12.39
  -7  -7  -1  244.31   13.89
  -5  -7   1  728.02   22.14
  -5  -7  -1  753.13   22.04
  -5   7   1  723.68   20.48
  -5   7  -1  683.55   20.78
  -5  -7  -1  716.55   21.83
  -5  -7   1  743.00   21.50
  -3  -7  -1 1122.03   23.41
  -3  -7   1 1026.85   23.84
  -3   7   1 1125.91   24.13
  -3   7  -1 1186.29   25.82
  -3  -7  -1 1106.63   25.03
  -1   7  -1 3448.54   41.14
  -1   7   1 3444.24   40.74
  -1  -7   1 3517.51   40.52
   1   7  -1 3461.82   40.31
   1   7   1 3431.50   36.33
   1  -7   1 3283.18   40.59
   1   7  -1 3527.13   40.10
   1  -7  -1 3462.78   41.33
   1   7   1 3481.65   41.33
   1   7   1 3473.52   40.86
   3   7  -1 1045.96   23.98
   3  -7  -1 1107.88   23.80
   3  -7   1 1180.31   25.71
   3   7   1 1088.36   24.65
   3   7  -1 1006.91   22.98
   3   7  -1 1055.95   22.55
   5  -7  -1  710.49   20.41
   5  -7   1  730.07   21.85
   5   7  -1  714.05   20.77
   5   7   1  751.23   22.31
   7   7   1  232.30   11.30
   7   7  -1  206.26   11.87
   7   7  -1  198.29    9.10
   7   7   1  223.20    7.49
   7  -7   1  327.26   15.93
   7  -7  -1  292.03   14.15
   7   7   1  234.68   13.64
   7   7  -1  209.57   12.15
   9   7   1  305.41   13.98
   9   7  -1  326.51   15.99
   9   7  -1  336.66   11.89
   9   7   1  327.38    7.61
   9  -7   1  408.93   19.11
   9  -7  -1  411.69   18.09
   9   7  -1  352.83   17.24
   9   7   1  347.78   17.94
  11   7   1  170.46   11.25
  11   7  -1  171.68   12.56
  11  -7  -1  171.03   12.65
  11   7  -1  184.18    8.64
  13   7   1  273.69   15.42
  13   7  -1  303.83   17.13
 -16   8   1    5.68    3.51
 -16   8  -1   -0.66    2.36
 -16   8  -1   -0.05    2.33
 -16  -8   1    4.27    3.33
 -16  -8  -1   -1.90    3.20
 -14   8  -1   -0.74    2.44
 -14   8  -1    6.69    3.59
 -14   8   1    3.42    2.40
 -14   8   1    5.05    2.86
 -14  -8  -1   -1.58    2.58
 -14  -8   1    4.54    4.51
 -14   8  -1    1.30    1.45
 -14   8   1    3.96    1.67
 -14  -8  -1   -0.15    2.62
 -14  -8   1    2.40    2.62
 -12   8  -1   49.23    7.51
 -12   8   1   39.75    6.33
 -12  -8  -1   48.44    8.68
 -12  -8   1   50.04    8.51
 -12   8   1   35.97    6.32
 -12   8  -1   51.91    7.90
 -12  -8  -1   51.74    8.26
 -12  -8   1   49.69    7.61
 -10  -8   1  157.05   13.73
 -10  -8  -1  142.36   12.90
 -10   8  -1  109.19   10.54
 -10   8   1  123.48   10.47
 -10  -8   1  155.51   12.23
 -10  -8  -1  139.38   12.24
  -8  -8  -1    4.04    2.61
  -8  -8   1   -0.26    1.83
  -8   8   1    3.91    1.93
  -8   8  -1    9.84    2.91
  -8  -8  -1    9.22    3.48
  -8  -8   1   -0.05    1.72
  -6  -8  -1    7.44    2.75
  -6  -8   1    0.82    1.33
  -6   8  -1    2.97    2.09
  -6   8   1   -1.13    1.54
  -6  -8   1    3.41    1.84
  -6  -8  -1    4.68    1.91
  -4  -8  -1   63.91    6.28
  -4  -8   1   79.19    7.34
  -4   8  -1   64.93    6.55
  -4   8   1   78.21    6.91
  -4  -8  -1   63.72    6.58
  -2   8  -1  154.02    9.75
  -2   8   1  101.59    7.56
   0   8  -1   45.45    4.91
   0   8   1   40.11    4.84
   0   8   1   41.96    4.71
   0  -8   1   44.78    5.10
   2   8   1  195.90    9.81
   2   8  -1  130.34    8.62
   2  -8   1  152.69    9.49
   2  -8  -1  101.01    7.94
   2   8  -1  138.97    8.63
   2   8  -1  134.83    8.87
   2   8   1  204.55   10.75
   2   8   1  200.85   10.95
   4   8  -1   83.26    7.42
   4  -8  -1   86.33    7.32
   4  -8   1   72.09    7.05
   4   8   1   66.08    6.49
   4   8  -1   86.06    7.48
   4   8  -1   80.69    6.73
   6   8  -1    1.39    0.81
   6  -8   1    3.06    1.63
   6   8  -1    2.53    1.71
   6   8   1    5.07    2.12
   6  -8  -1    0.61    1.40
   8   8  -1    0.09    1.48
   8   8   1    3.40    1.68
   8   8   1    3.25    2.09
   8   8   1    3.85    1.19
   8   8  -1    0.12    0.94
   8  -8   1   11.39    3.29
   8  -8  -1    6.30    2.75
   8   8  -1    1.19    1.49
  10   8  -1  144.89   11.32
  10   8   1  139.14   10.08
  10  -8  -1  124.25   10.69
  10   8  -1  160.05    8.38
  10   8   1  141.80    4.87
  12   8  -1   47.78    4.39
  12   8   1   51.79    6.66
 -17   9   1   84.89   11.67
 -17  -9  -1   98.42   13.31
 -17  -9   1  103.39   13.03
 -15   9  -1  175.43   15.42
 -15   9  -1  177.50   15.65
 -15   9   1  175.81   14.63
 -15   9   1  172.40   16.04
 -15  -9   1  151.48   17.02
 -15  -9  -1  174.87   18.16
 -15   9  -1  172.98   16.12
 -15   9   1  179.89   15.48
 -15  -9  -1  170.32   16.50
 -15  -9   1  161.06   15.55
 -13   9  -1  472.16   24.25
 -13   9   1  486.51   25.28
 -13   9   1  489.11   22.88
 -13  -9  -1  464.99   27.48
 -13  -9   1  480.77   27.86
 -13   9   1  475.38   23.43
 -13   9  -1  448.47   24.20
 -13  -9  -1  480.66   25.99
 -13  -9   1  463.65   24.59
 -11  -9  -1  152.80   14.52
 -11  -9   1  154.82   14.52
 -11   9  -1  162.28   13.62
 -11   9   1  170.68   13.17
 -11  -9   1  157.21   13.33
 -11  -9  -1  136.47   12.97
  -9  -9  -1 1175.73   36.13
  -9  -9   1 1248.43   37.03
  -9   9  -1 1143.98   33.55
  -9   9   1 1212.25   32.88
  -9  -9   1 1236.82   34.72
  -9  -9  -1 1201.20   35.06
  -7  -9  -1  374.53   18.44
  -7  -9   1  355.35   18.15
  -7   9  -1  372.41   17.94
  -7   9   1  352.55   16.52
  -7  -9  -1  358.77   17.77
  -7  -9   1  369.33   17.73
  -5  -9   1 2446.40   43.74
  -5  -9  -1 2407.31   41.67
  -5   9  -1 2447.48   43.15
  -5   9   1 2528.04   42.86
  -5  -9  -1 2415.03   43.45
  -3  -9  -1 2496.26   38.76
  -3   9   1 2430.60   39.97
  -3   9  -1 2384.94   40.49
  -3  -9  -1 2518.57   41.25
  -1   9   1 1855.97   33.84
  -1   9  -1 1726.38   33.10
  -1  -9   1 1729.34   32.56
   1   9  -1 1705.28   31.80
   1   9   1 1592.48   28.66
   1   9  -1 1689.32   31.89
   1  -9   1 1735.74   33.25
   1  -9  -1 1835.03   34.47
   1   9   1 1618.93   31.91
   1   9   1 1670.58   33.57
   3   9  -1 2503.61   40.41
   3   9   1 2513.74   39.14
   3  -9   1 2407.98   40.78
   3   9  -1 2534.85   41.26
   3   9   1 2488.70   40.32
   3   9  -1 2575.43   40.35
   3  -9  -1 2479.08   40.94
   3   9   1 2561.49   42.09
   5  -9  -1 2524.14   42.75
   5  -9   1 2520.31   44.08
   5   9   1 2444.86   44.01
   5   9  -1 2458.72   40.16
   5   9  -1 2483.98   43.13
   7   9  -1  370.01   17.07
   7  -9  -1  369.39   17.28
   7  -9   1  386.70   18.44
   7   9  -1  372.36   17.69
   7   9   1  372.68   18.08
   9   9   1 1141.23   29.10
   9   9  -1 1209.79   32.37
   9   9  -1 1254.65   24.91
   9   9   1 1241.91   19.16
   9  -9  -1 1192.69   32.96
   9   9  -1 1300.04   35.30
  11   9  -1  162.02    8.64
  11   9   1  136.78   10.71
 -16  10  -1   25.33    6.19
 -16  10   1   28.13    6.94
 -16  10  -1   25.42    6.35
 -16 -10  -1   21.57    5.86
 -16 -10   1   28.23    7.25
 -14  10  -1   54.23    9.27
 -14  10   1   59.93    9.58
 -14  10   1   59.30    8.40
 -14 -10   1   39.43    8.47
 -14 -10  -1   37.30    8.28
 -14  10   1   59.39    8.79
 -14  10  -1   54.38    8.87
 -14 -10   1   49.27    8.57
 -14 -10  -1   36.03    7.52
 -12 -10  -1  149.90   15.24
 -12 -10   1  150.49   14.90
 -12  10  -1  192.85   15.74
 -12  10   1  169.68   14.14
 -12 -10  -1  138.51   13.59
 -12 -10   1  135.13   13.36
 -10 -10  -1    3.99    2.32
 -10 -10   1    7.21    3.75
 -10  10   1    3.46    2.06
 -10  10  -1   10.83    3.96
 -10 -10  -1    8.38    3.62
 -10 -10   1    6.59    3.00
  -8 -10  -1  273.89   16.73
  -8 -10   1  184.54   13.95
  -8  10   1  173.91   12.53
  -8  10  -1  255.73   15.77
  -8 -10  -1  257.46   16.21
  -8 -10   1  179.62   13.34
  -6 -10   1  361.36   18.04
  -6 -10  -1  325.99   16.61
  -6  10   1  337.39   16.62
  -6  10  -1  310.35   16.41
  -6 -10  -1  338.24   17.46
  -4 -10  -1  189.17   11.67
  -4  10  -1  196.50   12.54
  -4  10   1  176.06   11.64
  -4 -10  -1  199.31   12.73
  -2  10  -1 1263.08   30.60
  -2  10   1 1368.36   30.91
   0  10   1    2.92    1.56
   0  10  -1    3.59    2.35
   0  10   1    1.40    1.60
   0  10   1    0.17    1.09
   0 -10   1    3.11    1.57
   2  10  -1 1271.87   29.73
   2  10   1 1153.75   26.37
   2  10  -1 1281.68   29.29
   2  10   1 1214.72   29.96
   2  10  -1 1281.67   30.55
   2 -10  -1 1465.95   32.69
   2 -10   1 1292.96   30.89
   2  10   1 1210.24   29.59
   4  10  -1  184.43   12.11
   4 -10   1  197.05   12.45
   4 -10  -1  176.83   11.70
   4  10   1  203.05   12.73
   4  10  -1  192.44   11.98
   4  10  -1  181.73   12.05
   6 -10   1  317.72   16.77
   6 -10  -1  338.51   16.74
   6  10   1  351.74   17.74
   6  10  -1  354.32   16.35
   6  10  -1  389.97   18.18
   8  10  -1  183.40   12.74
   8  10   1  255.59   14.05
   8  10  -1  180.89    9.96
   8 -10  -1  172.71   12.65
   8  10  -1  183.73   13.28
  10  10  -1    5.13    1.77
  10  10   1    8.09    1.71
  10  10   1    7.31    2.85
  12  10  -1  137.67    8.01
  12  10   1  156.24   12.19
 -17  11   1    0.04    3.01
 -17 -11   1    7.09    3.79
 -15  11   1   28.46    6.21
 -15  11  -1   38.02    7.79
 -15  11   1   27.93    7.22
 -15  11  -1   32.21    7.16
 -15  11  -1   37.32    8.03
 -15  11   1   29.21    6.49
 -15 -11   1   28.64    6.97
 -15 -11  -1   27.93    6.96
 -13  11   1   74.45    9.22
 -13  11  -1   76.59    9.99
 -13 -11  -1   86.07   12.16
 -13 -11   1   82.43   11.77
 -13  11  -1   70.61   10.01
 -13  11   1   73.05    9.78
 -13 -11   1   76.56   10.49
 -13 -11  -1   82.19   10.94
 -11 -11  -1    2.77    2.91
 -11 -11   1    4.39    2.79
 -11  11   1    2.28    1.39
 -11  11  -1    3.02    2.96
 -11 -11   1    3.31    2.65
 -11 -11  -1    0.61    2.24
  -9 -11  -1   44.57    7.14
  -9 -11   1   32.83    6.59
  -9  11   1   65.03    8.25
  -9  11  -1   79.47    9.48
  -9 -11  -1   42.52    7.27
  -9 -11   1   36.68    6.49
  -7 -11   1  160.56   12.96
  -7 -11  -1  165.16   12.79
  -7  11   1  144.19   11.53
  -7  11  -1  142.85   11.95
  -7 -11  -1  163.98   13.03
  -5 -11  -1   88.40    8.73
  -5  11  -1  107.52    9.94
  -5  11   1   94.89    9.07
  -5 -11  -1   79.39    8.50
  -3  11   1   64.11    7.33
  -3  11  -1   65.69    7.38
  -1  11  -1   14.11    3.68
  -1 -11   1    4.62    2.26
  -1  11   1    2.21    1.80
   1  11  -1    5.13    2.30
   1  11   1    1.24    1.54
   1 -11  -1    4.05    2.00
   1  11   1   16.87    3.65
   1  11  -1    5.19    1.88
   1  11  -1    3.92    1.88
   1  11   1   19.36    3.98
   1 -11   1   15.48    3.73
   3  11  -1   71.32    7.51
   3  11   1   77.23    7.63
   3 -11   1   71.78    7.79
   3  11  -1   72.03    7.34
   3 -11  -1   68.31    7.67
   3  11  -1   80.70    8.14
   3  11   1   82.53    8.41
   3  11   1   84.22    8.34
   5 -11   1  104.75    9.75
   5 -11  -1  103.39    9.42
   5  11   1   94.23    9.26
   5  11  -1   88.26    8.61
   5  11  -1   96.96    9.30
   7 -11  -1  150.65   12.04
   7  11  -1  166.18   11.89
   9  11   1   41.54    4.11
   9  11  -1   35.71    4.63
   9  11   1   40.23    5.94
  11  11   1    1.27    0.86
  11  11  -1    3.85    1.54
  11  11   1    2.55    1.75
 -16  12  -1   34.48    7.54
 -16  12  -1   31.92    8.14
 -16  12   1   31.77    7.44
 -16  12  -1   29.91    7.10
 -16 -12   1   30.28    7.59
 -14  12  -1   46.95    8.35
 -14  12   1   67.40    9.49
 -14 -12  -1   52.11   10.03
 -14 -12   1   68.78   11.50
 -14  12   1   52.30    8.77
 -14  12  -1   58.47    9.66
 -14 -12  -1   53.70    9.46
 -14 -12   1   53.34    9.27
 -12 -12   1  131.67   14.63
 -12 -12  -1  155.07   15.82
 -12  12  -1  155.31   14.97
 -12  12   1  127.37   12.84
 -12 -12  -1  158.47   15.45
 -12 -12   1  129.32   13.59
 -10 -12  -1   24.92    5.97
 -10 -12   1   20.50    5.10
 -10  12  -1   24.91    5.34
 -10  12   1   18.18    4.71
 -10 -12  -1   24.24    5.99
 -10 -12   1   25.01    5.60
  -8 -12   1  137.13   12.67
  -8 -12  -1  170.07   14.07
  -8  12  -1  161.44   13.54
  -8  12   1  130.90   11.68
  -8 -12  -1  171.65   14.21
  -6 -12  -1  152.49   12.12
  -6 -12   1  143.25   12.17
  -6  12   1  144.98   11.88
  -6  12  -1  137.20   11.90
  -6 -12  -1  144.01   12.35
  -4  12   1  250.20   15.14
  -4  12  -1  259.87   15.77
  -2  12  -1  163.75   12.07
  -2  12   1  145.30   11.24
   0  12   1   81.78    7.58
   0  12   1   75.48    8.03
   0  12  -1   88.20    8.57
   0  12   1   89.32    8.67
   0 -12   1   90.13    8.81
   2  12   1  141.16   10.16
   2  12  -1  131.95   10.46
   2  12  -1  126.46   10.36
   2 -12   1  177.90   12.56
   2  12  -1  140.44   11.08
   2  12   1  146.33   11.41
   2  12   1  151.32   11.51
   2 -12  -1  152.18   11.62
   4  12  -1  189.85   13.24
   4 -12   1  266.84   15.91
   4  12   1  202.63   13.65
   4  12  -1  199.51   13.11
   4  12   1  205.22   13.88
   4  12  -1  205.76   13.97
   4 -12  -1  270.09   16.07
   6  12  -1  163.08   12.20
   6 -12  -1  157.07   12.42
   8  12  -1  131.29   11.37
  10  12   1   26.72    3.39
  10  12  -1   18.31    3.58
  10  12   1   22.81    4.85
  10  12  -1   24.00    5.26
 -15  13  -1   12.87    5.15
 -15  13   1   11.20    5.56
 -15  13  -1    8.40    4.26
 -15  13   1   14.61    5.10
 -15 -13   1    5.23    3.57
 -15 -13  -1    9.84    4.66
 -13 -13   1   45.50    8.96
 -13 -13  -1   30.46    7.82
 -13  13   1   38.35    7.34
 -13  13  -1   41.83    8.24
 -13 -13  -1   29.02    7.16
 -13 -13   1   29.87    7.25
 -11 -13   1   47.94    8.97
 -11 -13  -1   35.31    7.52
 -11  13   1   65.71    9.39
 -11  13  -1   62.40    9.40
 -11 -13  -1   40.85    7.75
  -9 -13  -1  392.39   22.70
  -9 -13   1  398.54   23.39
  -9  13  -1  431.88   23.35
  -9  13   1  436.61   22.85
  -9 -13  -1  408.46   23.31
  -7 -13  -1    2.58    1.55
  -7 -13   1    1.24    2.35
  -7  13  -1   -1.06    2.49
  -7  13   1   -0.63    1.87
  -7 -13  -1   -2.39    2.56
  -5  13   1  618.65   25.00
  -5  13  -1  577.92   24.78
  -3  13   1   24.60    4.97
  -3  13  -1   30.55    5.81
  -1  13   1  521.47   22.06
  -1  13  -1  482.53   21.37
  -1  13   1  533.95   22.01
   1  13  -1  480.49   20.44
   1  13   1  415.64   17.83
   1  13  -1  460.02   20.52
   1  13   1  414.11   19.69
   1 -13   1  524.83   22.47
   1  13   1  443.16   20.53
   1  13  -1  492.05   21.70
   3  13  -1   27.60    5.00
   3  13   1   35.59    5.52
   3  13   1   36.78    6.14
   3 -13   1   31.50    5.48
   3 -13  -1   31.50    5.74
   3  13   1   31.94    5.74
   3  13  -1   29.34    5.32
   3  13  -1   33.03    5.65
   5  13   1  542.70   23.65
   5  13  -1  565.78   23.38
   7  13   1    2.24    2.45
   7  13  -1    2.42    2.12
   9  13  -1  388.73   20.67
  11  13  -1   39.92    5.09
  11  13  -1   35.72    6.71
  13  13  -1   32.91    6.43
 -14  14  -1   26.80    6.74
 -14  14   1   34.39    7.98
 -14 -14  -1   32.44    7.57
 -12 -14   1    2.27    1.71
 -12 -14  -1    2.85    2.32
 -12  14  -1    4.52    2.53
 -12  14   1    5.26    3.19
 -12 -14  -1    7.83    4.11
 -10 -14  -1   56.08    9.21
 -10 -14   1   62.18    9.85
 -10  14  -1   74.42   10.49
 -10  14   1   67.02    9.41
 -10 -14  -1   63.43    9.79
  -8 -14   1   28.88    6.24
  -8 -14  -1   52.40    8.32
  -8  14   1   38.92    6.94
  -8  14  -1   55.19    8.35
  -8 -14  -1   50.59    8.41
  -6  14   1  129.25   12.20
  -6  14  -1  136.73   12.71
  -4  14  -1  313.97   18.71
  -4  14   1  337.23   19.02
  -2  14  -1   69.80    8.47
  -2  14   1   42.87    6.65
   0  14   1  142.52   10.75
   0  14   1  138.08   11.73
   0  14  -1  139.77   11.79
   0  14   1  158.43   12.61
   2  14   1   78.90    8.28
   2  14  -1   53.49    7.13
   2  14  -1   47.90    6.95
   2  14   1   75.19    8.86
   4  14  -1  336.50   18.48
   4  14   1  337.79   19.48
   6  14  -1  139.52   12.40
   6  14   1  152.63   13.20
   8  14  -1   30.65    6.20
   8  14   1   51.31    8.00
  10  14   1   63.21    5.99
  10  14  -1   59.61    6.88
  10  14  -1   55.91    8.39
  12  14  -1    0.78    2.11
  14  14  -1   29.53    6.62
 -15  15  -1   61.75   10.65
 -15  15   1   70.57   11.33
 -13 -15  -1  125.29   15.52
 -13 -15   1  136.20   16.30
 -13  15  -1  130.30   15.02
 -13  15   1  126.52   14.46
 -13 -15  -1  151.12   16.57
 -11 -15  -1  269.55   21.29
 -11 -15   1  254.54   21.07
 -11  15   1  276.00   20.11
 -11  15  -1  299.09   21.64
 -11 -15  -1  245.91   20.20
  -9 -15   1   80.64   10.94
  -9 -15  -1   61.89    9.65
  -9  15  -1   73.33   10.29
  -9  15   1   67.21    9.51
  -7  15   1  459.89   24.30
  -7  15  -1  478.68   25.04
  -5  15   1 1083.77   35.71
  -5  15  -1 1044.04   35.80
  -3  15   1  394.52   21.07
  -3  15  -1  375.77   20.77
  -1  15   1  792.50   26.24
  -1  15   1  800.66   29.67
  -1  15  -1  779.51   29.51
   1  15   1  698.36   24.95
   1  15   1  731.94   28.35
   1  15  -1  715.43   27.74
   3  15   1  450.83   21.16
   3  15  -1  456.12   22.23
   3  15   1  443.73   22.46
   5  15   1 1209.15   38.75
   5  15  -1 1156.67   35.97
   7  15  -1  422.28   22.58
   7  15   1  466.85   24.30
   9  15  -1   69.96    9.83
   9  15   1   60.51    9.21
  11  15  -1  266.75   19.34
  11  15   1  247.17   19.17
  13  15  -1  132.97   14.00
 -14  16  -1    2.52    3.06
 -14  16   1    7.18    4.18
 -12 -16   1   -0.76    2.09
 -12 -16  -1    6.73    4.09
 -12  16  -1    4.37    3.48
 -12  16   1    3.50    2.98
 -10 -16  -1   -0.24    1.85
 -10  16  -1   -3.28    3.44
 -10  16   1    2.24    2.32
  -8  16  -1  121.74   13.34
  -8  16   1  112.74   12.66
  -6  16  -1    1.47    2.47
  -6  16   1    0.15    2.21
  -4  16  -1    6.35    3.14
  -4  16   1   15.71    4.59
  -2  16   1   30.86    6.20
  -2  16  -1   29.22    6.12
   0  16   1    8.31    2.71
   0  16  -1    9.15    3.68
   0  16   1    8.67    3.05
   2  16  -1   44.55    7.45
   2  16   1   44.99    7.20
   4  16   1    6.90    2.94
   4  16  -1   12.56    3.93
   6  16   1   -0.55    2.92
   6  16  -1   -1.51    2.22
   8  16  -1  125.63   13.07
   8  16   1  137.98   14.11
  10  16  -1    0.84    1.01
  10  16  -1    2.51    2.57
  10  16   1    1.13    2.94
  12  16  -1    3.27    2.64
  12  16   1    9.24    4.53
  14  16  -1    1.08    1.89
  14  16   1   -0.10    1.61
 -13  17  -1   39.28    8.44
 -13  17   1   31.98    7.45
 -11 -17  -1  190.49   18.59
 -11  17   1  177.28   17.03
 -11  17  -1  181.11   17.76
  -9  17   1   25.56    6.54
  -9  17  -1   25.09    6.45
  -7  17  -1  487.51   26.85
  -7  17   1  477.50   26.43
  -5  17   1  342.48   21.84
  -5  17  -1  350.36   22.26
  -3  17   1  868.15   33.87
  -3  17  -1  823.73   33.14
  -1  17  -1   46.88    8.02
  -1  17   1   57.85    8.60
   1  17  -1   58.52    8.75
   1  17   1   51.35    8.20
   3  17  -1  832.82   32.58
   3  17   1  760.37   31.37
   5  17  -1  370.97   21.96
   5  17   1  392.32   23.29
   7  17   1  518.97   27.99
   7  17  -1  468.79   25.20
   9  17  -1   21.11    5.79
   9  17   1   20.66    5.45
  11  17  -1  172.35   16.56
  11  17   1  177.56   17.17
  13  17  -1   31.41    7.43
  13  17   1   37.41    7.80
 -12  18   1    1.08    2.21
 -12  18  -1    2.42    3.52
 -10  18  -1   16.96    5.75
 -10  18   1   20.89    5.78
  -8  18   1   75.49   11.02
  -8  18  -1   72.28   11.03
  -6  18   1    0.60    1.95
  -6  18  -1    1.33    1.59
  -4  18   1   39.12    7.80
  -4  18  -1   41.45    8.05
  -2  18  -1   12.64    4.26
  -2  18   1   17.48    5.55
   0  18  -1  291.71   20.14
   0  18   1  294.69   20.12
   2  18   1   15.72    4.93
   2  18  -1   16.09    4.98
   4  18  -1   24.09    5.72
   4  18   1   25.35    6.12
   6  18   1    4.73    3.15
   6  18  -1    0.57    1.46
   8  18  -1   60.21    9.46
   8  18   1   61.63   10.08
  10  18   1   24.94    6.65
  10  18  -1   23.37    6.09
  12  18  -1   -4.18    3.95
  12  18   1    0.91    2.13
 -11  19   1   -0.79    2.62
  -9  19   1   12.89    4.31
  -9  19  -1   15.57    5.29
  -7  19  -1   48.78    9.31
  -7  19   1   42.48    8.63
  -5  19   1   20.98    6.50
  -5  19  -1   18.03    5.58
  -3  19   1  102.15   12.66
  -3  19  -1   92.89   11.97
  -1  19   1   -0.07    2.10
  -1  19  -1   -3.08    2.74
   1  19  -1    0.05    2.50
   1  19   1   -0.16    2.41
   3  19   1   73.77   10.55
   3  19  -1   72.24   10.37
   5  19   1   24.02    6.26
   5  19  -1   18.13    5.65
   7  19   1   55.18    9.70
   7  19  -1   58.82    9.60
   9  19   1   28.36    7.28
   9  19  -1   23.50    5.98
  11  19   1    2.63    2.43
  11  19  -1    7.48    3.28
 -10  20   1   40.87    9.07
  -8  20  -1   82.01   12.23
  -8  20   1   91.47   12.79
  -6  20  -1   15.54    5.26
  -6  20   1   16.84    5.68
  -4  20  -1   69.01   10.86
  -4  20   1   63.40   10.20
  -2  20  -1   20.27    5.58
  -2  20   1   24.68    6.90
   0  20   1  358.24   23.95
   0  20  -1  365.91   24.27
   2  20  -1   19.86    5.89
   2  20   1   29.28    6.91
   4  20   1   59.17   10.06
   4  20  -1   64.99   10.17
   6  20   1    7.28    3.70
   6  20  -1    5.79    2.11
   8  20  -1   87.26   12.16
   8  20   1   77.62   11.84
  10  20  -1   48.22    9.51
  10  20   1   52.67   10.28
  12  20  -1   10.89    4.82
  -7  21   1   74.73   11.99
  -7  21  -1   50.33   10.06
  -5  21   1   31.55    7.89
  -5  21  -1   32.05    7.37
  -3  21  -1  153.53   16.54
  -3  21   1  139.13   15.60
  -1  21  -1   46.94    9.14
  -1  21   1   50.04    9.47
   1  21   1   70.73   11.04
   1  21  -1   61.59   10.58
   3  21   1  155.80   16.35
   3  21  -1  164.66   16.77
   5  21   1   42.48    8.65
   5  21  -1   34.63    7.63
   7  21   1   51.30    9.76
   7  21  -1   45.61    9.31
   9  21  -1    7.27    4.24
   9  21   1    7.29    3.35
  -6  22   1   13.85    5.69
  -4  22   1    4.96    3.46
  -4  22  -1    0.05    2.41
  -2  22  -1   16.02    5.35
  -2  22   1    7.14    3.10
   0  22   1   -1.60    2.67
   0  22  -1   -1.22    2.20
   2  22  -1   12.95    5.26
   2  22   1   11.56    5.11
   4  22   1   -0.45    1.97
   4  22  -1   -1.39    1.68
   6  22   1   11.21    5.52
   6  22  -1   12.01    5.07
   8  22  -1    5.84    4.21
  -1  23  -1  108.93   14.54
  -1  23   1  104.29   14.50
   1  23  -1  116.06   14.99
   1  23   1  103.11   14.23
   3  23  -1   50.93    9.96
   3  23   1   50.54    9.80
   5  23  -1   92.06   13.36
 -18   0  -2  155.06   16.02
 -16   0   2    7.21    2.99
 -16   0  -2    7.70    3.82
 -16   0   2    7.63    2.28
 -14   0   2  225.64   16.07
 -14   0  -2  196.78   12.35
 -14   0  -2  194.18   15.76
 -14   0   2  238.37   15.01
 -12   0   2  175.17   10.79
 -12   0  -2  209.45    7.84
 -12   0  -2  216.27   11.76
 -12   0   2  192.62   13.61
 -12   0   2  187.30   11.92
 -12   0  -2  223.36   15.22
 -10   0   2  841.82   21.94
 -10   0  -2  858.25   15.24
 -10   0  -2  861.10   20.59
 -10   0   2  833.70   25.85
 -10   0  -2  894.28   27.83
 -10   0   2  864.79   22.44
  -8   0   2  854.05   20.48
  -8   0  -2  960.70   14.34
  -8   0   2  836.48   23.39
  -8   0  -2  946.91   25.31
  -8   0  -2  975.01   19.00
  -8   0   2  862.50   19.61
  -6   0   2  810.66   17.89
  -6   0  -2  795.77   14.13
  -6   0  -2  793.27   20.75
  -6   0   2  859.99   21.00
  -6   0   2  827.17   15.89
  -4   0   2  568.66   13.21
  -4   0   2  592.04   14.99
  -4   0  -2  449.22   13.46
  -4   0  -2  447.93    7.46
  -4   0   2  542.58    9.44
  -2   0   2 2433.96   24.82
  -2   0   2 2386.94   23.56
   0   0  -2 7707.81   31.35
   0   0   2 7759.30   31.47
   0   0   2 7725.86   35.23
   0   0  -2 7781.99   35.40
   2   0  -2 2365.10   24.37
   2   0  -2 2462.65   23.90
   4   0  -2  551.96    9.74
   4   0  -2  537.47   14.40
   4   0  -2  543.95    8.44
   4   0   2  475.33   13.60
   4   0  -2  568.13   13.28
   6   0  -2  820.39   15.75
   6   0  -2  813.26   14.59
   6   0   2  801.80   20.55
   8   0  -2  851.70   18.38
   8   0   2  984.37   25.86
  10   0  -2  815.45   20.91
  10   0   2  925.18   27.55
  12   0  -2  170.23   10.77
  14   0  -2  220.23   13.39
 -17   1   2   14.53    5.23
 -17  -1   2   16.45    5.16
 -17  -1  -2   17.94    5.45
 -17   1  -2   18.53    5.20
 -15  -1   2   13.96    4.55
 -15   1  -2   17.22    4.25
 -15   1  -2   13.77    4.57
 -15   1   2   22.00    5.38
 -15  -1  -2    9.40    3.65
 -15   1   2   18.98    4.25
 -15  -1   2   12.63    3.36
 -13  -1   2   31.75    4.64
 -13   1   2   34.56    5.14
 -13   1  -2   39.96    3.98
 -13  -1  -2   38.74    5.38
 -13  -1   2   37.64    6.48
 -13  -1  -2   36.97    6.70
 -13   1  -2   43.11    7.09
 -13   1  -2   34.34    5.03
 -13   1   2   28.49    5.55
 -13  -1   2   34.11    5.65
 -13   1   2   39.08    5.65
 -11   1   2   78.33    7.17
 -11  -1  -2   59.22    3.28
 -11   1  -2   71.31    5.17
 -11  -1   2   55.70    5.81
 -11  -1   2   61.08    7.37
 -11   1   2   68.13    7.74
 -11  -1  -2   59.03    5.85
 -11   1  -2   73.43    6.80
 -11   1  -2   72.57    8.30
 -11   1   2   69.75    6.86
 -11  -1  -2   55.31    7.23
 -11  -1   2   61.46    6.54
  -9  -1   2   54.03    5.25
  -9  -1  -2   41.83    2.60
  -9   1   2   63.01    6.03
  -9  -1  -2   42.37    4.22
  -9   1   2   66.39    7.09
  -9   1  -2   54.65    4.29
  -9   1  -2   57.75    6.73
  -9   1  -2   60.11    5.34
  -9  -1   2   48.40    5.90
  -9   1   2   75.77    6.24
  -9  -1   2   55.44    5.56
  -9  -1  -2   42.62    5.91
  -7  -1   2 1176.32   22.20
  -7  -1  -2 1194.06   11.71
  -7   1   2 1334.86   25.07
  -7  -1  -2 1245.53   19.29
  -7   1  -2 1334.61   28.65
  -7  -1   2 1252.88   26.81
  -7   1   2 1356.83   28.19
  -7   1  -2 1352.78   21.23
  -7  -1  -2 1262.66   28.22
  -7   1   2 1331.53   22.05
  -7  -1   2 1230.43   22.03
  -5  -1   2  223.22   10.02
  -5   1  -2  150.14    8.58
  -5  -1  -2  162.88    5.38
  -5   1   2  213.66    9.81
  -5  -1   2  218.23    8.58
  -5   1   2  206.16    8.83
  -5   1   2  203.26    6.74
  -5   1  -2  147.20    8.45
  -5  -1   2  227.97    7.75
  -5   1   2  190.70    6.47
  -5  -1  -2  163.20    8.90
  -3  -1  -2 9139.70   53.98
  -3  -1   2 9457.69   54.28
  -3   1   2 8748.13   53.43
  -3   1   2 8558.17   50.57
  -3   1  -2 8653.47   53.99
  -3   1   2 8708.27   31.36
  -3  -1   2 9081.64   35.68
  -1  -1   2 1395.28   16.69
  -1   1   2 1311.15   15.98
  -1  -1   2 1339.62   16.16
  -1   1   2 1272.53   16.11
  -1  -1  -2 1204.56   12.41
  -1  -1  -2 1197.54   14.99
   1   1   2 1144.26   14.73
   1   1  -2 1338.77   16.54
   1   1  -2 1359.63   14.83
   1  -1  -2 1333.30   16.69
   1   1  -2 1399.38   16.80
   3   1   2 9366.11   55.13
   3   1  -2 9322.49   55.23
   3  -1  -2 8630.98   49.94
   3   1  -2 9479.18   50.09
   3   1  -2 9332.94   36.54
   5   1   2  168.75    9.11
   5   1  -2  220.59    7.56
   5   1  -2  221.43   10.01
   5  -1   2  151.22    8.38
   5  -1  -2  192.33    6.54
   5   1  -2  221.84    6.60
   5   1   2  168.86    8.82
   5   1  -2  230.80    8.82
   7   1   2 1261.65   28.20
   7   1  -2 1229.67   22.74
   7   1  -2 1259.31   22.51
   7   1  -2 1199.38   26.44
   7  -1   2 1351.00   28.65
   7   1   2 1287.21   27.94
   7   1  -2 1215.59   19.93
   7  -1  -2 1292.00   20.96
   9   1  -2   51.90    5.30
   9  -1   2   64.29    7.03
   9   1   2   47.89    6.03
   9   1  -2   52.27    4.89
   9  -1  -2   65.32    5.58
  11   1   2   57.10    7.29
  11  -1   2   71.53    8.12
  11  -1  -2   69.81    6.54
  11   1  -2   58.63    5.95
  13   1  -2   33.50    4.92
  13  -1  -2   36.46    5.27
 -18   2   2   16.39    5.52
 -18  -2  -2   19.97    6.08
 -18   2  -2   12.83    4.84
 -16  -2   2   43.22    7.64
 -16   2  -2   54.73    9.29
 -16   2   2   57.91    9.00
 -16   2   2   59.56    8.05
 -16  -2   2   50.58    7.69
 -16  -2  -2   51.73    8.86
 -14   2  -2   84.16    8.34
 -14  -2   2   87.37   10.12
 -14   2   2   89.22   10.43
 -14   2   2   84.04    8.76
 -14  -2   2   78.62    8.91
 -14   2  -2   89.22   10.57
 -14  -2  -2   79.49   10.03
 -12  -2   2   43.69    5.02
 -12   2  -2   29.78    3.78
 -12   2   2   33.97    5.14
 -12  -2   2   48.23    6.86
 -12   2   2   33.92    5.91
 -12   2  -2   32.13    5.86
 -12   2  -2   27.35    4.46
 -12   2   2   34.60    5.17
 -12  -2   2   50.89    6.49
 -12  -2  -2   40.32    6.72
 -10   2   2  453.17   17.24
 -10  -2   2  410.26   14.59
 -10   2  -2  444.72   19.63
 -10   2   2  470.72   19.88
 -10  -2   2  425.33   18.62
 -10   2  -2  447.97   15.81
 -10  -2  -2  395.69   14.01
 -10  -2  -2  400.47   18.88
 -10   2   2  467.06   16.48
 -10  -2   2  438.29   16.84
  -8  -2  -2  236.46    9.31
  -8   2   2  232.25   12.48
  -8  -2   2  258.00   13.01
  -8   2  -2  206.46   12.00
  -8   2   2  228.55    9.83
  -8   2  -2  205.20    9.45
  -8   2   2  229.71   11.41
  -8  -2   2  254.84   10.63
  -8   2   2  235.19   10.17
  -8  -2   2  277.04   11.78
  -8  -2  -2  242.48   13.17
  -6   2  -2   76.36    6.60
  -6   2   2  115.61    5.90
  -6  -2   2  126.72    8.28
  -6   2   2  119.50    8.20
  -6   2   2  123.58    7.54
  -6  -2   2  117.09    6.66
  -6   2  -2   69.85    6.34
  -6   2   2  114.36    5.96
  -6  -2  -2   84.77    6.88
  -6  -2   2  126.74    6.74
  -4  -2   2  159.83    8.05
  -4   2   2  170.22    7.80
  -4  -2   2  164.43    7.14
  -4   2   2  171.45    6.01
  -4   2  -2  175.25    8.60
  -4  -2  -2  175.78    8.60
  -4  -2   2  170.19    6.52
  -2   2   2  759.76   14.46
  -2  -2   2  730.58   14.49
  -2  -2   2  722.42   13.80
  -2   2  -2  865.88   15.74
  -2   2   2  791.00   10.87
  -2  -2  -2  823.46   15.24
   0   2   2 2834.76   23.01
   0  -2   2 2910.14   22.51
   0   2  -2 2875.53   22.02
   0  -2  -2 2893.44   21.18
   0   2   2 2809.56   20.96
   2   2  -2  711.75   14.24
   2   2  -2  698.77   13.56
   2   2  -2  723.01   13.74
   2   2   2  788.06    9.08
   2  -2   2  867.08   15.72
   2   2  -2  711.86    8.91
   2   2   2  793.41   15.19
   2   2  -2  710.64   11.20
   2  -2  -2  792.97   10.94
   4   2  -2  163.41    8.02
   4   2   2  173.19    4.84
   4   2   2  174.76    8.54
   4   2  -2  170.79    7.15
   4  -2   2  164.78    8.26
   4  -2  -2  171.88    6.00
   4   2  -2  168.02    6.39
   6   2   2   84.73    6.95
   6   2  -2  127.10    8.27
   6   2   2   79.60    4.44
   6   2  -2  130.08    6.94
   6  -2   2   72.56    6.29
   6  -2  -2  121.99    6.24
   6   2  -2  128.99    6.84
   8   2  -2  269.76   13.37
   8   2   2  246.59   13.36
   8   2  -2  270.26   10.83
   8   2  -2  254.43   11.20
   8  -2  -2  226.99   10.02
   8   2  -2  262.59   10.20
   8   2   2  242.17   12.87
   8  -2   2  209.48   12.13
  10   2  -2  428.34   16.73
  10   2   2  440.13   19.81
  10  -2  -2  455.05   16.10
  10   2  -2  412.61   14.76
  10  -2   2  452.61   19.63
  10   2   2  424.16   18.64
  12  -2  -2   33.42    5.02
  12   2  -2   43.38    5.39
  14  -2  -2   81.18    8.45
 -17   3   2   67.23    9.95
 -17  -3  -2   55.80    9.58
 -17   3  -2   69.50   10.56
 -15   3   2   83.65   10.65
 -15   3  -2   81.07    8.69
 -15   3   2   78.45    8.83
 -15  -3  -2   80.94   10.72
 -15  -3   2   82.27    9.47
 -15   3  -2   75.54   10.17
 -13   3   2  278.75   15.30
 -13   3  -2  324.00   13.78
 -13   3  -2  324.99   16.06
 -13   3   2  287.74   18.03
 -13  -3   2  263.72   16.82
 -13   3   2  291.72   15.60
 -13  -3   2  267.39   15.82
 -13   3  -2  321.05   18.88
 -13  -3  -2  289.97   18.70
 -11   3   2  462.24   18.52
 -11   3  -2  499.02   18.32
 -11   3   2  499.91   21.57
 -11   3  -2  498.52   21.87
 -11  -3   2  435.57   19.90
 -11  -3  -2  440.91   20.89
 -11  -3   2  448.81   18.36
 -11   3   2  503.47   18.35
  -9   3   2  164.75   11.33
  -9   3   2  167.86    9.31
  -9   3  -2  186.25    9.98
  -9  -3   2  154.75   10.77
  -9   3  -2  192.01   12.41
  -9   3   2  176.67   10.73
  -9   3  -2  183.71   12.15
  -9   3   2  170.05    9.57
  -9  -3   2  155.72    9.66
  -9  -3  -2  162.34   11.43
  -7   3   2 1987.92   27.51
  -7   3   2 1943.09   35.27
  -7   3  -2 2068.12   36.29
  -7  -3   2 1883.30   33.88
  -7   3   2 1946.05   32.53
  -7   3  -2 2163.47   37.48
  -7   3   2 1952.75   28.43
  -7  -3  -2 2012.88   36.38
  -7  -3   2 1881.72   29.85
  -5  -3   2  155.39    8.74
  -5   3   2  186.34    9.35
  -5  -3   2  149.69    9.41
  -5   3   2  173.50    7.30
  -5   3  -2  148.02    8.71
  -5  -3   2  161.76    7.55
  -5  -3  -2  132.97    8.36
  -3  -3   2 3441.56   35.62
  -3   3  -2 3839.93   38.24
  -3   3   2 3683.65   29.51
  -3  -3  -2 3658.92   37.45
  -1  -3   2  175.37    5.80
  -1   3  -2  220.51    7.74
  -1   3   2  150.27    6.03
  -1   3   2  146.21    5.06
  -1  -3  -2  236.21    7.86
   1   3  -2  184.67    6.05
   1  -3   2  228.41    7.88
   1   3   2  246.75    7.92
   3   3   2 3597.68   18.72
   3   3  -2 3362.01   35.16
   3   3  -2 3430.68   32.03
   3  -3   2 3706.07   37.60
   3  -3  -2 3588.57   28.93
   3   3  -2 3433.90   25.48
   3   3   2 3628.27   37.08
   3   3  -2 3497.13   30.41
   5   3   2  119.72    7.93
   5   3   2  126.01    5.19
   5   3  -2  155.96    8.65
   5   3  -2  157.92    7.37
   5  -3   2  139.73    8.51
   5  -3  -2  174.87    7.30
   5   3  -2  162.32    7.43
   7   3  -2 1833.87   33.29
   7   3   2 2018.17   36.53
   7   3   2 1903.54   24.78
   7   3  -2 1849.33   27.06
   7  -3  -2 1936.16   28.42
   7  -3   2 2097.65   37.01
   7   3  -2 1874.24   29.68
   9   3   2  196.28   12.76
   9   3  -2  152.61    8.39
   9   3  -2  160.19    9.86
   9   3  -2  161.20   10.92
   9  -3   2  193.76   12.51
   9  -3  -2  168.67    9.58
   9   3  -2  161.46    8.91
   9   3   2  186.65   11.97
  11   3  -2  434.97   18.18
  11   3  -2  418.16   16.06
  11   3   2  456.88   20.46
  11  -3  -2  481.72   18.08
  11  -3   2  514.97   22.35
  13  -3  -2  304.44   15.85
  13   3  -2  244.87   13.51
 -18   4  -2   25.11    6.51
 -18   4   2   39.35    7.77
 -18  -4  -2   27.87    7.66
 -16   4   2   22.51    6.29
 -16   4  -2   15.94    5.00
 -16  -4  -2   27.20    6.96
 -16  -4   2   31.54    6.60
 -14   4  -2    6.40    3.12
 -14   4  -2    7.53    2.67
 -14   4   2    2.31    1.76
 -14   4   2    1.18    1.33
 -14  -4   2   11.67    3.46
 -14  -4  -2   13.33    4.86
 -12   4   2   10.62    3.01
 -12   4   2   13.53    3.28
 -12   4  -2   21.25    4.02
 -12   4  -2   15.58    4.09
 -12   4   2   11.65    3.71
 -12  -4   2    6.48    2.67
 -12  -4  -2   18.10    4.73
 -10   4   2    0.44    0.87
 -10   4  -2    3.89    1.24
 -10   4   2    1.69    1.48
 -10   4  -2    6.30    2.43
 -10   4   2   -0.18    0.85
 -10   4  -2    2.34    2.04
 -10   4   2    1.03    1.19
 -10  -4  -2    8.23    3.03
 -10  -4   2    1.18    0.99
  -8   4   2  256.32   12.77
  -8   4   2  272.35   14.18
  -8   4   2  255.90   10.90
  -8   4  -2  290.87   14.61
  -8   4   2  275.41   11.92
  -8   4  -2  287.44   14.64
  -8  -4   2  218.99   11.38
  -8  -4  -2  233.23   13.35
  -6  -4   2  162.23   10.29
  -6   4  -2  200.05   11.17
  -6   4   2  180.79    8.58
  -6  -4  -2  174.80   10.40
  -6  -4   2  156.91    8.48
  -4  -4   2    0.35    1.17
  -4   4   2    6.40    1.67
  -4   4  -2    1.82    1.03
  -4  -4  -2    0.90    1.43
  -4  -4   2    1.46    1.17
  -2   4  -2   11.86    2.24
  -2   4   2   15.50    2.18
  -2  -4  -2    8.58    2.12
  -2  -4   2    8.69    1.52
   0   4   2 1240.61   13.40
   0   4  -2 1301.18   19.44
   0  -4   2 1313.85   19.34
   0  -4  -2 1308.60   18.59
   0   4   2 1276.63   18.65
   2   4  -2   10.93    2.10
   2  -4   2    9.70    2.12
   2  -4  -2   16.46    2.36
   2   4  -2   14.72    2.02
   2   4   2    9.70    1.94
   4   4   2    0.51    1.13
   4   4  -2    0.85    0.82
   4   4  -2   -0.91    1.27
   4  -4   2    0.97    0.96
   4   4  -2    3.21    1.28
   4  -4  -2    2.09    0.99
   6   4  -2  156.14    9.59
   6   4   2  167.83    7.06
   6   4  -2  151.44    7.65
   6  -4   2  191.19   10.71
   6  -4  -2  186.51    8.82
   6   4   2  160.14   10.13
   6   4  -2  156.22    8.42
   8   4  -2  219.51   12.29
   8   4   2  230.71    9.62
   8   4   2  249.82   13.87
   8   4  -2  224.12    9.90
   8  -4  -2  264.13   11.79
   8  -4   2  291.57   14.64
   8   4  -2  216.86   11.18
  10   4  -2    0.27    1.32
  10   4  -2    4.42    2.06
  10   4   2    7.40    2.32
  10   4   2    6.01    2.68
  10  -4   2    1.29    1.29
  10   4  -2    1.50    1.29
  10  -4  -2    2.00    1.32
  10   4   2    8.68    2.94
  10   4  -2    1.15    1.06
  12   4  -2    6.45    2.41
  12  -4  -2   11.10    3.18
  12   4  -2    7.98    2.63
 -17   5   2   33.71    7.10
 -17   5  -2   27.46    6.63
 -17  -5  -2   23.59    6.21
 -15  -5   2   30.81    7.54
 -15   5  -2   12.92    4.46
 -15   5  -2   17.46    4.50
 -15   5   2   13.37    4.97
 -15   5   2   19.24    4.56
 -15  -5  -2   39.05    7.61
 -15  -5   2   35.43    6.73
 -13   5  -2  271.74   14.34
 -13   5  -2  286.42   18.52
 -13   5  -2  290.72   16.12
 -13   5   2  256.16   17.29
 -13   5   2  268.89   15.15
 -13  -5  -2  307.23   19.76
 -13  -5   2  291.28   17.40
 -11   5   2  184.57   13.65
 -11   5  -2  171.28   13.06
 -11   5  -2  174.93   11.55
 -11   5   2  172.75   11.07
 -11   5   2  176.77   12.36
 -11   5   2  183.12   11.93
 -11   5  -2  189.21   13.87
 -11  -5  -2  187.79   14.22
 -11  -5   2  201.41   13.17
  -9   5   2  285.34   14.65
  -9   5   2  292.65   15.72
  -9   5   2  291.03   12.84
  -9   5  -2  324.63   16.36
  -9  -5   2  275.26   16.39
  -9   5  -2  326.81   16.68
  -9   5   2  287.68   13.42
  -9  -5   2  253.45   13.44
  -9  -5  -2  292.05   16.23
  -7  -5   2  113.30    9.62
  -7   5  -2   81.39    7.70
  -7   5   2  115.99    7.71
  -7  -5  -2   84.58    7.96
  -7  -5   2  114.29    8.03
  -5  -5   2 1830.98   32.95
  -5   5   2 1701.29   26.92
  -5   5  -2 1713.44   31.46
  -5  -5  -2 1904.79   33.63
  -5  -5   2 1865.74   29.51
  -3  -5   2  783.96   19.14
  -3   5   2  824.42   17.32
  -3   5  -2  798.57   19.26
  -3  -5  -2  795.29   19.12
  -1  -5  -2 1381.55   18.35
  -1   5  -2 1277.94   22.41
  -1   5   2 1162.91   18.84
  -1  -5   2 1305.44   20.54
  -1   5   2 1208.10   21.67
  -1  -5  -2 1364.05   22.31
   1   5   2 1372.31   18.62
   1  -5   2 1275.36   22.15
   1   5  -2 1288.60   20.59
   1   5   2 1332.79   22.06
   3   5  -2  793.95   19.36
   3  -5   2  836.97   20.11
   3  -5  -2  814.38   17.42
   3   5   2  785.35   19.14
   3   5  -2  786.18   17.61
   3   5  -2  797.49   16.31
   5   5  -2 1806.03   31.62
   5   5  -2 1850.63   27.17
   5  -5   2 1713.12   31.88
   5  -5  -2 1681.09   26.63
   5   5   2 1897.10   33.60
   5   5  -2 1839.43   29.11
   7   5  -2  114.04    8.74
   7   5   2   77.95    5.48
   7   5  -2  117.13    7.06
   7  -5  -2  113.89    7.76
   7  -5   2   74.49    7.30
   7   5  -2  114.58    8.04
   7   5   2   84.78    7.85
   9   5   2  301.61   16.40
   9   5   2  278.45   11.60
   9   5  -2  251.16   14.00
   9   5  -2  252.57   10.94
   9  -5   2  326.62   16.72
   9  -5  -2  279.00   13.34
   9   5  -2  263.41   13.53
  11   5  -2  190.23   13.23
  11   5  -2  197.24   12.85
  11   5   2  175.99   10.21
  11   5  -2  198.09   10.17
  11  -5  -2  167.91   11.33
  11   5  -2  180.01   11.05
  13  -5  -2  259.66   15.37
  13   5  -2  271.14   14.57
 -18   6  -2   37.34    8.02
 -18   6   2   45.62    9.27
 -18  -6  -2   39.49    8.85
 -16  -6   2   40.61    8.99
 -16   6   2   49.23    9.08
 -16   6  -2   32.82    6.96
 -16  -6   2   49.06    8.03
 -16  -6  -2   39.38    8.05
 -14  -6   2   25.13    6.62
 -14   6   2   42.32    7.70
 -14   6  -2   32.07    6.63
 -14   6  -2   36.64    5.96
 -14  -6  -2   23.12    5.95
 -14  -6   2   26.08    5.73
 -14   6   2   45.92    6.64
 -12   6  -2   56.85    8.11
 -12   6   2   45.57    6.23
 -12   6  -2   56.89    7.10
 -12   6   2   49.85    7.73
 -12  -6   2   45.24    7.99
 -12   6   2   48.03    6.56
 -12   6  -2   51.83    7.75
 -12  -6  -2   48.55    7.62
 -12  -6   2   45.32    6.69
 -10   6   2  533.64   18.78
 -10   6  -2  529.13   22.16
 -10   6   2  514.94   20.93
 -10   6   2  515.37   22.46
 -10  -6   2  462.30   22.58
 -10   6   2  541.18   19.91
 -10   6  -2  525.46   22.41
 -10  -6   2  419.69   18.36
 -10  -6  -2  443.04   21.24
  -8  -6   2  650.54   24.15
  -8   6   2  626.03   19.65
  -8   6  -2  639.83   22.88
  -8  -6  -2  616.54   22.86
  -8  -6   2  616.76   20.49
  -6  -6   2    5.38    2.58
  -6   6   2    1.38    1.29
  -6   6  -2    2.12    1.38
  -6  -6  -2    8.31    2.74
  -6  -6   2    4.99    2.00
  -4  -6   2  208.39   11.08
  -4  -6  -2  179.03    9.69
  -4   6   2  238.09   10.51
  -4   6  -2  199.97   10.69
  -4  -6  -2  182.90   10.31
  -2  -6  -2  544.78   13.82
  -2   6  -2  548.40   16.42
  -2   6   2  615.69   15.98
  -2  -6   2  604.92   15.23
  -2  -6  -2  556.75   15.97
   0   6   2 1761.59   21.36
   0  -6   2 1787.78   27.27
   0   6  -2 1835.19   27.59
   0   6   2 1852.88   28.29
   0   6   2 1768.65   26.06
   2   6  -2  623.30   17.30
   2   6  -2  645.77   15.73
   2  -6   2  537.93   16.27
   2   6   2  549.48   15.94
   2  -6  -2  606.95   16.16
   4   6  -2  214.48   11.27
   4  -6   2  214.28   11.19
   4  -6  -2  236.51   10.34
   4   6  -2  206.54    9.12
   4   6   2  177.83    9.99
   4   6  -2  211.12   10.14
   6   6   2    9.06    1.97
   6   6  -2    2.26    1.51
   6   6   2    9.46    2.90
   6   6  -2    2.75    1.12
   6  -6   2    1.41    1.52
   6  -6  -2    2.93    1.46
   6   6  -2    3.63    1.32
   8   6   2  634.57   17.37
   8   6  -2  626.63   21.61
   8   6  -2  629.35   17.32
   8  -6   2  636.28   23.15
   8  -6  -2  601.65   19.57
   8   6  -2  628.28   20.80
   8   6   2  672.93   23.79
  10   6  -2  448.68   19.90
  10   6   2  418.77   15.49
  10   6  -2  439.89   15.07
  10  -6   2  562.12   23.51
  10  -6  -2  525.06   19.90
  10   6  -2  452.67   19.18
  12   6   2   53.96    6.07
  12   6  -2   45.15    5.92
  12  -6  -2   52.75    6.93
 -17   7  -2    4.62    3.69
 -17   7   2    7.80    4.14
 -17  -7  -2   12.75    5.44
 -15  -7   2    9.52    4.99
 -15   7  -2    9.02    3.59
 -15   7  -2   11.30    3.75
 -15   7   2   14.36    5.30
 -15   7   2    9.28    3.04
 -15  -7  -2    4.67    2.35
 -15  -7   2    6.27    3.22
 -13   7   2   24.16    4.93
 -13   7   2   25.21    5.91
 -13   7  -2   31.44    5.67
 -13   7  -2   32.18    6.39
 -13  -7   2   53.08    9.02
 -13   7   2   30.15    5.76
 -13   7  -2   27.97    5.98
 -13  -7  -2   47.93    8.24
 -13  -7   2   45.40    7.24
 -11   7   2    1.79    2.09
 -11   7   2    4.00    1.95
 -11   7  -2    5.87    2.35
 -11  -7   2    4.53    2.73
 -11   7  -2    4.42    2.60
 -11   7   2    4.44    2.33
 -11  -7  -2    8.96    3.36
 -11  -7   2    5.69    2.40
  -9  -7   2  319.52   18.24
  -9   7   2  292.03   14.49
  -9   7  -2  305.49   16.98
  -9  -7  -2  304.65   17.20
  -9  -7   2  305.49   15.82
  -7  -7   2   27.88    4.72
  -7   7  -2   74.44    7.68
  -7   7   2   46.97    5.36
  -7  -7  -2   44.19    6.19
  -7  -7   2   28.75    4.52
  -5  -7  -2  404.04   16.15
  -5  -7   2  310.18   14.77
  -5   7   2  234.42   11.51
  -5   7  -2  311.24   14.62
  -5  -7  -2  403.65   16.85
  -3  -7  -2  561.70   16.17
  -3   7  -2  438.01   15.99
  -3   7   2  408.33   14.28
  -3  -7  -2  531.81   17.22
  -1   7  -2  437.80   15.14
  -1  -7   2  439.74   14.68
  -1   7   2  455.84   15.02
  -1  -7  -2  414.56   14.36
  -1   7   2  459.49   14.21
   1   7   2  421.64   12.16
   1  -7   2  454.77   15.16
   1   7  -2  442.46   14.28
   1   7   2  425.67   14.47
   3   7  -2  509.24   17.10
   3  -7   2  437.91   16.10
   3   7  -2  531.87   16.79
   3  -7  -2  429.05   15.20
   3   7   2  557.49   18.02
   3   7  -2  536.39   15.63
   5   7  -2  309.00   14.16
   5  -7  -2  237.89   11.50
   5  -7   2  312.84   14.73
   5   7  -2  313.21   13.64
   5   7   2  386.44   16.25
   5   7  -2  320.04   12.54
   7   7  -2   26.57    4.44
   7   7   2   47.40    4.89
   7   7  -2   30.62    4.02
   7  -7   2   76.88    8.06
   7  -7  -2   45.97    5.52
   7   7   2   47.08    6.35
   7   7  -2   31.78    4.66
   9   7  -2  295.26   15.84
   9   7   2  302.22   13.10
   9   7  -2  302.20   12.60
   9  -7  -2  293.77   14.76
   9  -7   2  324.14   17.68
   9   7   2  339.10   17.93
   9   7  -2  302.10   15.59
  11   7   2    6.36    2.05
  11   7  -2    3.32    1.80
  11   7  -2    5.19    2.07
  11  -7  -2    5.40    2.43
  13   7  -2   47.40    6.60
 -16   8  -2   67.70   10.55
 -16   8   2   65.41   10.24
 -16  -8  -2   72.11   11.49
 -16  -8   2   73.51   10.38
 -14   8   2  121.48   11.09
 -14   8  -2  130.34   13.27
 -14   8  -2  131.37   12.35
 -14   8   2  109.72   12.42
 -14  -8   2  121.03   14.44
 -14   8   2  122.45   11.70
 -14   8  -2  125.09   13.38
 -14  -8  -2  133.77   14.29
 -14  -8   2  118.71   12.35
 -12   8   2  172.01   12.36
 -12   8  -2  132.72   12.52
 -12   8   2  171.11   14.64
 -12  -8   2  178.16   15.95
 -12   8   2  175.11   13.04
 -12   8  -2  140.68   13.23
 -12  -8   2  173.98   13.94
 -12  -8  -2  144.71   13.65
 -10  -8   2  448.01   22.95
 -10   8  -2  474.13   22.50
 -10   8   2  451.14   19.37
 -10  -8   2  460.70   20.81
 -10  -8  -2  478.18   23.15
  -8  -8  -2  444.58   20.71
  -8  -8   2  510.69   22.43
  -8   8  -2  436.43   19.91
  -8   8   2  520.73   19.71
  -8  -8   2  517.89   20.64
  -8  -8  -2  437.26   20.49
  -6  -8  -2 1328.01   31.85
  -6  -8   2 1326.96   33.16
  -6   8  -2 1269.70   31.77
  -6   8   2 1361.81   29.77
  -6  -8  -2 1339.09   33.04
  -4  -8   2   29.59    4.46
  -4  -8  -2   18.08    3.35
  -4   8  -2   16.40    3.34
  -4   8   2   26.11    4.00
  -4  -8  -2   17.61    3.71
  -2  -8  -2 2787.61   35.67
  -2   8   2 2407.95   36.74
  -2   8  -2 2585.66   39.84
  -2  -8   2 2584.34   36.75
  -2  -8  -2 2767.37   40.98
   0   8   2 1520.93   23.94
   0   8  -2 1603.45   29.74
   0  -8   2 1540.92   29.55
   0   8   2 1575.02   28.95
   0   8   2 1628.32   31.15
   2   8   2 2702.05   35.64
   2   8  -2 2584.88   39.55
   2   8  -2 2666.96   37.23
   2  -8   2 2587.14   39.63
   2   8   2 2754.56   40.67
   2  -8  -2 2455.34   37.74
   2   8  -2 2701.07   39.89
   4   8  -2   38.39    5.18
   4  -8   2   16.13    3.37
   4   8  -2   35.70    4.56
   4  -8  -2   29.30    4.27
   4   8  -2   30.72    4.48
   4   8   2   19.55    3.74
   6   8  -2 1331.07   31.43
   6  -8  -2 1331.09   29.89
   6  -8   2 1379.85   33.33
   6   8   2 1358.17   33.07
   6   8  -2 1361.64   28.03
   6   8  -2 1359.91   30.90
   8   8  -2  518.05   20.73
   8   8   2  412.87   15.47
   8   8   2  425.09    8.84
   8   8  -2  496.92   16.55
   8  -8   2  463.93   20.80
   8  -8  -2  522.63   19.84
   8   8  -2  507.58   20.05
   8   8   2  445.72   20.65
  10   8   2  452.69   17.24
  10   8  -2  456.31   20.84
  10   8  -2  460.29   15.91
  10  -8  -2  449.78   19.65
  10   8  -2  469.90   20.85
  12   8  -2  183.16   10.04
  12   8   2  138.20   10.27
 -17   9  -2   16.57    4.87
 -17   9   2   23.03    6.93
 -17  -9  -2   16.84    5.69
 -15   9  -2   55.02    8.75
 -15   9   2   56.29    9.33
 -15   9  -2   47.30    8.61
 -15  -9   2   67.53   11.23
 -15  -9  -2   52.23   10.07
 -15   9   2   56.80    8.55
 -15  -9   2   54.41    9.24
 -15  -9  -2   49.55    9.04
 -13   9  -2   71.26    9.69
 -13   9   2   75.02   10.25
 -13   9   2   77.24    8.84
 -13  -9   2   57.55    9.70
 -13  -9  -2   69.89   10.99
 -13   9  -2   81.43   10.72
 -13   9   2   73.73    9.05
 -13  -9   2   56.94    8.70
 -13  -9  -2   62.09    9.59
 -11  -9   2   57.40    8.98
 -11  -9  -2   45.24    8.00
 -11   9   2   86.92    9.16
 -11   9  -2   76.51    9.67
 -11  -9  -2   42.40    7.68
 -11  -9   2   56.26    7.89
  -9  -9   2    4.05    2.82
  -9  -9  -2    0.91    1.34
  -9   9   2   -2.24    1.85
  -9   9  -2   -1.84    2.00
  -9  -9  -2   -3.08    2.97
  -9  -9   2    3.60    2.64
  -7  -9  -2  110.50    9.88
  -7  -9   2  121.60   10.94
  -7   9  -2  105.92    9.76
  -7   9   2  116.88    9.35
  -7  -9  -2  107.79   10.11
  -5  -9   2  622.69   22.61
  -5  -9  -2  632.80   21.16
  -5   9  -2  590.36   21.57
  -5   9   2  589.70   20.22
  -5  -9  -2  611.86   22.01
  -3  -9  -2   87.11    7.07
  -3   9  -2  112.66    9.08
  -3   9   2  124.55    9.06
  -3  -9  -2   84.08    7.75
  -1   9  -2  393.00   15.96
  -1   9   2  482.03   17.39
  -1  -9   2  403.77   15.92
  -1   9   2  487.32   16.89
   1   9   2  299.43   11.85
   1  -9   2  389.79   15.82
   1   9  -2  401.30   15.60
   1   9   2  312.11   14.33
   1   9   2  315.62   14.01
   3   9  -2   88.70    7.91
   3  -9   2  115.49    9.15
   3   9  -2   96.89    7.67
   3   9  -2   94.72    8.05
   3   9   2   88.81    7.96
   3  -9  -2  128.77    9.25
   5  -9   2  609.80   22.34
   5   9  -2  637.55   21.81
   5   9  -2  673.07   20.95
   5  -9  -2  601.92   20.59
   5   9   2  655.59   23.03
   7   9  -2  115.25    9.86
   7  -9  -2  124.97    9.95
   7  -9   2  104.43   10.03
   7   9  -2  119.62    9.95
   7   9   2  104.33    9.88
   7   9  -2  121.96    8.99
   9   9   2    1.60    0.66
   9   9  -2    0.44    0.83
   9   9   2    1.43    0.97
   9   9  -2    2.44    2.32
   9  -9  -2   -0.05    0.91
   9   9  -2   -0.68    1.02
  11   9  -2   57.15    5.81
  11   9   2   42.24    5.58
 -16  10   2   45.96    9.15
 -16  10  -2   44.80    8.56
 -16 -10  -2   39.72    8.74
 -16 -10   2   36.56    7.24
 -14  10   2   35.22    7.62
 -14  10   2   29.85    5.67
 -14  10  -2   34.88    7.17
 -14 -10   2   38.83    8.49
 -14 -10  -2   45.84    8.88
 -14  10  -2   34.12    7.53
 -14  10   2   30.24    6.27
 -14 -10  -2   43.10    8.23
 -14 -10   2   38.29    7.36
 -12  10   2   29.29    5.46
 -12 -10  -2   33.23    7.49
 -12 -10   2   37.06    7.94
 -12  10   2   31.13    5.87
 -12  10  -2   26.07    5.77
 -12 -10  -2   42.01    7.80
 -12 -10   2   38.38    6.82
 -10 -10  -2  165.74   14.32
 -10 -10   2  140.66   13.47
 -10  10   2  135.56   11.56
 -10  10  -2  140.04   12.79
 -10 -10   2  140.17   12.30
 -10 -10  -2  156.88   13.81
  -8 -10   2  277.70   17.57
  -8 -10  -2  243.75   15.93
  -8  10  -2  280.97   17.03
  -8  10   2  305.94   16.21
  -8 -10  -2  227.28   15.41
  -6 -10   2  526.40   22.20
  -6 -10  -2  519.95   20.87
  -6  10   2  460.68   19.25
  -6  10  -2  435.85   19.84
  -6 -10  -2  520.91   21.95
  -4 -10  -2  116.06    8.96
  -4  10  -2  126.22   10.25
  -4  10   2  135.66   10.07
  -4 -10  -2  125.59   10.23
  -2  10   2  436.46   17.55
  -2  10  -2  466.92   18.59
   0  10   2  462.27   15.23
   0  10  -2  466.31   17.97
   0  10   2  488.29   18.71
   0 -10   2  474.94   18.86
   0  10   2  469.64   17.91
   2  10   2  521.24   17.35
   2  10  -2  477.82   18.74
   2 -10   2  472.96   18.85
   2  10  -2  474.43   17.82
   2  10   2  536.26   19.89
   2  10  -2  486.76   18.91
   2  10   2  529.78   19.90
   2 -10  -2  441.40   17.71
   4  10  -2  141.91   10.75
   4 -10   2  135.98   10.58
   4 -10  -2  150.20   10.92
   4  10  -2  136.32    9.59
   4  10   2  129.64   10.32
   4  10  -2  136.54   10.22
   6 -10   2  479.81   21.19
   6  10  -2  523.41   21.02
   6  10  -2  505.61   19.32
   6 -10  -2  456.11   19.23
   6  10   2  541.97   22.37
   8  10  -2  269.47   15.94
   8  10   2  218.04   12.53
   8  10  -2  265.33   13.11
   8 -10  -2  309.12   16.66
   8  10  -2  261.53   14.28
   8  10  -2  266.36   15.80
  10  10   2  154.05    4.73
  10  10  -2  139.19    9.25
  10  10   2  148.81   10.77
  12  10  -2   41.41    5.00
  12  10   2   42.01    5.91
 -15  11   2   55.88    9.68
 -15  11  -2   55.47    8.74
 -15  11  -2   52.23    9.40
 -15  11  -2   56.08    9.76
 -15  11   2   52.57    8.53
 -15 -11   2   47.68    8.88
 -15 -11  -2   43.07    8.67
 -13  11   2  202.37   14.79
 -13  11  -2  231.43   17.97
 -13 -11   2  187.61   17.96
 -13 -11  -2  215.84   19.17
 -13  11   2  203.93   16.16
 -13  11  -2  233.00   18.52
 -13 -11   2  175.22   15.72
 -13 -11  -2  209.37   17.93
 -11 -11  -2   37.88    7.42
 -11 -11   2   48.63    8.65
 -11  11  -2   25.82    5.90
 -11  11   2   28.10    5.46
 -11 -11  -2   33.56    6.76
 -11 -11   2   37.64    6.89
  -9 -11  -2  139.96   12.74
  -9 -11   2  143.83   13.61
  -9  11   2  130.29   11.57
  -9  11  -2  124.72   12.05
  -9 -11  -2  147.35   13.34
  -7 -11   2  277.33   17.32
  -7 -11  -2  237.80   15.29
  -7  11   2  280.53   16.00
  -7  11  -2  258.06   16.54
  -7 -11  -2  248.54   16.33
  -5 -11  -2 1569.39   35.62
  -5  11   2 1599.53   36.64
  -5  11  -2 1673.41   39.19
  -5 -11  -2 1602.04   38.89
  -3  11  -2 1377.57   34.59
  -3  11   2 1354.33   32.81
  -1  11   2   72.31    7.60
  -1  11  -2   96.38    8.78
  -1  11   2   72.11    7.39
  -1 -11   2   36.17    5.51
   1  11   2   53.93    5.69
   1  11  -2   36.41    5.46
   1 -11   2   97.00    9.08
   1  11   2   60.91    7.20
   1  11   2   55.51    6.73
   1  11  -2   33.62    4.91
   3  11  -2 1376.05   33.48
   3  11  -2 1321.59   31.22
   3 -11   2 1359.02   34.27
   3 -11  -2 1402.12   34.02
   3  11   2 1314.87   33.17
   3  11   2 1276.26   32.85
   3  11  -2 1370.44   33.95
   5  11  -2 1554.99   38.59
   5 -11   2 1779.00   40.78
   5 -11  -2 1753.50   39.33
   5  11  -2 1514.00   34.51
   5  11   2 1668.41   39.88
   5  11  -2 1597.63   37.88
   7  11  -2  287.93   16.71
   7 -11  -2  293.64   16.49
   7  11  -2  283.85   15.47
   7  11  -2  292.90   16.78
   9  11  -2  145.30    9.91
   9  11   2  126.94   10.13
   9  11  -2  147.85   11.54
  11  11  -2   46.29    5.56
  11  11   2   31.97    5.34
  11  11  -2   48.41    6.95
 -16  12   2   -0.29    2.84
 -16  12  -2    3.40    1.57
 -16  12  -2   -1.05    3.09
 -14  12  -2   -0.68    2.35
 -14  12   2    1.52    1.59
 -14  12   2    2.62    2.52
 -14 -12  -2   -1.59    1.87
 -14 -12   2   -0.91    2.24
 -14  12  -2    2.00    2.60
 -14  12   2    3.12    2.94
 -14 -12  -2   -0.01    1.84
 -12 -12  -2  126.04   14.11
 -12 -12   2  150.28   15.91
 -12  12  -2  128.72   14.02
 -12  12   2  142.15   13.36
 -12 -12  -2  123.41   13.83
 -10 -12   2   19.61    5.56
 -10 -12  -2   16.99    4.90
 -10  12   2   20.16    5.15
 -10  12  -2   17.65    4.94
 -10 -12  -2   11.65    3.86
  -8 -12  -2   48.87    7.53
  -8 -12   2   72.75    9.51
  -8  12  -2   72.46    9.40
  -8  12   2   93.78    9.86
  -8 -12  -2   51.85    8.04
  -6 -12  -2   -1.33    1.77
  -6  12   2    0.57    1.60
  -6  12  -2   -2.24    2.28
  -6 -12  -2    1.14    1.53
  -4  12   2   43.66    6.28
  -4  12  -2   54.06    7.02
  -2  12   2   88.54    8.77
  -2  12  -2   86.21    8.69
  -2  12   2   83.69    8.28
   0  12   2    8.34    2.44
   0  12  -2    8.53    2.78
   0  12   2    7.07    2.46
   0  12   2    6.56    2.27
   0 -12   2    9.02    2.83
   2  12   2   87.22    7.81
   2  12  -2  100.08    9.39
   2  12  -2   88.76    8.60
   2  12   2   92.64    9.34
   2  12  -2   98.46    9.38
   2 -12   2   89.82    8.92
   2  12   2   96.49    9.42
   4  12  -2   37.08    6.15
   4 -12   2   69.60    8.22
   4  12  -2   36.34    5.76
   4  12  -2   35.53    5.41
   4  12   2   56.65    7.44
   4  12   2   53.09    7.02
   4 -12  -2   39.18    6.03
   6  12  -2    1.59    2.07
   6 -12  -2    1.27    1.81
   8  12  -2   73.68    8.39
  10  12  -2   22.07    4.19
  10  12   2   18.20    2.45
  10  12   2   16.90    3.82
  10  12  -2   18.22    4.60
  12  12  -2  147.11    9.96
  12  12  -2  146.14   12.85
  14  12  -2   -1.45    2.53
 -15  13   2   54.94   10.41
 -15  13  -2   57.34    9.71
 -15  13   2   43.38    8.27
 -15  13  -2   59.20   10.25
 -13 -13  -2   25.55    7.16
 -13 -13   2   21.19    6.39
 -13  13  -2   23.89    6.48
 -13  13   2   19.70    5.58
 -13 -13  -2   22.16    6.53
 -11 -13  -2   45.01    8.44
 -11 -13   2   51.41    8.96
 -11  13   2   82.45   10.40
 -11  13  -2   67.20   10.03
 -11 -13  -2   47.70    8.73
  -9 -13  -2    2.31    1.56
  -9 -13   2    3.70    2.63
  -9  13  -2    4.92    2.77
  -9  13   2    5.14    3.17
  -9 -13  -2    2.16    2.26
  -7 -13  -2  138.76   12.41
  -7  13   2  135.56   12.15
  -7  13  -2  119.27   11.85
  -7 -13  -2  128.58   12.50
  -5  13  -2  572.34   24.98
  -5  13   2  563.54   23.74
  -3  13   2  114.79   10.45
  -3  13  -2  116.35   10.96
  -1  13   2  103.40    8.47
  -1  13   2  106.49   10.15
  -1  13  -2   90.63    9.45
  -1 -13   2   56.00    7.41
  -1  13   2  108.96    9.91
   1  13   2   49.74    6.08
   1  13  -2   65.96    7.82
   1  13  -2   59.73    7.49
   1 -13   2  100.77   10.11
   1  13   2   48.49    6.82
   1  13   2   52.04    6.93
   3  13  -2  108.99   10.22
   3  13   2  130.37   10.51
   3  13  -2  114.51   10.10
   3 -13  -2  114.74   10.50
   3  13  -2  125.01   11.20
   3  13   2  128.12   11.44
   5  13  -2  523.76   22.02
   5  13   2  569.62   24.27
   7  13  -2  142.87   11.94
   9  13  -2    3.25    2.01
   9  13   2    5.52    2.65
   9  13  -2    5.35    3.02
  11  13  -2   53.07    6.28
  11  13  -2   57.07    8.40
  13  13  -2   19.57    4.73
 -14  14   2   22.80    6.09
 -14  14  -2   16.82    5.92
 -14 -14  -2    8.46    3.99
 -12 -14   2   88.85   12.75
 -12 -14  -2   89.44   12.31
 -12  14  -2   96.46   12.47
 -12  14   2   71.60   10.05
 -12 -14  -2   87.33   12.18
 -10 -14  -2   96.35   11.98
 -10 -14   2   71.01   10.60
 -10  14   2   84.08   10.58
 -10  14  -2   95.15   11.96
 -10 -14  -2   84.80   11.57
  -8 -14  -2  341.84   20.97
  -8  14   2  417.14   22.23
  -8  14  -2  397.13   23.12
  -8 -14  -2  322.79   21.16
  -6 -14  -2   17.25    4.49
  -6  14   2    8.33    3.15
  -6  14  -2   20.62    5.16
  -4  14  -2  261.74   17.16
  -4  14   2  265.64   16.82
  -2  14  -2 1118.82   34.32
  -2  14   2 1039.56   32.66
  -2  14   2 1085.99   32.50
   0  14   2  481.57   19.25
   0  14   2  483.62   22.25
   0  14  -2  472.37   21.89
   0  14   2  480.72   21.90
   2  14   2 1206.43   31.83
   2  14  -2 1105.40   33.11
   2  14   2 1219.16   36.20
   4  14  -2  236.21   15.24
   4  14   2  235.06   16.30
   6  14  -2   10.48    3.43
   6  14   2   17.39    4.34
   8  14  -2  398.12   21.08
  10  14  -2   72.20    7.85
  10  14  -2   69.16    9.36
  12  14  -2   86.78   10.80
 -15  15  -2   39.54    8.34
 -13 -15  -2   -3.57    4.14
 -13  15  -2   -2.86    2.86
 -13  15   2   -0.68    1.60
 -13 -15  -2    3.43    2.81
 -11 -15   2  122.34   14.62
 -11 -15  -2  102.35   13.22
 -11  15  -2  100.51   12.78
 -11  15   2  113.37   12.79
 -11 -15  -2   98.09   12.80
  -9 -15  -2   31.54    6.87
  -9  15  -2   28.01    6.67
  -9  15   2   28.79    6.45
  -9 -15  -2   29.80    6.97
  -7 -15  -2   26.29    5.80
  -7  15  -2   13.72    4.49
  -7  15   2    7.20    3.03
  -5  15   2   22.57    5.47
  -5  15  -2   23.60    5.77
  -3  15  -2   11.55    3.78
  -3  15   2    6.55    3.02
  -1  15   2   89.37    8.58
  -1  15   2   86.71    9.97
  -1  15  -2  125.56   11.94
   1  15   2  115.43    9.94
   1  15  -2   85.38    9.48
   1  15   2  107.11   10.97
   3  15   2    2.52    1.94
   3  15  -2    4.58    2.38
   3  15   2    4.44    2.43
   5  15  -2   35.85    6.39
   5  15   2   36.48    6.68
   7  15  -2   22.37    5.08
   7  15   2   31.28    6.53
   9  15  -2   25.88    5.92
  11  15  -2  123.57   10.35
  11  15  -2  117.22   12.56
  13  15  -2   -0.61    2.16
 -14  16   2   91.40   12.52
 -12 -16   2   56.55   10.39
 -12 -16  -2   58.38   10.34
 -12  16   2   59.44    9.88
 -12  16  -2   69.39   11.27
 -12 -16  -2   70.31   11.65
 -10 -16  -2  265.23   20.89
 -10  16   2  310.70   21.38
 -10  16  -2  280.52   21.54
 -10 -16  -2  255.86   20.88
  -8  16   2  297.31   20.25
  -8  16  -2  287.35   20.73
  -6  16  -2  123.25   13.19
  -6  16   2  147.33   14.10
  -4  16  -2  194.06   15.89
  -4  16   2  191.38   15.42
  -2  16  -2  167.26   14.23
  -2  16   2  171.25   14.33
   0  16   2  440.68   19.97
   0  16  -2  464.54   23.41
   0  16   2  467.81   23.52
   2  16   2  181.97   13.34
   2  16  -2  176.23   14.33
   2  16   2  184.03   15.02
   4  16  -2  157.59   13.54
   4  16   2  157.06   14.43
   6  16  -2  136.84   12.89
   6  16   2  114.34   12.64
   8  16  -2  295.01   19.34
   8  16   2  297.84   20.99
  10  16  -2  313.47   17.38
  10  16  -2  304.95   20.41
  10  16   2  269.00   20.63
  12  16   2   58.96    9.86
  12  16  -2   64.53    9.67
 -13  17   2   -0.04    2.66
 -11 -17  -2   16.07    6.27
 -11  17   2   10.28    3.72
 -11  17  -2   15.37    5.89
  -9  17  -2   12.43    4.97
  -9  17   2    6.15    3.28
  -7  17   2    6.00    3.88
  -7  17  -2    1.40    3.21
  -5  17  -2    1.59    2.00
  -5  17   2    9.32    4.39
  -3  17  -2   84.27   10.82
  -3  17   2   87.17   10.93
  -1  17   2   96.51    9.66
  -1  17  -2   94.77   11.20
  -1  17   2   94.91   11.37
   1  17   2   81.88   10.26
   1  17  -2   82.02   10.18
   3  17  -2   51.49    8.19
   3  17   2   50.31    8.27
   5  17  -2   11.20    4.07
   5  17   2   10.65    3.64
   7  17  -2    2.83    2.38
   7  17   2    0.28    1.71
   9  17  -2    7.13    3.27
   9  17   2    8.43    2.96
  11  17  -2    4.06    2.56
  11  17   2    7.34    3.67
  13  17  -2    1.01    2.15
  13  17   2   -2.01    3.53
 -12  18   2    7.47    3.95
 -10  18   2   15.57    4.77
 -10  18  -2   10.35    4.56
  -8  18  -2   38.97    8.12
  -8  18   2   32.69    7.40
  -6  18   2  133.95   14.31
  -6  18  -2  143.39   14.97
  -4  18  -2  153.32   15.17
  -4  18   2  133.67   13.91
  -2  18  -2   33.88    7.16
  -2  18   2   35.16    7.07
   0  18   2  513.07   26.95
   0  18  -2  531.77   27.07
   2  18   2   36.89    7.28
   2  18  -2   27.74    5.97
   4  18  -2  134.75   13.61
   4  18   2  162.42   15.55
   6  18  -2  140.61   14.04
   6  18   2  143.34   15.15
   8  18  -2   33.24    7.14
   8  18   2   42.48    8.71
  10  18  -2   15.41    5.25
  10  18   2    5.84    2.81
  12  18  -2   13.44    4.84
  12  18   2   15.38    5.78
 -11  19   2  133.55   15.71
  -9  19  -2   53.93   10.04
  -9  19   2   67.79   10.99
  -7  19   2  238.89   20.00
  -7  19  -2  249.01   20.64
  -5  19  -2   60.66    9.97
  -5  19   2   62.70   10.05
  -3  19  -2  159.01   15.86
  -3  19   2  131.41   14.35
  -1  19   2  153.36   15.40
  -1  19  -2  147.43   15.11
   1  19  -2  186.22   16.51
   1  19   2  164.17   15.92
   3  19   2  147.34   15.05
   3  19  -2  126.45   13.63
   5  19  -2   49.33    8.66
   5  19   2   55.61    9.47
   7  19  -2  220.74   18.21
   7  19   2  246.63   20.70
   9  19  -2   68.06   10.52
   9  19   2   65.93   11.22
  11  19  -2  144.04   15.51
  11  19   2  161.85   17.58
 -10  20   2    2.09    3.54
  -8  20  -2   34.59    8.22
  -8  20   2   24.89    6.46
  -6  20  -2    7.53    3.73
  -6  20   2    6.88    4.23
  -4  20  -2   23.63    6.49
  -4  20   2   14.31    5.20
  -2  20   2   -0.94    2.49
  -2  20  -2    1.56    2.25
   0  20  -2  105.49   13.07
   0  20   2  105.83   12.99
   2  20  -2    0.74    2.14
   2  20   2    2.60    3.28
   4  20  -2   15.91    5.05
   4  20   2   20.91    6.29
   6  20   2    6.23    3.87
   6  20  -2    6.07    3.94
   8  20  -2   29.27    7.29
   8  20   2   33.38    8.67
  10  20   2   -1.49    2.89
  10  20  -2    0.43    1.92
  -7  21   2   49.54    9.63
  -7  21  -2   58.24   10.62
  -5  21   2   10.20    4.81
  -5  21  -2    9.72    4.80
  -3  21  -2   64.34   10.96
  -3  21   2   63.80   10.53
  -1  21   2  136.18   15.28
  -1  21  -2  143.24   15.66
   1  21  -2  160.60   16.77
   1  21   2  167.69   17.08
   3  21  -2   60.22   10.20
   3  21   2   53.81    9.77
   5  21   2   12.00    5.16
   5  21  -2   15.21    5.34
   7  21  -2   46.70    9.10
   7  21   2   53.58   10.35
   9  21  -2   23.95    6.73
  11  21  -2   31.98    8.16
  -6  22   2   38.03    8.46
  -4  22  -2  142.34   16.49
  -4  22   2  139.08   16.31
  -2  22  -2   40.35    9.09
  -2  22   2   34.16    8.00
   0  22   2   74.71   11.93
   0  22  -2   85.84   12.71
   2  22  -2   34.69    8.10
   2  22   2   32.63    7.92
   4  22  -2  153.21   16.62
   4  22   2  160.87   17.38
   6  22  -2   23.02    7.02
   6  22   2   24.65    6.97
   8  22  -2   91.27   13.08
  -1  23  -2   57.60   10.94
  -1  23   2   60.94   11.06
   1  23  -2   61.22   11.06
   1  23   2   65.98   11.59
   3  23  -2    0.97    2.04
   5  23  -2    6.93    3.65
 -18   0   3   -2.71    2.72
 -18   0  -3    2.40    2.50
 -16   0   3    2.27    2.84
 -16   0  -3    1.29    1.52
 -14   0  -3   -0.48    2.14
 -14   0  -3    0.51    1.50
 -14   0   3   -0.05    1.70
 -14   0   3    0.34    1.56
 -12   0   3    2.57    1.64
 -12   0  -3    4.02    0.99
 -12   0  -3    2.49    2.43
 -12   0  -3    2.52    1.36
 -12   0   3    4.86    2.92
 -12   0   3    1.57    1.02
 -10   0   3   -0.67    0.93
 -10   0  -3    0.73    0.56
 -10   0  -3   -0.17    0.62
 -10   0   3    0.19    1.50
 -10   0  -3    0.71    1.33
 -10   0   3   -0.76    0.93
  -8   0   3    1.99    1.43
  -8   0  -3    2.45    2.04
  -8   0   3    1.80    1.21
  -8   0  -3    1.89    1.01
  -8   0   3    2.18    1.14
  -6   0   3   -0.74    1.05
  -6   0   3    2.24    1.76
  -6   0  -3    3.02    1.99
  -6   0  -3    0.15    0.56
  -6   0   3    0.65    0.91
  -4   0   3   15.83    2.63
  -4   0  -3   16.96    3.10
  -4   0   3   21.32    3.73
  -4   0   3   14.62    1.39
  -2   0   3    3.99    1.48
  -2   0  -3    3.93    1.60
  -2   0  -3    4.87    1.24
  -2   0   3    4.92    1.39
  -2   0   3    4.83    1.07
   0   0  -3    1.91    0.90
   0   0   3    1.16    0.88
   0   0   3    1.06    0.75
   0   0  -3    0.90    1.20
   0   0   3    2.22    1.06
   2   0  -3    2.74    0.96
   2   0   3    5.63    1.41
   2   0  -3    5.65    1.73
   4   0  -3   13.52    1.31
   4   0  -3   13.01    2.59
   4   0   3   19.58    3.26
   4   0  -3   18.08    2.91
   6   0  -3    0.50    0.86
   6   0  -3    2.67    1.88
   6   0   3   -0.38    0.82
   6   0  -3    0.92    0.49
   8   0  -3    2.53    1.16
   8   0   3    2.44    1.90
  10   0  -3    0.28    0.84
  10   0   3    1.70    1.27
  12   0  -3    2.74    1.62
 -17   1  -3    6.00    2.40
 -17   1   3   15.85    4.94
 -17  -1   3   10.82    4.20
 -17  -1  -3   12.43    4.37
 -15  -1   3    7.59    2.97
 -15   1  -3   11.32    4.02
 -15   1   3   11.73    4.33
 -15  -1   3   12.14    3.65
 -15   1   3   12.98    3.32
 -15  -1  -3    9.44    3.98
 -13  -1   3  391.96   17.23
 -13   1   3  349.23   17.05
 -13   1  -3  353.66   15.03
 -13   1   3  365.61   20.45
 -13  -1   3  400.85   21.48
 -13  -1   3  433.06   18.44
 -13   1   3  400.72   17.42
 -13   1  -3  351.48   20.77
 -13  -1  -3  359.98   21.04
 -11   1  -3   66.55    4.64
 -11   1   3   69.87    7.34
 -11  -1   3   62.50    6.62
 -11   1  -3   73.57    6.24
 -11  -1  -3   63.11    5.49
 -11   1   3   75.23    8.46
 -11  -1   3   62.25    7.72
 -11  -1  -3   58.26    7.80
 -11  -1   3   62.99    6.27
 -11   1  -3   64.89    8.04
 -11   1   3   79.56    6.86
  -9  -1   3   44.61    5.13
  -9   1   3   41.09    5.20
  -9  -1  -3   65.77    4.79
  -9   1   3   43.09    5.92
  -9   1  -3   59.07    4.80
  -9   1  -3   56.76    7.05
  -9  -1   3   52.37    6.51
  -9  -1   3   51.76    5.02
  -9   1   3   42.33    4.36
  -9  -1  -3   65.18    7.62
  -7   1   3  523.87   16.86
  -7  -1   3  548.35   16.77
  -7  -1   3  556.41   19.00
  -7  -1  -3  527.78   10.73
  -7   1  -3  503.53   18.60
  -7   1   3  516.19   18.51
  -7   1  -3  518.98   11.90
  -7  -1  -3  530.51   19.14
  -7   1   3  532.79   12.57
  -7  -1   3  547.41   13.57
  -5  -1  -3  408.15   14.46
  -5  -1   3  460.98   15.36
  -5   1   3  427.58   15.05
  -5   1  -3  396.74   14.55
  -5  -1  -3  406.33    6.42
  -5   1   3  420.31   13.96
  -5  -1   3  455.90   13.89
  -5   1   3  415.75    8.10
  -5   1   3  426.07    8.16
  -5  -1   3  463.60   10.07
  -3   1   3 8913.25   58.55
  -3  -1   3 9573.28   60.91
  -3  -1  -3 8336.62   56.74
  -3   1   3 8802.13   56.58
  -1   1   3   64.37    4.05
  -1  -1   3  115.31    5.64
  -1  -1  -3  111.05    5.26
  -1  -1   3  120.76    5.78
  -1  -1  -3  103.34    4.68
  -1   1   3   56.45    4.16
  -1   1  -3   52.77    3.82
  -1  -1   3  112.64    3.78
   1   1  -3  119.57    5.68
   1   1   3   93.33    3.60
   1   1   3   90.49    4.98
   1   1  -3  111.65    5.90
   1  -1  -3   64.10    4.25
   1   1   3   97.19    4.65
   1  -1   3   52.24    3.74
   1   1  -3  109.79    3.77
   1  -1  -3   57.57    2.50
   3   1  -3 9999.00   61.78
   3   1  -3 9810.81   58.92
   3   1  -3 9889.75   35.13
   5   1  -3  450.32   15.14
   5  -1  -3  430.92   14.11
   5   1   3  423.78   15.18
   5   1  -3  464.60   13.90
   5  -1   3  379.94   14.23
   5   1   3  413.29   14.67
   5   1  -3  437.56    7.20
   5  -1  -3  424.52    8.23
   5   1  -3  445.65    9.85
   7   1  -3  548.16   18.91
   7   1  -3  552.74   13.76
   7   1   3  566.92   19.81
   7  -1  -3  516.71   11.98
   7   1  -3  534.81   11.40
   7  -1   3  526.09   18.80
   7   1   3  566.79   19.57
   7   1  -3  555.40   16.51
   9   1  -3   49.64    4.91
   9  -1   3   55.70    6.83
   9   1  -3   46.50    4.17
   9  -1  -3   40.09    4.08
   9   1   3   68.94    7.57
  11   1  -3   62.64    5.71
  11  -1  -3   72.31    6.29
  13  -1  -3  374.35   15.81
  13   1  -3  395.02   15.75
 -18   2   3   83.25   11.72
 -18  -2  -3   62.78   10.65
 -18   2  -3   87.69   12.55
 -16  -2   3   45.59    8.37
 -16   2  -3   37.22    7.61
 -16   2   3   48.47    8.74
 -16  -2  -3   32.16    7.33
 -14  -2   3  151.91   13.75
 -14   2   3  186.55   15.29
 -14   2  -3  200.95   12.08
 -14  -2  -3  159.13   14.65
 -14  -2   3  173.97   12.69
 -14   2   3  197.87   12.77
 -14   2  -3  195.62   16.19
 -12   2   3  260.84   14.84
 -12  -2   3  272.58   13.78
 -12   2  -3  287.94   11.03
 -12   2  -3  287.74   17.65
 -12   2   3  263.16   16.78
 -12   2  -3  282.19   13.09
 -12  -2   3  269.75   16.85
 -12  -2  -3  280.22   18.01
 -12  -2   3  269.07   14.14
 -12   2   3  277.81   13.44
 -10   2   3  355.26   16.05
 -10  -2   3  338.31   14.47
 -10   2  -3  396.43   13.90
 -10  -2   3  336.65   17.21
 -10   2   3  371.73   18.39
 -10   2  -3  391.73   19.10
 -10  -2  -3  368.84   18.76
 -10   2   3  360.59   13.67
 -10  -2   3  354.56   14.38
  -8   2  -3  150.73   10.80
  -8   2  -3  151.81    7.45
  -8   2   3  137.41   10.18
  -8  -2   3  129.45    9.72
  -8   2   3  139.57    9.33
  -8  -2   3  138.21    8.60
  -8   2   3  135.13    7.05
  -8  -2   3  151.41    8.25
  -8  -2  -3  159.81   11.23
  -8   2   3  138.24    7.15
  -6   2   3  871.24   23.00
  -6   2   3  844.20   13.75
  -6  -2   3  929.54   23.29
  -6   2  -3  823.11   22.63
  -6   2   3  880.70   21.53
  -6  -2   3  884.56   20.08
  -6   2   3  869.12   15.06
  -6   2  -3  827.68   22.62
  -6  -2  -3  862.15   23.24
  -6  -2   3  928.90   17.32
  -4   2   3 5038.03   47.96
  -4   2   3 4881.88   22.34
  -4  -2   3 4848.15   47.65
  -4  -2   3 4700.85   43.39
  -4   2   3 4948.26   46.75
  -4  -2   3 4912.69   44.91
  -4   2   3 4897.87   29.09
  -4   2  -3 4815.80   48.16
  -4  -2  -3 4793.82   47.71
  -2  -2   3  416.31   12.17
  -2   2   3  366.40   11.31
  -2  -2  -3  265.33    6.88
  -2  -2   3  398.77    6.87
  -2   2   3  362.04    7.71
  -2  -2  -3  275.55    9.61
   0  -2  -3 8570.87   46.97
   0   2   3 8541.05   47.03
   0   2  -3 8565.14   43.21
   0  -2   3 8418.04   42.75
   0  -2  -3 8637.96   40.69
   0   2   3 8424.96   41.18
   2   2   3  261.86    9.29
   2  -2  -3  366.07   11.40
   2   2  -3  396.88   11.75
   2   2  -3  400.58   11.62
   2   2  -3  408.88   10.77
   2   2  -3  391.59    6.81
   4   2  -3 4848.85   47.22
   4   2   3 4858.82   47.44
   4   2  -3 4868.92   43.61
   4  -2   3 4866.74   48.05
   4   2  -3 4839.23   32.51
   4  -2  -3 4842.91   28.95
   4   2  -3 4803.17   23.01
   6   2   3  894.67   23.80
   6   2  -3  918.17   23.73
   6   2  -3  889.30   20.20
   6  -2  -3  883.56   15.11
   6  -2   3  812.41   22.31
   6   2  -3  904.70   13.57
   6   2  -3  904.93   17.04
   8   2  -3  144.43   10.33
   8   2   3  171.24   11.61
   8   2  -3  142.70    7.94
   8   2  -3  139.61    6.70
   8  -2  -3  135.01    7.11
   8  -2   3  151.47   10.66
   8   2   3  159.81   10.98
   8   2  -3  139.33    8.58
  10   2  -3  353.66   14.43
  10  -2  -3  351.25   13.37
  10   2   3  382.30   18.52
  10   2  -3  329.95   12.07
  10  -2   3  392.83   19.05
  12  -2  -3  267.62   13.07
  12   2  -3  253.44   11.95
 -17   3  -3   -2.44    3.24
 -17   3   3    2.26    3.05
 -17  -3  -3    6.91    3.87
 -15   3  -3   23.88    5.71
 -15   3  -3   23.39    4.53
 -15   3   3   34.60    7.47
 -15   3   3   24.85    4.71
 -15  -3  -3   22.89    5.98
 -15  -3   3   26.89    5.54
 -13   3   3   97.86    9.56
 -13   3   3  104.75   11.29
 -13  -3   3  123.16   12.04
 -13   3  -3  113.52    9.05
 -13   3  -3  109.18   11.45
 -13   3   3  110.00    9.03
 -13  -3  -3  131.87   12.89
 -13  -3   3  132.35   10.87
 -11   3   3   23.72    4.54
 -11  -3   3   31.84    5.59
 -11   3  -3   28.90    4.35
 -11   3  -3   30.82    6.00
 -11   3   3   22.50    3.72
 -11   3   3   22.49    5.09
 -11  -3   3   36.34    5.19
 -11  -3  -3   40.04    6.56
  -9   3   3   18.67    3.91
  -9  -3  -3   12.78    3.40
  -9   3   3   17.61    2.77
  -9   3  -3   22.42    3.41
  -9   3  -3   17.49    4.00
  -9  -3   3   12.72    3.48
  -9   3   3   18.14    3.74
  -9   3   3   21.76    3.28
  -9  -3   3   14.13    2.95
  -7   3   3   57.44    4.24
  -7   3   3   53.62    6.34
  -7  -3   3   68.04    6.89
  -7   3  -3   79.23    7.36
  -7  -3   3   65.57    6.92
  -7   3   3   56.55    6.09
  -7   3  -3   79.33    7.63
  -7   3   3   53.18    4.44
  -7  -3  -3   96.40    8.39
  -7  -3   3   64.00    5.25
  -5  -3   3 1496.89   28.73
  -5  -3   3 1480.40   28.09
  -5   3   3 1503.45   27.98
  -5   3  -3 1373.07   27.90
  -5   3   3 1499.04   19.90
  -5  -3  -3 1346.04   27.81
  -5  -3   3 1501.06   22.08
  -3  -3  -3   23.47    3.39
  -3   3   3    2.13    1.17
  -3  -3   3    4.87    1.65
  -3   3  -3   11.23    2.59
  -3   3   3    3.06    1.08
  -1   3   3    5.67    1.74
  -1  -3   3    3.92    1.12
  -1   3  -3    9.05    2.46
  -1   3   3    3.26    0.89
  -1  -3  -3    6.84    1.78
   1   3   3    6.58    1.48
   1   3   3    6.50    1.36
   1  -3   3    2.58    0.91
   1   3  -3    8.57    1.46
   1  -3  -3    3.04    0.97
   3   3   3   24.37    3.33
   3   3  -3    5.96    1.77
   3   3   3   20.47    1.82
   3   3  -3    7.76    2.09
   3   3  -3    6.13    1.98
   3  -3   3   12.70    2.55
   3   3  -3    5.24    1.21
   3   3  -3    7.00    1.18
   3  -3  -3    2.22    0.86
   5   3   3 1406.77   28.14
   5   3   3 1291.40   13.88
   5   3  -3 1472.33   28.26
   5   3  -3 1457.61   24.87
   5  -3   3 1409.95   28.14
   5  -3  -3 1506.27   20.12
   5   3  -3 1507.42   21.90
   7   3  -3   66.43    6.73
   7   3   3   89.22    4.67
   7   3   3  100.01    8.50
   7   3  -3   62.59    5.56
   7  -3  -3   53.98    4.46
   7  -3   3   77.80    7.52
   7   3  -3   67.86    5.50
   9   3   3   16.34    4.12
   9   3  -3   13.11    3.38
   9   3  -3   13.08    2.75
   9   3  -3   12.14    2.26
   9  -3   3   18.50    4.17
   9  -3  -3   17.50    2.88
   9   3   3   15.35    4.01
   9   3  -3    9.50    2.30
  11   3  -3   33.21    5.00
  11   3  -3   27.45    5.30
  11   3  -3   30.84    4.08
  11  -3  -3   22.26    3.84
  13   3  -3  121.28    8.88
  13  -3  -3  103.30    8.69
 -18   4  -3   64.53   10.83
 -18   4   3   44.94    9.02
 -18  -4  -3   54.09   10.07
 -16  -4   3   51.64   10.10
 -16   4  -3   59.35    9.68
 -16   4   3   63.74    9.99
 -16  -4  -3   55.26    9.58
 -16  -4   3   62.21    8.30
 -14  -4   3   54.06    9.88
 -14   4  -3   69.15    9.47
 -14   4   3   74.99    9.96
 -14   4  -3   76.31    8.02
 -14  -4  -3   57.41    9.17
 -14  -4   3   64.29    8.05
 -14   4   3   84.18    8.25
 -12   4   3  255.70   15.39
 -12   4  -3  291.36   18.48
 -12   4  -3  287.35   14.15
 -12   4   3  242.63   16.46
 -12  -4  -3  298.77   19.03
 -12   4   3  252.82   13.01
 -12  -4   3  281.31   15.37
 -10   4  -3  720.41   20.52
 -10   4  -3  756.34   27.08
 -10   4   3  668.24   25.12
 -10  -4   3  571.28   22.96
 -10   4   3  653.80   18.43
 -10   4   3  658.31   23.36
 -10  -4   3  537.18   24.23
 -10   4   3  664.69   19.65
 -10   4  -3  753.00   27.07
 -10  -4   3  573.89   19.71
 -10  -4  -3  665.54   25.65
  -8   4   3  380.30   12.25
  -8   4  -3  392.82   17.75
  -8   4   3  374.97   17.25
  -8  -4   3  404.00   17.69
  -8   4   3  396.92   16.89
  -8  -4   3  398.67   18.45
  -8   4  -3  389.59   17.89
  -8   4   3  381.63   13.30
  -8  -4   3  403.22   14.66
  -8  -4  -3  391.96   17.81
  -6   4   3 1247.90   27.35
  -6  -4   3 1171.99   27.54
  -6   4  -3 1212.08   28.40
  -6   4   3 1262.67   21.55
  -6  -4  -3 1116.40   27.09
  -6  -4   3 1168.16   22.54
  -4   4   3 3509.84   42.44
  -4  -4   3 3587.83   42.63
  -4   4  -3 3561.36   43.56
  -4   4   3 3592.58   33.41
  -4  -4  -3 3764.83   44.75
  -2   4  -3  996.80   20.34
  -2   4   3  948.41   17.01
  -2  -4   3  835.20   14.54
  -2  -4  -3  976.92   19.93
  -2   4   3  887.63   13.74
   0   4  -3  458.26   11.96
   0  -4   3  458.08   12.05
   0   4   3  441.71   11.29
   0  -4  -3  474.12   11.79
   2   4   3  975.03   15.26
   2   4  -3  893.67   18.88
   2  -4   3 1005.79   20.41
   2   4  -3  894.78   14.97
   2   4   3  952.75   19.60
   4   4  -3 3448.90   42.66
   4   4  -3 3645.33   39.11
   4   4   3 3625.91   22.14
   4  -4   3 3531.89   43.09
   4   4  -3 3634.20   29.63
   4  -4  -3 3606.61   33.79
   4   4   3 3676.24   44.49
   4   4  -3 3680.90   35.95
   6   4  -3 1122.45   26.61
   6   4   3 1184.75   28.26
   6   4   3 1104.41   16.04
   6   4  -3 1126.85   23.01
   6  -4  -3 1238.40   21.30
   6  -4   3 1265.44   29.16
   6   4  -3 1157.45   22.23
   8   4   3  386.33   11.07
   8   4  -3  409.99   17.61
   8   4   3  401.85   18.21
   8   4  -3  401.93   14.61
   8  -4   3  398.81   18.21
   8  -4  -3  375.39   13.31
   8   4  -3  396.22   14.58
  10   4  -3  556.10   19.25
  10   4  -3  564.14   22.62
  10   4  -3  549.43   16.43
  10  -4   3  774.42   27.34
  10   4   3  686.08   25.51
  10  -4  -3  644.80   19.42
  10   4  -3  565.07   18.29
  12   4  -3  263.59   14.70
  12   4  -3  261.00   12.59
  12  -4  -3  244.47   13.23
 -17   5  -3    6.03    3.36
 -17   5   3    3.19    2.67
 -17  -5  -3    0.49    2.74
 -15  -5   3   11.31    4.67
 -15   5   3    3.60    2.43
 -15   5  -3    4.71    2.88
 -15   5  -3    2.64    2.41
 -15  -5  -3    1.66    2.48
 -15  -5   3    6.19    2.88
 -13  -5   3    9.20    3.70
 -13   5   3    5.54    2.24
 -13   5  -3    5.22    2.33
 -13   5  -3    6.62    3.21
 -13   5   3    6.15    2.48
 -13  -5   3   10.97    3.38
 -13  -5  -3    6.30    3.39
 -11   5  -3   29.24    5.74
 -11   5   3   35.84    4.73
 -11   5  -3   34.89    5.18
 -11   5   3   41.87    6.80
 -11   5   3   44.99    6.47
 -11  -5   3   32.63    6.32
 -11   5   3   42.39    5.54
 -11   5  -3   31.97    5.90
 -11  -5  -3   23.80    5.36
 -11  -5   3   26.45    4.59
  -9   5   3  118.36    7.64
  -9   5  -3  129.72   10.77
  -9   5   3  113.88   10.10
  -9  -5   3  115.16   10.46
  -9   5   3  117.03    9.74
  -9   5  -3  117.66   10.48
  -9   5   3  113.45    8.02
  -9  -5  -3  108.99   10.18
  -9  -5   3  120.66    8.92
  -7   5   3  160.45   10.68
  -7  -5   3  138.29   10.44
  -7   5  -3  132.98   10.07
  -7   5   3  163.01    8.76
  -7  -5   3  132.96    8.46
  -7  -5  -3  105.28    9.16
  -5  -5   3  246.65   12.28
  -5   5  -3  173.99   10.58
  -5   5   3  223.40    9.58
  -5  -5  -3  194.88   11.10
  -3   5  -3   42.28    4.69
  -3   5   3   90.10    5.69
  -3  -5  -3   65.84    6.00
  -1  -5  -3 1342.49   17.18
  -1  -5   3 1270.38   20.65
  -1   5  -3 1325.11   23.31
  -1   5   3 1258.20   21.69
  -1   5   3 1224.78   19.37
  -1  -5  -3 1337.81   23.22
   1   5  -3 1246.89   20.70
   1  -5   3 1311.95   23.47
   1   5   3 1340.27   23.10
   3   5  -3  119.15    7.88
   3   5  -3  119.75    7.76
   3   5  -3  121.60    6.10
   3  -5   3   49.05    5.01
   3   5  -3  128.36    7.13
   3  -5  -3   92.28    5.83
   3   5   3   65.82    5.75
   5   5  -3  228.38   11.79
   5   5   3  198.50    5.05
   5   5  -3  235.05   10.57
   5  -5   3  168.63   10.34
   5   5  -3  239.85    8.88
   5   5  -3  250.06   10.50
   5   5   3  202.88   11.45
   5  -5  -3  206.41    9.07
   7   5  -3  141.25   10.04
   7   5   3  110.29    9.29
   7   5   3   94.12    5.49
   7   5  -3  134.21    8.36
   7  -5   3  132.32   10.13
   7  -5  -3  155.27    8.58
   7   5  -3  128.55    8.25
   9   5  -3  115.93   10.05
   9   5   3  126.61   10.92
   9   5   3  118.90    6.92
   9   5  -3  115.26    8.15
   9  -5  -3  108.00    7.91
   9  -5   3  122.12   10.60
   9   5  -3  119.56    8.91
  11   5  -3   30.01    4.99
  11  -5  -3   38.30    5.28
  11   5  -3   29.58    4.20
  11   5  -3   28.90    4.30
  13   5  -3   10.23    3.06
  13   5  -3    8.30    2.47
  13  -5  -3    5.14    2.13
 -18   6  -3    7.18    4.28
 -18   6   3    6.45    4.43
 -16  -6   3   67.89   11.33
 -16   6   3   62.78   10.19
 -16   6  -3   58.80    9.59
 -16  -6  -3   69.73   10.85
 -16  -6   3   65.99    9.18
 -14  -6   3   13.26    4.85
 -14   6  -3   27.18    6.30
 -14   6   3   21.30    5.62
 -14   6  -3   26.58    5.19
 -14   6   3   16.24    3.93
 -14  -6  -3   20.15    5.64
 -14  -6   3    9.17    2.98
 -12   6  -3  408.65   21.94
 -12   6   3  396.05   16.58
 -12   6  -3  396.28   17.87
 -12   6   3  377.37   21.24
 -12  -6   3  388.07   22.86
 -12   6   3  395.36   17.85
 -12   6  -3  389.73   21.75
 -12  -6  -3  393.97   22.47
 -12  -6   3  406.45   19.57
 -10   6   3  193.50   10.61
 -10   6  -3  175.73   13.28
 -10   6   3  191.06   13.90
 -10  -6   3  204.06   14.98
 -10   6   3  190.87   13.28
 -10   6  -3  184.99   13.88
 -10   6   3  187.93   11.31
 -10  -6  -3  207.06   14.96
 -10  -6   3  206.52   12.80
  -8   6   3  236.16   13.92
  -8  -6   3  266.43   15.45
  -8   6  -3  221.15   14.02
  -8   6   3  240.23   11.71
  -8  -6  -3  255.40   15.25
  -8  -6   3  281.61   13.65
  -6  -6   3   96.76    8.49
  -6   6  -3   72.49    7.35
  -6   6   3   97.42    6.99
  -6  -6  -3   77.58    7.72
  -4  -6   3  366.35   15.03
  -4   6   3  350.24   12.59
  -4   6  -3  276.32   13.09
  -4  -6  -3  289.35   13.18
  -2  -6  -3 1008.52   18.29
  -2   6  -3  994.09   22.49
  -2   6   3  954.32   20.35
  -2   6   3  948.15   18.13
  -2  -6   3  976.69   20.06
  -2  -6  -3 1048.16   22.81
   0   6   3  325.92    8.43
   0  -6   3  338.49   12.17
   0   6  -3  339.19   12.26
   0   6   3  326.19   11.50
   0  -6  -3  337.55   11.76
   2   6  -3  957.46   22.46
   2   6  -3  959.61   19.16
   2  -6   3 1033.00   23.20
   2   6   3  999.54   22.46
   4   6  -3  361.07   14.82
   4   6  -3  358.54   14.97
   4  -6   3  278.65   13.26
   4  -6  -3  343.48   12.64
   4   6  -3  369.21   11.71
   4   6   3  299.47   13.58
   4   6  -3  354.02   13.06
   6   6  -3   94.35    8.20
   6   6   3   74.41    2.98
   6   6  -3   94.64    7.11
   6  -6  -3   96.44    6.88
   6  -6   3   78.42    7.65
   6   6   3   78.18    7.64
   6   6  -3   95.57    7.27
   6   6  -3   98.82    6.37
   8   6   3  264.82   15.36
   8   6  -3  272.47   14.98
   8   6   3  243.73    9.97
   8   6  -3  279.75   12.66
   8  -6   3  224.24   14.08
   8  -6  -3  237.68   11.81
   8   6  -3  272.08   13.28
  10   6   3  181.65    9.36
  10   6  -3  199.14   13.74
  10   6  -3  200.27   11.04
  10  -6  -3  177.74   11.06
  10   6  -3  206.25   12.61
  12   6  -3  394.74   15.95
  12   6  -3  383.25   18.70
  12  -6  -3  376.97   17.44
  12   6  -3  386.57   16.22
 -17   7   3   29.12    7.37
 -17   7  -3   28.55    7.06
 -17  -7  -3   20.69    6.77
 -15  -7   3    5.45    4.63
 -15   7   3    0.49    1.95
 -15   7  -3   -1.04    3.32
 -15   7  -3    3.20    2.20
 -15  -7   3    5.37    3.60
 -15  -7  -3    2.90    2.40
 -13   7   3   79.94   10.27
 -13   7  -3   78.62   10.36
 -13   7  -3   88.99    9.26
 -13   7   3   93.48    8.67
 -13  -7   3   89.36   11.73
 -13   7  -3   93.68   11.33
 -13   7   3   88.36    9.07
 -13  -7  -3   91.10   11.41
 -13  -7   3   97.18   10.16
 -11   7   3  304.04   18.69
 -11   7   3  296.46   14.25
 -11   7  -3  287.62   17.90
 -11  -7   3  301.88   19.47
 -11   7  -3  283.56   18.39
 -11   7   3  300.00   15.44
 -11  -7  -3  290.26   18.58
 -11  -7   3  290.64   16.37
  -9   7   3  556.79   22.83
  -9  -7   3  553.90   24.03
  -9   7   3  567.28   19.65
  -9   7  -3  552.42   23.39
  -9  -7  -3  529.91   23.16
  -9  -7   3  568.04   21.13
  -7  -7   3  176.01   12.35
  -7   7  -3  237.29   14.20
  -7   7   3  190.34   10.57
  -7  -7  -3  209.46   13.41
  -5  -7   3   11.72    3.12
  -5   7  -3    2.98    1.95
  -5   7   3    4.48    1.94
  -5  -7  -3   16.07    3.44
  -3  -7  -3  426.55   13.87
  -3   7  -3  352.61   14.69
  -3   7   3  310.66   12.54
  -3  -7  -3  412.49   16.12
  -1  -7   3 1567.40   27.32
  -1   7  -3 1594.00   29.41
  -1  -7  -3 1592.45   28.34
  -1   7   3 1577.06   25.94
  -1   7   3 1702.32   29.84
   1  -7   3 1600.00   29.22
   1   7  -3 1629.44   27.82
   1   7   3 1522.04   27.56
   3   7  -3  358.69   14.87
   3   7  -3  361.36   12.62
   3  -7   3  378.54   15.49
   3  -7  -3  316.91   12.58
   3   7  -3  367.11   14.04
   3   7   3  406.07   15.76
   5   7   3   11.62    2.81
   5   7  -3   15.11    3.50
   5  -7   3    3.97    2.20
   5   7  -3   14.77    2.85
   5  -7  -3    1.41    1.35
   5   7  -3   11.76    2.79
   7   7   3  211.57    4.82
   7   7   3  220.38    9.83
   7   7  -3  186.26   12.30
   7   7  -3  187.89   10.39
   7  -7  -3  198.75   10.95
   7  -7   3  242.44   14.63
   7   7   3  227.36   14.02
   7   7  -3  186.19    9.69
   7   7  -3  189.44   11.29
   9   7   3  529.46   16.13
   9   7  -3  585.15   23.20
   9   7  -3  562.19   18.75
   9  -7  -3  569.54   19.97
   9   7  -3  587.39   21.30
  11   7   3  290.26   12.82
  11   7  -3  306.06   14.13
  11  -7  -3  278.45   14.98
  11   7  -3  294.66   16.24
  13   7  -3   95.07    7.97
 -16   8   3   -0.69    1.96
 -16   8  -3   -0.53    2.08
 -16  -8  -3    2.92    2.69
 -16  -8   3    2.51    3.42
 -14   8  -3    7.37    3.32
 -14   8  -3   11.74    4.26
 -14   8   3   11.01    3.41
 -14   8   3    7.64    3.63
 -14  -8   3    3.86    2.81
 -14   8   3    8.49    3.37
 -14  -8  -3    5.31    3.60
 -14  -8   3    4.33    3.28
 -12   8   3  140.88   10.45
 -12   8   3  135.94   13.16
 -12   8  -3  132.14   12.89
 -12  -8   3  157.11   14.92
 -12   8   3  133.78   11.07
 -12   8  -3  128.83   13.08
 -12  -8  -3  157.82   14.54
 -12  -8   3  160.27   13.06
 -10  -8   3  113.08   11.72
 -10   8  -3   60.13    8.22
 -10   8   3   76.15    7.86
 -10  -8   3  113.25   10.15
 -10  -8  -3  103.41   11.08
  -8  -8   3   18.38    4.20
  -8   8  -3   27.81    5.21
  -8   8   3   35.94    5.08
  -8  -8  -3   11.66    3.61
  -6  -8   3    2.40    1.99
  -6  -8  -3    0.43    1.03
  -6   8   3    3.04    1.69
  -6   8  -3   -1.10    1.65
  -6  -8  -3    1.97    1.92
  -4  -8  -3   68.44    6.29
  -4   8   3   47.54    5.27
  -4   8  -3   69.67    7.11
  -4  -8  -3   72.78    7.23
  -2  -8  -3    1.73    0.79
  -2   8  -3    3.54    1.90
  -2   8   3    0.75    1.12
  -2  -8  -3    1.11    1.55
  -2   8   3    3.95    1.77
  -2  -8   3    0.27    0.93
   0   8   3   21.86    2.80
   0   8  -3   23.11    3.74
   0   8   3   24.22    4.01
   0   8   3   24.33    3.79
   0  -8   3   20.63    3.30
   2   8  -3    0.05    0.84
   2  -8   3    0.68    1.22
   2   8   3    2.34    1.55
   2   8  -3    1.14    1.28
   4   8  -3   53.09    6.24
   4   8  -3   51.26    5.13
   4  -8   3   64.99    6.98
   4  -8  -3   51.36    5.70
   4   8  -3   49.24    5.62
   4   8   3   69.19    7.17
   6   8  -3    1.56    1.69
   6   8   3    0.30    1.36
   6  -8   3   -0.36    0.94
   6   8  -3    4.13    1.86
   6  -8  -3    2.06    1.52
   6   8  -3    2.49    1.75
   8   8   3   18.55    3.03
   8   8  -3   22.58    4.70
   8   8  -3   20.85    3.77
   8  -8   3   33.99    6.03
   8  -8  -3   33.44    5.00
   8   8  -3   25.37    4.48
   8   8  -3   22.44    3.73
  10   8   3   88.27    7.12
  10   8  -3  119.61    8.94
  10  -8  -3   71.57    7.63
  10   8  -3  118.53   10.32
  12   8   3  158.16   10.17
  12  -8  -3  130.01   11.03
  12   8  -3  163.21   10.55
 -17   9  -3   23.60    6.56
 -17   9   3   19.73    6.24
 -15  -9   3    2.70    3.45
 -15  -9  -3   12.04    5.20
 -15   9   3    6.56    3.37
 -15   9  -3    6.65    3.83
 -15   9  -3    7.20    3.63
 -15  -9  -3    6.64    3.71
 -15  -9   3    4.37    2.70
 -13   9  -3   78.32   10.69
 -13   9   3   71.85    8.00
 -13   9   3   69.92   10.32
 -13  -9   3   55.19    9.44
 -13   9  -3   68.39   10.16
 -13   9   3   63.09    8.18
 -13  -9  -3   75.12   10.73
 -13  -9   3   64.70    8.76
 -11  -9   3  160.91   14.81
 -11   9  -3  154.45   13.98
 -11   9   3  152.31   11.81
 -11  -9  -3  155.86   14.34
 -11  -9   3  163.18   13.18
  -9  -9  -3  172.72   13.86
  -9  -9   3  202.20   15.20
  -9   9  -3  146.79   12.64
  -9   9   3  174.87   12.06
  -9  -9  -3  173.46   14.09
  -7  -9   3    3.16    2.08
  -7  -9  -3    9.88    3.07
  -7   9   3    5.43    2.23
  -7   9  -3   11.55    3.50
  -7  -9  -3   12.94    3.93
  -5  -9  -3   95.46    8.17
  -5   9  -3  103.03    9.40
  -5   9   3   70.76    7.05
  -5  -9  -3   86.69    8.73
  -3  -9  -3  353.55   13.91
  -3   9   3  286.10   13.58
  -3   9  -3  338.83   15.68
  -3  -9  -3  356.89   16.22
  -1   9   3   26.21    3.12
  -1   9  -3   48.39    5.66
  -1   9   3   28.17    4.44
  -1   9   3   24.47    3.69
  -1  -9   3   38.35    5.02
   1   9   3   64.22    5.35
   1  -9   3   53.78    6.05
   1   9  -3   33.09    4.41
   1   9   3   65.92    6.73
   1   9   3   64.18    6.48
   3   9  -3  308.19   15.09
   3   9  -3  301.64   13.28
   3  -9   3  342.51   16.07
   3   9   3  347.39   16.07
   3  -9  -3  275.66   13.40
   3   9  -3  310.14   14.67
   5   9  -3   63.20    7.59
   5  -9   3  111.50    9.84
   5   9  -3   68.68    6.40
   5   9   3   99.79    9.14
   5   9  -3   77.19    7.59
   5  -9  -3   75.78    7.39
   7   9   3   13.84    3.98
   7   9  -3    6.34    2.61
   7   9  -3    6.72    2.22
   7  -9   3   13.80    4.08
   7   9  -3    6.02    2.18
   7   9  -3    7.02    2.34
   7  -9  -3    7.17    2.55
   9   9   3  163.54    9.97
   9   9  -3  206.57   11.91
   9  -9  -3  172.45   12.08
   9   9  -3  213.33   13.75
   9   9  -3  216.72   12.46
  11   9   3  141.91    9.75
  11   9  -3  163.36   10.65
  11  -9  -3  151.74   11.89
  11   9  -3  171.82   11.65
  13   9  -3   73.34    7.14
 -16  10  -3  160.54   16.71
 -16  10   3  143.56   16.09
 -16 -10  -3  142.85   16.76
 -14  10   3  125.03   14.18
 -14  10  -3  111.25   13.06
 -14 -10   3   90.85   12.77
 -14 -10  -3   95.91   13.35
 -14  10  -3  124.64   14.24
 -14  10   3  109.24   11.27
 -14 -10   3   83.84   10.80
 -14 -10  -3  106.95   13.70
 -12  10   3  440.76   19.67
 -12 -10  -3  379.03   24.19
 -12 -10   3  397.66   24.71
 -12  10  -3  448.22   25.07
 -12  10   3  432.29   21.29
 -12 -10  -3  417.78   24.95
 -10 -10  -3  349.77   21.14
 -10 -10   3  350.76   21.60
 -10  10  -3  398.80   22.37
 -10  10   3  406.93   19.48
 -10 -10  -3  367.32   21.68
  -8 -10   3  353.62   19.86
  -8 -10  -3  403.13   20.37
  -8  10  -3  356.72   19.50
  -8  10   3  304.90   16.00
  -8 -10  -3  390.94   20.85
  -6 -10  -3 1217.77   31.78
  -6 -10   3 1292.10   35.23
  -6  10   3 1325.80   32.05
  -6  10  -3 1215.24   34.18
  -6 -10  -3 1189.03   33.41
  -4 -10  -3  304.85   14.35
  -4  10   3  357.04   16.29
  -4  10  -3  344.52   17.09
  -4 -10  -3  315.19   16.54
  -2  10  -3 1087.04   29.06
  -2  10   3 1061.40   27.53
  -2 -10   3  936.59   25.43
  -2 -10  -3  975.94   27.06
  -2  10   3 1055.14   26.00
   0  10   3  375.83   12.98
   0  10  -3  405.99   16.98
   0  10   3  413.45   17.71
   0 -10   3  386.43   16.80
   0  10   3  405.56   16.62
   2  10  -3  984.05   27.72
   2  10  -3  976.77   25.45
   2 -10   3 1137.90   29.66
   2  10   3 1035.55   27.65
   4  10  -3  314.04   16.26
   4 -10   3  351.57   17.53
   4  10  -3  298.98   14.00
   4 -10  -3  368.69   16.69
   4  10   3  321.14   16.62
   4  10  -3  321.84   15.96
   6  10  -3 1358.47   35.35
   6 -10   3 1299.70   35.57
   6  10  -3 1340.66   30.33
   6 -10  -3 1382.45   33.99
   6  10   3 1284.07   34.82
   6  10  -3 1344.30   33.71
   8  10  -3  339.43   15.75
   8  10  -3  355.86   16.55
   8  10  -3  355.13   18.18
   8 -10  -3  302.82   16.26
  10  10   3  330.01   15.18
  10  10  -3  351.57   15.89
  10 -10  -3  408.86   19.72
  10  10  -3  361.39   17.26
  12  10  -3  382.46   16.66
  12  10  -3  400.99   18.94
 -15  11  -3    1.63    2.29
 -15  11   3    2.21    2.75
 -15  11  -3    4.56    3.10
 -15  11  -3    1.22    2.44
 -15 -11  -3   -1.27    2.58
 -13  11   3   10.09    3.18
 -13  11  -3   10.76    3.73
 -13  11   3   14.26    5.37
 -13 -11   3   17.18    5.48
 -13 -11  -3   10.41    3.84
 -13  11  -3   11.89    4.42
 -13  11   3    8.95    3.36
 -13 -11  -3    9.98    3.67
 -11 -11  -3   16.11    5.07
 -11 -11   3   29.89    7.09
 -11  11  -3   20.52    5.64
 -11  11   3   28.63    5.60
 -11 -11  -3   17.14    5.29
  -9 -11  -3   13.41    4.16
  -9 -11   3    8.98    3.55
  -9  11   3   10.22    2.98
  -9  11  -3   20.52    5.12
  -9 -11  -3   16.20    4.66
  -7 -11  -3    7.10    2.91
  -7 -11   3    9.51    3.46
  -7  11  -3   12.34    3.98
  -7  11   3    8.30    2.37
  -7 -11  -3   11.42    3.87
  -5 -11  -3  260.50   14.53
  -5  11   3  272.24   15.15
  -5  11  -3  290.63   16.68
  -5 -11  -3  267.84   16.12
  -3  11  -3  128.61   10.67
  -3  11   3  123.62    9.86
  -3 -11  -3  135.09   10.82
  -3  11   3  120.19    9.16
  -1  11   3   61.87    5.58
  -1  11  -3   89.69    8.52
  -1 -11   3   72.86    7.71
  -1  11   3   64.21    7.18
  -1  11   3   62.00    6.70
   1  11   3  101.59    7.53
   1  11  -3   71.56    7.38
   1 -11   3   89.31    8.67
   1  11   3  104.97    9.50
   1  11   3   98.48    8.92
   3  11  -3  140.06   11.03
   3 -11   3  120.34   10.45
   3  11  -3  133.22    9.84
   3  11   3  145.37   11.17
   3  11  -3  137.61   10.79
   5  11  -3  248.61   15.74
   5 -11   3  287.24   17.01
   5  11  -3  238.42   13.39
   5 -11  -3  278.81   15.50
   5  11   3  270.12   16.13
   5  11  -3  260.46   15.18
   7 -11  -3   10.33    3.21
   7  11  -3   12.71    3.57
   7  11  -3   11.04    3.22
   9  11  -3   10.26    2.56
   9  11   3   15.99    3.37
   9 -11  -3   11.53    3.60
   9  11  -3   11.20    3.45
  11  11  -3   24.31    4.31
  11  11   3   10.53    2.84
  11  11  -3   33.80    5.81
  13  11  -3   11.91    3.34
 -16  12  -3  105.88   14.00
 -14  12  -3  111.87   14.10
 -14  12   3  122.17   14.43
 -14 -12  -3  111.78   14.62
 -14 -12   3  104.61   14.25
 -14  12  -3  115.52   14.18
 -14  12   3  130.49   13.01
 -14 -12  -3  103.09   13.59
 -12 -12  -3  277.77   21.06
 -12 -12   3  296.61   22.36
 -12  12   3  313.73   19.32
 -12  12  -3  318.41   22.27
 -12 -12  -3  302.48   21.83
 -10 -12   3  277.29   20.07
 -10 -12  -3  271.46   18.91
 -10  12   3  267.82   17.25
 -10  12  -3  249.06   18.36
 -10 -12  -3  272.18   19.36
  -8 -12   3  242.28   17.49
  -8 -12  -3  227.77   16.19
  -8  12  -3  258.58   17.82
  -8  12   3  296.19   17.18
  -8 -12  -3  231.88   17.12
  -6 -12  -3  716.39   26.02
  -6  12   3  695.40   25.42
  -6  12  -3  614.33   25.92
  -6 -12  -3  743.29   28.61
  -4 -12  -3  621.61   21.88
  -4  12  -3  769.03   27.52
  -4  12   3  757.15   26.15
  -4 -12  -3  634.78   24.89
  -2  12  -3 1203.34   33.60
  -2  12   3 1135.82   31.34
  -2 -12   3 1174.54   31.11
  -2  12   3 1148.19   30.17
   0  12   3  133.52    8.74
   0  12  -3  129.99   10.67
   0 -12   3  148.35   11.54
   0  12   3  147.96   11.06
   0  12   3  143.77   11.42
   2  12   3 1177.29   28.27
   2  12  -3 1202.38   33.05
   2 -12   3 1241.48   34.01
   2  12  -3 1126.59   30.44
   2  12   3 1183.13   33.26
   2  12   3 1269.00   33.70
   2  12  -3 1219.81   33.26
   4  12  -3  632.57   24.74
   4  12  -3  608.28   22.24
   4  12   3  658.00   25.43
   4 -12  -3  782.68   26.58
   4  12  -3  639.85   24.64
   6  12  -3  805.60   25.89
   6 -12  -3  754.23   27.12
   8  12  -3  256.01   15.24
  10  12  -3  290.55   15.46
  10  12   3  282.21    7.80
  10  12   3  253.70   14.50
  10  12  -3  309.34   17.70
  12  12  -3  294.99   15.34
  12  12  -3  304.39   18.02
 -15  13   3    4.46    4.39
 -15  13  -3    2.69    2.88
 -15  13  -3   -0.48    3.26
 -13 -13   3    5.46    3.50
 -13 -13  -3   10.11    4.23
 -13  13   3    8.03    3.37
 -13  13  -3    8.60    3.77
 -13 -13  -3    3.11    3.00
 -11 -13   3    0.98    2.13
 -11 -13  -3    2.66    2.60
 -11  13   3    2.29    2.47
 -11  13  -3   -1.94    1.87
 -11 -13  -3    3.63    1.83
  -9 -13  -3   27.42    6.02
  -9 -13   3   23.19    5.80
  -9  13   3   20.05    4.87
  -9  13  -3   17.00    5.32
  -9 -13  -3   25.51    6.11
  -7 -13  -3   46.45    7.10
  -7  13  -3   67.39    9.25
  -7  13   3   49.48    7.36
  -7 -13  -3   45.97    7.81
  -5 -13  -3   75.75    8.37
  -5  13   3   53.39    7.36
  -5  13  -3   81.91    9.58
  -5 -13  -3   76.15    9.28
  -3  13  -3   64.71    8.32
  -3  13   3   55.85    7.47
  -3  13   3   55.85    7.06
  -1  13   3  132.08    9.10
  -1  13   3  138.45   11.45
  -1  13  -3  106.28   10.14
  -1  13   3  141.83   11.17
  -1 -13   3  152.01   12.00
   1  13   3   88.67    7.82
   1  13  -3  148.34   11.97
   1  13  -3  134.36   11.11
   1 -13   3  103.23   10.19
   1  13   3   91.94    9.63
   1  13   3  103.71    9.91
   3  13  -3   76.40    8.21
   3  13   3  100.03   10.12
   5  13  -3   57.87    7.27
   7  13  -3   37.73    5.99
   9  13  -3   21.07    4.20
   9  13  -3   21.70    4.74
  11  13  -3    1.67    2.04
  11  13  -3    0.02    2.20
  13  13  -3    9.74    3.50
 -14  14  -3   50.74    9.63
 -14  14   3   49.99    8.66
 -12 -14   3   91.62   13.06
 -12 -14  -3  100.47   13.33
 -12  14   3   91.65   11.13
 -12  14  -3   98.34   12.89
 -12 -14  -3  110.36   13.88
 -10 -14   3   20.97    6.14
 -10 -14  -3   26.27    6.04
 -10  14   3   12.87    4.53
 -10  14  -3   15.91    4.45
 -10 -14  -3   33.20    7.46
  -8 -14  -3  151.92   13.89
  -8  14   3  191.02   15.04
  -8  14  -3  176.50   15.64
  -8 -14  -3  180.06   15.91
  -6 -14  -3   -0.17    1.31
  -6  14  -3   -0.36    2.42
  -6  14   3    2.06    1.83
  -6 -14  -3    0.32    2.07
  -4  14   3  973.43   32.21
  -4  14  -3 1027.54   34.55
  -4  14   3  978.87   30.29
  -2  14   3   73.79    8.79
  -2  14  -3   96.25   10.17
  -2  14   3   88.39    9.30
   0  14   3  366.47   16.15
   0  14  -3  375.92   19.57
   0  14   3  368.62   19.70
   0  14   3  375.71   19.25
   2  14   3  107.64    9.32
   2  14  -3  100.56   10.04
   2  14   3  114.25   11.34
   4  14  -3  932.54   30.29
   4  14   3  991.53   33.72
   6  14  -3    1.10    1.13
   8  14  -3  182.91   13.83
  10  14  -3   17.60    4.26
  10  14  -3   14.41    4.30
  12  14  -3   96.40   10.94
 -13 -15  -3   25.30    7.14
 -13  15  -3   24.35    6.65
 -13  15   3   19.99    5.48
 -13 -15  -3   31.58    7.96
 -11 -15  -3   39.45    8.41
 -11  15  -3   38.86    8.10
 -11  15   3   50.94    8.74
 -11 -15  -3   42.20    8.59
  -9 -15  -3    9.97    3.75
  -9  15  -3    9.34    4.26
  -9  15   3   11.87    3.71
  -9 -15  -3   13.40    4.74
  -7 -15  -3   29.33    6.27
  -7  15  -3   50.57    8.52
  -7  15   3   46.19    7.90
  -7 -15  -3   36.61    7.28
  -5  15   3  124.21   12.00
  -5  15  -3  117.96   12.38
  -3  15  -3    8.46    3.34
  -3  15   3    2.05    1.92
  -1  15   3   34.99    5.12
  -1  15  -3   32.46    6.11
  -1  15   3   33.53    6.35
   1  15   3   25.19    4.62
   1  15  -3   28.45    5.49
   1  15   3   27.57    6.03
   3  15   3    9.51    3.83
   3  15  -3    1.93    1.21
   5  15  -3  100.69   10.47
   5  15   3  113.67   11.97
   7  15   3   35.63    7.06
   7  15  -3   32.23    6.23
   9  15  -3    6.53    2.46
  11  15  -3   48.25    6.75
  11  15  -3   44.56    7.69
 -14  16   3   -3.28    3.46
 -12 -16  -3    7.44    4.01
 -12  16   3   -0.53    2.22
 -12  16  -3   -0.02    3.05
 -12 -16  -3    4.02    2.80
 -10 -16  -3    4.65    2.76
 -10  16   3    0.56    1.71
 -10  16  -3    0.05    2.04
 -10 -16  -3    3.67    3.15
  -8 -16  -3   30.37    6.57
  -8  16  -3   44.90    8.30
  -8  16   3   32.61    6.69
  -8 -16  -3   36.53    7.62
  -6  16  -3   23.02    5.86
  -6  16   3   28.87    6.31
  -4  16   3   23.57    5.45
  -4  16  -3   31.27    6.66
  -2  16   3   38.37    5.87
  -2  16  -3   26.33    5.85
  -2  16   3   36.64    6.82
   0  16   3  204.21   13.14
   0  16   3  232.72   16.94
   0  16  -3  215.07   16.08
   2  16   3   27.07    5.14
   2  16  -3   46.00    7.46
   2  16   3   31.45    6.35
   4  16  -3   55.96    8.11
   4  16   3   46.40    7.87
   6  16   3   33.56    6.80
   6  16  -3   41.65    7.14
   8  16  -3   31.61    6.45
   8  16   3   24.54    6.21
  10  16  -3    3.62    2.18
  10  16  -3    2.00    1.34
  12  16  -3    3.79    2.41
 -13  17   3    6.56    4.01
 -11 -17  -3   63.00   10.54
 -11  17  -3   65.24   12.06
 -11  17   3   70.37   10.72
 -11 -17  -3   68.39   11.52
  -9 -17  -3   16.76    4.87
  -9  17   3   24.25    6.07
  -9  17  -3   32.64    7.85
  -7  17  -3   -0.07    2.27
  -7  17   3    0.43    2.45
  -5  17   3  132.00   13.60
  -5  17  -3  151.70   14.94
  -3  17   3   80.33   10.54
  -3  17  -3   64.40    9.68
  -1  17   3   55.55    7.19
  -1  17  -3   61.68    9.18
  -1  17   3   52.87    8.23
   1  17   3   71.16    8.29
   1  17   3   80.60   10.25
   1  17  -3   66.70    9.25
   3  17  -3   89.90   10.58
   3  17   3   61.54    9.16
   5  17  -3  141.33   13.48
   5  17   3  165.62   15.84
   7  17   3    3.03    2.69
   7  17  -3   -2.02    2.45
   9  17  -3   17.94    4.93
   9  17   3   18.02    5.48
  11  17  -3   65.11    9.55
  11  17   3   70.61   11.32
 -12  18   3   11.15    4.53
 -10  18   3   51.06    9.33
 -10  18  -3   68.16   11.06
  -8  18   3  261.30   20.32
  -8  18  -3  283.61   22.45
  -6  18  -3   50.38    9.24
  -6  18   3   60.60    9.80
  -4  18  -3  178.57   16.60
  -4  18   3  150.81   15.05
  -2  18   3  176.65   13.02
  -2  18  -3  194.39   16.90
  -2  18   3  185.28   16.31
   0  18   3  382.89   23.53
   0  18  -3  395.74   23.57
   2  18  -3  189.81   16.16
   2  18   3  193.77   16.99
   4  18  -3  124.70   12.99
   4  18   3  151.07   15.43
   6  18  -3   47.11    7.96
   6  18   3   54.89    9.71
   8  18  -3  247.62   18.74
   8  18   3  259.22   21.11
  10  18  -3   55.37    8.18
  10  18   3   51.28    9.34
  10  18  -3   50.97    8.75
  12  18  -3   13.13    4.64
 -11  19   3    2.57    1.81
  -9  19  -3    4.24    3.99
  -9  19   3    1.91    2.31
  -7  19   3    4.36    3.84
  -7  19  -3    2.32    3.48
  -5  19   3   -2.24    2.58
  -5  19  -3   -0.92    2.09
  -3  19  -3   18.55    5.39
  -3  19   3   31.07    7.19
  -1  19  -3    5.18    3.53
  -1  19   3    8.11    4.01
   1  19  -3    5.29    2.82
   1  19   3    6.64    2.81
   3  19  -3   30.34    6.72
   3  19   3   20.95    5.96
   5  19  -3   -0.88    1.84
   5  19   3    0.18    1.90
   7  19  -3    5.00    3.04
   7  19   3    5.67    3.07
   9  19  -3    0.75    1.63
   9  19   3   -2.46    3.29
  11  19  -3    4.94    4.27
 -10  20   3  192.63   18.79
  -8  20   3  189.49   18.42
  -8  20  -3  223.78   20.93
  -6  20   3  163.86   16.70
  -6  20  -3  169.62   17.59
  -4  20   3  184.70   17.83
  -4  20  -3  187.99   18.03
  -2  20  -3  277.32   21.53
  -2  20   3  263.90   20.66
   0  20   3  761.37   35.36
   0  20  -3  765.97   35.11
   2  20   3  269.87   21.27
   2  20  -3  252.68   20.08
   4  20  -3  201.01   17.80
   4  20   3  213.33   19.22
   6  20  -3  126.50   14.19
   6  20   3  131.03   15.47
   8  20  -3  187.36   17.46
   8  20   3  213.78   20.53
  10  20  -3  185.81   17.54
  -7  21   3    2.86    2.43
  -5  21  -3   12.51    4.96
  -5  21   3    4.16    2.47
  -3  21  -3   14.12    5.12
  -3  21   3   20.95    6.07
  -1  21  -3   28.98    7.03
  -1  21   3   27.24    6.82
   1  21  -3   28.10    6.71
   1  21   3   32.13    7.33
   3  21  -3   10.68    4.50
   3  21   3   12.63    5.31
   5  21  -3    4.90    3.50
   5  21   3    9.85    4.06
   7  21  -3    7.43    3.88
   7  21   3    1.06    3.65
   9  21  -3    3.85    2.54
  -6  22   3   35.31    8.38
  -4  22   3   21.16    6.41
  -4  22  -3   22.45    7.09
  -2  22  -3   45.29    9.05
  -2  22   3   56.93   10.60
   0  22  -3    2.97    2.59
   0  22   3    2.18    2.96
   2  22  -3   66.17   11.00
   2  22   3   60.88   10.57
   4  22  -3   16.04    5.50
   4  22   3   24.23    6.51
   6  22  -3   40.89    8.70
   8  22  -3   72.94   11.75
  -1  23  -3   95.31   13.84
   1  23  -3   80.18   12.42
   3  23  -3   27.81    7.72
   5  23  -3   72.48   12.28
 -18   0   4    5.75    2.29
 -16   0   4   33.33    7.20
 -16   0  -4   29.84    7.15
 -14   0  -4   14.10    4.63
 -14   0   4    7.22    3.68
 -14   0   4    7.97    2.17
 -12   0   4   60.66    7.16
 -12   0   4   65.30    8.62
 -12   0  -4  103.77    6.75
 -12   0   4   65.41    6.34
 -12   0  -4  102.93   11.14
 -10   0   4  254.38   13.79
 -10   0   4  267.14   16.01
 -10   0  -4  295.61    7.25
 -10   0  -4  308.60    9.95
 -10   0  -4  288.49   17.02
 -10   0   4  259.76   10.85
  -8   0   4    5.11    1.73
  -8   0  -4    0.58    0.54
  -8   0   4    6.36    2.43
  -8   0  -4    0.83    1.55
  -8   0   4    7.77    1.68
  -6   0   4    3.37    1.75
  -6   0  -4    7.39    0.89
  -6   0  -4    5.99    1.74
  -6   0   4    8.70    2.28
  -6   0   4   24.86    2.08
  -4   0   4   12.26    2.70
  -4   0   4   11.62    2.49
  -4   0   4   10.14    1.99
  -2   0   4 4771.06   42.34
  -2   0   4 4578.31   23.10
  -2   0   4 4638.53   43.43
   0   0  -4 4359.69   31.85
   0   0   4 4332.89   33.01
   0   0  -4 4226.99   33.63
   0   0   4 4400.95   32.98
   0   0   4 4365.20   37.99
   0   0  -4 4358.88   37.78
   2   0  -4 4727.83   42.20
   2   0  -4 4699.71   31.65
   2   0  -4 4732.16   43.22
   4   0  -4    7.43    2.58
   4   0  -4   12.60    2.55
   6   0  -4    1.50    0.97
   6   0  -4    2.84    1.47
   6   0   4    6.51    1.80
   8   0  -4    6.65    1.31
   8   0   4   -0.93    1.46
  10   0  -4  258.02    9.58
  12   0  -4   65.52    5.60
 -17   1  -4   11.97    4.83
 -17  -1   4    6.61    2.83
 -17   1   4    6.96    3.50
 -17  -1  -4    3.01    1.64
 -15  -1   4  110.06   12.79
 -15   1   4  158.36   15.07
 -15  -1  -4  111.08   13.14
 -15   1  -4  170.75   16.20
 -13  -1   4    2.35    1.58
 -13   1   4    3.33    2.07
 -13  -1   4    4.96    3.20
 -13   1  -4    9.78    2.53
 -13   1  -4    5.53    3.39
 -13   1   4    8.19    3.72
 -13  -1  -4    0.57    1.48
 -13   1   4    4.56    1.81
 -13  -1   4    4.64    1.74
 -11   1   4  170.45   11.96
 -11  -1   4  163.18   11.21
 -11   1  -4  212.98    9.45
 -11   1   4  174.06   13.65
 -11   1  -4  210.00    7.83
 -11  -1   4  164.07   13.20
 -11   1  -4  208.08   14.80
 -11   1   4  186.48    9.77
 -11  -1  -4  194.49   14.55
 -11  -1   4  175.59    9.96
  -9   1   4   67.72    7.13
  -9  -1   4   49.31    5.87
  -9   1  -4   86.13    8.87
  -9   1   4   64.04    7.50
  -9   1  -4   83.79    5.09
  -9  -1   4   52.86    6.90
  -9  -1  -4   70.62    8.19
  -9   1   4   62.41    4.81
  -9  -1   4   53.41    4.78
  -7   1   4  384.39   15.56
  -7  -1   4  317.75   13.87
  -7  -1  -4  308.90    6.11
  -7   1   4  388.00   16.95
  -7   1  -4  404.58   17.28
  -7  -1   4  330.37   15.33
  -7   1  -4  375.61    8.78
  -7   1   4  405.38    9.41
  -7  -1   4  329.84    9.58
  -7  -1  -4  312.46   15.28
  -5   1  -4  722.70   20.93
  -5  -1   4  553.85   17.90
  -5  -1  -4  593.13   18.55
  -5   1   4  657.87   19.78
  -5  -1  -4  591.22   10.15
  -5  -1   4  566.06   16.17
  -5   1   4  658.11   18.81
  -5  -1   4  548.34   16.78
  -5   1   4  630.00    7.78
  -3   1   4  528.17   10.92
  -3   1   4  519.75   15.44
  -3  -1   4  716.39   15.05
  -3  -1   4  711.25   17.49
  -3  -1  -4  622.97   11.82
  -3  -1  -4  622.05   16.80
  -3   1   4  537.46   15.38
  -3   1  -4  459.95   14.46
  -3  -1   4  699.81   17.94
  -3   1   4  527.98    7.23
  -1  -1   4   19.69    2.65
  -1  -1  -4    5.19    1.55
  -1   1   4   19.57    2.68
  -1   1   4   19.08    2.63
  -1   1  -4    3.14    1.23
  -1  -1   4   19.38    2.61
  -1  -1  -4    5.07    1.42
  -1   1  -4    3.14    1.35
  -1  -1   4   20.11    1.98
   1   1  -4   19.41    2.62
   1   1   4    3.54    1.04
   1   1   4    3.85    1.21
   1   1  -4   19.62    3.08
   1  -1  -4   18.27    2.77
   1  -1  -4   17.39    1.55
   1  -1   4    2.97    1.17
   1  -1  -4   18.82    1.81
   3   1   4  633.61   16.76
   3   1  -4  715.15   18.04
   3  -1  -4  546.56   15.67
   3   1  -4  736.01   18.01
   3   1  -4  696.30    9.62
   5   1  -4  533.91   17.82
   5   1   4  607.57   19.01
   5   1  -4  569.55   16.96
   5  -1  -4  681.11   18.79
   5  -1   4  722.91   20.70
   5   1   4  599.71   19.04
   5  -1  -4  666.23    7.90
   5   1  -4  543.88    9.79
   7   1  -4  314.21   15.09
   7   1  -4  322.01    9.59
   7   1   4  323.83   15.62
   7  -1   4  392.77   17.11
   7  -1  -4  388.93    8.75
   7   1  -4  311.89    6.82
   7   1  -4  325.05   13.82
   9   1  -4   49.31    5.99
   9   1   4   75.50    8.22
   9  -1   4   82.11    8.50
   9  -1  -4   63.57    4.51
   9   1  -4   49.89    3.74
  11  -1  -4  177.01    8.80
  11   1  -4  161.08    8.04
  13  -1  -4    3.82    1.49
 -18   2   4    2.58    2.34
 -18   2  -4   -1.73    3.07
 -16   2  -4    9.05    3.87
 -16  -2   4   22.14    5.61
 -16   2   4   12.79    5.09
 -16  -2  -4   15.04    4.96
 -14   2  -4    4.76    2.36
 -14   2  -4    4.94    1.63
 -14  -2   4    6.37    3.07
 -14   2   4    1.57    1.77
 -14  -2  -4    4.67    2.40
 -14  -2   4    7.36    2.62
 -14   2   4    7.91    2.69
 -12   2   4   13.88    3.98
 -12  -2   4   15.42    3.90
 -12   2  -4   11.85    2.24
 -12  -2  -4   17.21    4.71
 -12   2   4   16.54    4.54
 -12  -2   4   14.88    4.06
 -12   2  -4    8.92    2.96
 -12   2  -4   11.98    2.57
 -12  -2   4   11.80    2.72
 -12   2   4   13.68    2.68
 -10  -2   4    7.14    2.16
 -10   2   4   11.02    3.02
 -10  -2  -4   11.93    3.95
 -10   2  -4   12.86    2.49
 -10   2   4   12.47    3.84
 -10   2  -4   12.87    3.96
 -10  -2   4    7.82    2.96
 -10  -2   4    8.81    2.31
 -10   2   4   10.01    2.08
  -8  -2   4   42.94    5.81
  -8   2   4   40.19    5.44
  -8  -2   4   37.49    4.95
  -8   2   4   40.14    5.79
  -8   2  -4   46.98    6.13
  -8  -2   4   38.15    5.59
  -8   2  -4   48.54    3.90
  -8  -2   4   40.03    3.96
  -8  -2  -4   54.31    6.81
  -8   2   4   38.45    3.33
  -6   2  -4  141.73    9.91
  -6  -2   4  269.22   13.33
  -6   2   4  215.02   12.11
  -6  -2   4  273.26   12.62
  -6   2   4  219.50   11.49
  -6  -2   4  264.85   12.08
  -6   2  -4  140.10    9.86
  -6   2   4  213.27    6.61
  -6  -2   4  266.17    8.74
  -6   2   4  217.16    5.57
  -6  -2  -4  182.48   11.28
  -4   2   4 1134.58   24.72
  -4  -2   4 1113.33   24.54
  -4   2   4 1181.08   24.50
  -4  -2   4 1129.86   21.83
  -4  -2  -4 1113.25   14.01
  -4  -2   4 1129.23   23.48
  -4   2  -4 1188.28   25.46
  -4   2   4 1151.53   13.42
  -4  -2  -4 1153.05   24.80
  -2  -2   4    2.88    1.68
  -2   2   4    5.43    2.00
  -2  -2  -4    1.40    1.39
  -2   2   4    7.05    0.95
  -2   2   4    5.89    0.92
  -2   2   4    6.53    1.89
  -2  -2  -4    2.18    1.14
  -2   2  -4   10.25    2.26
  -2  -2   4    4.11    0.95
   0   2   4  238.41    7.70
   0   2  -4  246.17    8.68
   0   2   4  243.80    8.29
   0   2  -4  246.88    9.62
   0  -2  -4  263.08    9.35
   0   2   4  252.11    9.17
   0   2  -4  247.71    8.32
   0  -2   4  247.38    8.25
   0  -2  -4  250.08    7.86
   2   2   4    1.40    0.71
   2   2   4    2.43    1.61
   2   2  -4    3.13    1.22
   2   2   4    2.18    1.11
   2   2  -4    2.10    1.08
   2  -2  -4    8.70    2.15
   2   2  -4    2.89    1.41
   2   2  -4    2.26    0.73
   2  -2   4    9.77    2.16
   2  -2  -4    6.79    0.96
   4   2   4 1144.20   24.63
   4   2  -4 1171.66   24.90
   4  -2  -4 1178.23   24.49
   4   2  -4 1125.31   23.26
   4  -2   4 1149.78   24.78
   4   2  -4 1142.41   15.47
   6   2   4  183.63   11.22
   6   2  -4  270.70   13.59
   6   2  -4  280.60   12.40
   6  -2  -4  217.13    6.63
   6   2  -4  262.09    5.43
   6  -2   4  136.30    9.50
   6   2  -4  271.59    8.72
   6   2  -4  277.56    5.60
   8   2  -4   39.67    4.03
   8   2   4   46.97    6.26
   8   2  -4   35.82    5.48
   8   2   4   54.18    6.68
   8   2  -4   38.45    2.95
   8  -2  -4   35.18    3.27
   8  -2   4   46.04    6.34
   8   2  -4   38.19    4.89
  10   2  -4    8.70    2.20
  10   2  -4   12.92    3.74
  10   2  -4    9.42    3.05
  10  -2  -4   13.49    2.33
  10   2  -4    8.25    1.61
  12   2  -4   15.03    2.44
  12  -2  -4   14.40    2.70
 -17  -3   4   62.56   11.06
 -17   3   4   79.32   11.63
 -17   3  -4   76.32   11.79
 -17  -3  -4   56.10   10.36
 -15  -3   4  404.37   26.24
 -15   3   4  401.38   24.39
 -15  -3   4  404.49   24.33
 -15   3  -4  392.23   24.59
 -15  -3   4  416.34   19.50
 -15  -3  -4  406.84   25.39
 -13  -3   4   67.46   10.20
 -13   3   4  112.82   12.11
 -13   3  -4   97.78   11.08
 -13   3  -4  105.69    8.03
 -13  -3   4   65.47    9.34
 -13  -3   4   70.64    7.24
 -13  -3  -4   74.91   10.17
 -13   3   4  120.32    8.72
 -11   3   4  442.19   19.90
 -11  -3   4  451.22   22.52
 -11   3   4  477.61   22.90
 -11   3  -4  437.85   22.08
 -11  -3   4  418.08   21.06
 -11   3  -4  448.52   15.22
 -11   3   4  475.16   15.32
 -11  -3  -4  420.44   21.71
 -11  -3   4  443.21   16.66
  -9  -3   4  123.62   10.57
  -9   3   4  137.32   11.47
  -9   3  -4  123.45   10.72
  -9  -3   4  127.63   10.79
  -9   3   4  139.76   10.59
  -9  -3   4  119.13    8.90
  -9   3   4  126.05    7.13
  -9   3   4  127.73    6.77
  -9  -3  -4  117.76   10.56
  -9  -3   4  129.64    8.16
  -7   3  -4 1560.18   34.58
  -7   3   4 1768.19   36.49
  -7  -3   4 1566.26   34.30
  -7   3   4 1720.51   34.18
  -7  -3   4 1614.87   33.88
  -7  -3   4 1513.21   29.69
  -7   3  -4 1539.12   34.64
  -7   3   4 1666.58   22.55
  -7   3   4 1676.22   19.19
  -7  -3   4 1585.96   24.96
  -7  -3  -4 1454.22   33.80
  -5   3   4 2271.39   16.34
  -5   3   4 2443.22   38.62
  -5  -3   4 2397.51   38.58
  -5   3   4 2362.45   37.93
  -5  -3   4 2376.67   35.78
  -5   3  -4 2336.24   38.21
  -5   3   4 2359.17   23.83
  -5  -3  -4 2427.62   38.97
  -3  -3   4 2191.57   33.24
  -3   3   4 2126.98   32.71
  -3   3  -4 2143.85   32.44
  -3   3   4 2087.38   15.11
  -3  -3  -4 2144.12   32.13
  -3   3   4 2139.49   22.30
  -3  -3   4 2102.18   19.00
  -1  -3  -4  486.34   12.35
  -1   3   4  461.36   13.65
  -1   3  -4  414.42   12.39
  -1  -3   4  501.57   11.41
  -1  -3  -4  456.39   12.40
  -1   3   4  440.49    9.77
   1   3  -4  530.03   14.35
   1  -3  -4  456.54   13.65
   1   3   4  481.08   12.25
   1   3  -4  495.51   11.21
   1  -3   4  417.76   12.37
   1  -3  -4  448.01    9.78
   1   3   4  465.68   12.69
   3   3   4 2094.35   31.36
   3   3  -4 2107.68   32.14
   3   3  -4 2101.39   29.86
   3   3  -4 2095.38   31.41
   3   3   4 2060.67   21.59
   3   3  -4 2114.32   18.62
   3  -3   4 2071.50   31.92
   5   3   4 2425.95   38.69
   5   3  -4 2410.51   38.48
   5   3  -4 2478.27   35.69
   5   3  -4 2391.45   18.49
   5  -3   4 2298.13   38.29
   5  -3  -4 2372.70   24.05
   5   3  -4 2420.76   26.82
   7   3   4 1505.51   34.56
   7   3  -4 1550.58   34.08
   7   3  -4 1589.82   30.47
   7  -3   4 1619.78   35.50
   7   3  -4 1566.52   18.17
   7  -3  -4 1647.97   22.51
   7   3  -4 1545.68   24.38
   9   3  -4  125.56   10.56
   9   3  -4  125.26    8.01
   9   3   4  123.54   10.82
   9   3  -4  129.35    6.35
   9   3   4  120.23   10.59
   9  -3   4  123.66   10.66
   9  -3  -4  127.34    7.16
   9   3  -4  122.79    9.08
  11   3  -4  435.08   16.70
  11  -3  -4  470.17   15.64
  11   3  -4  426.44   13.42
 -18   4   4    5.82    3.75
 -16  -4   4    3.91    2.56
 -16   4  -4    2.17    2.09
 -16   4   4    8.26    4.72
 -16  -4  -4   -0.30    2.17
 -14  -4   4    8.72    4.07
 -14   4  -4   14.26    3.13
 -14   4  -4   11.89    3.39
 -14   4   4    7.77    3.65
 -14   4   4    9.90    2.61
 -14  -4  -4   12.30    4.71
 -14  -4   4   10.49    3.11
 -12  -4   4   20.82    5.14
 -12   4   4   17.70    4.99
 -12   4  -4   27.21    5.86
 -12   4   4   13.69    2.86
 -12   4  -4   30.40    4.36
 -12  -4   4   20.76    5.29
 -12  -4  -4   51.35    8.19
 -12  -4   4   21.76    4.22
 -10  -4   4  100.15    9.99
 -10   4  -4   72.03    8.75
 -10   4   4   98.10   10.02
 -10   4   4   95.36    9.26
 -10  -4   4   97.21   10.01
 -10   4   4   95.15    6.99
 -10   4   4  103.70    6.79
 -10  -4  -4   72.90    8.67
 -10  -4   4  108.55    8.28
  -8   4   4   64.38    4.51
  -8  -4   4   78.72    8.21
  -8   4   4   61.41    7.43
  -8   4  -4  108.27    9.86
  -8   4   4   63.85    7.16
  -8  -4   4   67.46    7.60
  -8   4  -4  103.50    9.57
  -8   4   4   63.31    5.13
  -8  -4  -4  111.43    9.90
  -8  -4   4   85.30    6.58
  -6  -4   4   75.62    7.37
  -6   4   4   74.32    7.69
  -6  -4   4   76.83    7.24
  -6   4   4   77.55    7.18
  -6   4  -4  104.54    8.71
  -6   4   4   73.94    4.95
  -6  -4  -4   98.65    8.45
  -4  -4   4 1712.28   30.16
  -4   4   4 1807.81   32.24
  -4   4  -4 1883.85   33.49
  -4   4   4 1790.81   23.18
  -4  -4  -4 1742.69   31.52
  -4   4   4 1766.28   17.22
  -2   4   4  230.40   10.49
  -2  -4   4  234.77    7.92
  -2   4  -4  226.09   10.24
  -2   4   4  234.07    8.64
  -2  -4  -4  237.03   10.27
  -2   4   4  223.55    6.94
   0   4   4   74.87    5.46
   0  -4  -4   74.53    2.60
   0   4  -4   72.27    5.14
   0  -4   4   77.75    5.39
   0  -4  -4   73.45    4.95
   0   4   4   71.34    4.74
   2   4  -4  246.79   10.89
   2   4  -4  240.46   10.36
   2   4   4  233.45    8.32
   2   4  -4  249.99    8.10
   2  -4   4  210.01    9.91
   2   4   4  220.46   10.01
   4   4  -4 1698.48   31.55
   4   4   4 1743.78   31.71
   4   4   4 1763.17   18.86
   4   4  -4 1721.43   30.51
   4   4  -4 1705.11   29.48
   4   4  -4 1704.77   19.27
   4  -4   4 1925.68   33.83
   4   4  -4 1698.95   24.34
   6   4   4  108.09    8.92
   6   4  -4   67.92    7.06
   6   4   4   95.90    4.01
   6   4  -4   70.54    6.33
   6  -4   4  109.28    8.97
   6   4  -4   78.18    4.34
   6   4  -4   72.57    5.46
   6  -4  -4   76.07    5.08
   8   4  -4   77.09    8.11
   8   4   4  122.80   10.36
   8   4  -4   78.32    7.02
   8  -4  -4   60.48    5.01
   8  -4   4  109.36    9.82
   8   4  -4   72.02    6.02
  10   4  -4  103.75    8.03
  10   4  -4   98.18    8.37
  10   4  -4   97.50    6.22
  10  -4  -4   87.99    6.73
  12   4  -4   21.20    4.04
  12   4  -4   23.04    3.43
  12  -4  -4   10.55    2.51
 -17   5   4  122.74   14.58
 -17   5  -4  120.68   14.60
 -17  -5  -4  129.58   15.63
 -15  -5   4  152.21   16.20
 -15   5   4  141.67   14.89
 -15   5  -4  125.78   13.85
 -15  -5  -4  151.29   15.75
 -15  -5   4  161.02   12.98
 -13  -5   4  460.35   25.76
 -13   5   4  504.35   25.96
 -13   5  -4  502.22   25.91
 -13   5  -4  557.90   20.27
 -13  -5  -4  501.86   26.65
 -13  -5   4  489.28   20.94
 -13   5   4  527.27   18.45
 -11   5  -4   56.58    8.16
 -11   5   4   69.14    8.75
 -11  -5   4   78.71    9.59
 -11   5   4   61.21    6.15
 -11   5   4   54.61    5.38
 -11  -5   4   62.07    6.91
 -11  -5  -4   77.51    9.52
  -9   5   4  301.43   11.01
  -9   5  -4  322.10   17.65
  -9   5   4  292.74   16.97
  -9   5   4  298.66   16.42
  -9  -5   4  291.15   16.80
  -9   5  -4  315.35   17.85
  -9   5   4  301.91   12.42
  -9  -5   4  293.37   13.55
  -9  -5  -4  284.29   16.95
  -7  -5   4  973.39   27.76
  -7   5   4 1002.67   27.95
  -7   5  -4 1027.53   29.12
  -7   5   4 1027.57   21.00
  -7  -5  -4 1002.16   28.98
  -5  -5   4 2138.98   37.05
  -5   5   4 2081.51   36.84
  -5   5  -4 2020.62   37.53
  -5   5   4 2088.56   28.21
  -5  -5  -4 2083.62   37.87
  -3   5   4 1309.48   27.33
  -3   5   4 1289.12   21.81
  -3   5  -4 1357.75   27.80
  -3  -5  -4 1293.18   26.59
  -3   5   4 1232.12   17.48
  -3  -5   4 1104.24   18.47
  -1   5   4  331.34   12.67
  -1  -5  -4  344.71    8.48
  -1  -5   4  315.47   10.71
  -1   5  -4  367.38   13.02
  -1  -5  -4  344.16   11.99
  -1   5   4  332.46   10.32
   1   5   4  340.22   11.23
   1   5  -4  322.37   10.90
   1  -5   4  353.99   12.79
   1   5   4  328.56   11.79
   1  -5  -4  325.39   10.23
   3   5  -4 1163.89   25.85
   3   5   4 1227.76   18.76
   3   5  -4 1139.16   24.62
   3  -5   4 1378.30   28.00
   3   5  -4 1146.61   18.71
   3   5   4 1211.91   25.92
   5   5  -4 2157.35   37.94
   5   5   4 2063.08   19.03
   5   5  -4 2162.35   34.73
   5  -5   4 2013.09   37.20
   5   5  -4 2123.78   24.56
   5  -5  -4 2041.66   28.05
   5   5  -4 2151.48   30.93
   5   5   4 2093.19   37.68
   7   5   4 1052.81   29.48
   7   5  -4 1013.15   28.41
   7   5   4  964.78   15.53
   7   5  -4 1006.58   24.68
   7  -5   4 1012.28   28.81
   7  -5  -4 1015.51   21.00
   7   5  -4 1039.51   18.58
   7   5  -4  994.86   22.51
   9   5   4  292.58    9.42
   9   5  -4  293.37   16.54
   9   5  -4  297.41   14.16
   9  -5  -4  296.44   12.37
   9   5  -4  284.31   13.25
  11   5  -4   69.59    7.22
  11   5  -4   65.78    5.64
  11  -5  -4   56.30    5.97
  11   5  -4   70.36    7.10
  13   5  -4  482.46   20.61
 -16  -6   4    5.32    3.42
 -16   6   4   -0.22    2.77
 -16   6  -4    8.64    4.28
 -16  -6  -4    2.24    1.69
 -14  -6   4    3.92    2.70
 -14   6   4    6.18    3.68
 -14   6  -4    5.57    2.38
 -14   6  -4    7.48    3.76
 -14  -6  -4   10.06    3.92
 -14  -6   4    5.64    2.80
 -12   6   4    7.42    2.24
 -12   6   4    6.77    2.99
 -12   6  -4    9.33    3.65
 -12   6  -4    9.73    3.25
 -12  -6   4    7.60    2.85
 -12   6   4   10.15    2.77
 -12  -6  -4    5.90    2.71
 -12  -6   4    5.07    2.02
 -10   6   4  174.01    9.20
 -10   6   4  170.62   13.76
 -10   6  -4  204.28   14.81
 -10  -6   4  194.35   14.59
 -10   6  -4  185.53   14.51
 -10   6   4  176.92   10.55
 -10  -6   4  209.39   12.45
 -10  -6  -4  232.89   16.29
  -8   6   4   49.61    6.52
  -8  -6   4   33.55    5.73
  -8   6  -4   57.03    7.33
  -8   6   4   47.80    5.05
  -8  -6  -4   40.02    6.25
  -6   6   4   70.21    7.27
  -6  -6   4   71.03    7.48
  -6   6  -4   92.26    8.59
  -6   6   4   70.97    5.81
  -6  -6  -4   86.48    8.39
  -4   6   4   74.16    5.77
  -4   6  -4   83.59    7.46
  -4  -6  -4  137.02    9.54
  -4   6   4   72.54    4.76
  -2  -6  -4  496.88   12.71
  -2   6  -4  422.98   15.46
  -2   6   4  465.26   14.73
  -2  -6  -4  486.64   16.06
  -2  -6   4  488.67   13.88
  -2   6   4  437.40   12.32
   0   6  -4  890.08   20.30
   0  -6   4  911.86   20.52
   0   6   4  884.31   19.35
   0  -6  -4  904.50   19.75
   2   6  -4  522.64   17.28
   2  -6   4  444.25   15.81
   2   6  -4  505.86   14.15
   2   6   4  483.52   15.85
   4   6  -4  127.75    9.22
   4   6  -4  129.07    9.13
   4   6   4  140.27    6.23
   4  -6   4   88.45    7.88
   4   6  -4  127.84    6.80
   4   6   4  135.62    9.38
   4   6  -4  132.63    8.03
   6   6  -4   64.85    7.02
   6   6   4   90.20    3.60
   6   6  -4   66.04    6.41
   6  -6   4   87.52    8.44
   6   6  -4   64.26    4.84
   6  -6  -4   70.46    5.92
   6   6  -4   62.75    5.81
   6   6   4   87.84    8.28
   8   6   4   41.06    6.46
   8   6  -4   26.91    4.83
   8   6   4   43.14    3.75
   8   6  -4   33.53    4.75
   8  -6   4   63.16    7.70
   8  -6  -4   44.60    4.83
   8   6  -4   28.15    4.22
   8   6  -4   29.05    3.55
  10   6   4  213.96    9.12
  10   6  -4  201.07   12.00
  10  -6  -4  169.62   10.37
  10   6  -4  201.74   12.21
  12   6  -4    4.44    2.01
  12   6  -4    5.31    2.47
  12   6  -4    5.99    1.96
  12  -6  -4    9.63    2.71
 -17   7  -4   18.76    6.25
 -17   7   4   17.87    6.29
 -15  -7   4   17.29    5.88
 -15   7   4    8.59    3.52
 -15   7  -4    6.41    3.31
 -15  -7  -4   12.60    4.77
 -15  -7   4   12.54    3.90
 -13   7  -4  125.26   13.29
 -13   7  -4  119.95   10.15
 -13   7   4  102.73   12.09
 -13  -7   4  159.40   15.66
 -13   7   4  112.96    9.80
 -13  -7   4  147.90   12.27
 -13  -7  -4  170.15   15.79
 -13   7   4  108.45    8.62
 -11   7   4    2.88    2.23
 -11   7   4    4.21    1.93
 -11   7  -4    1.52    1.60
 -11  -7   4    0.04    1.97
 -11   7  -4   -0.89    2.07
 -11   7   4    2.43    1.89
 -11  -7  -4    0.29    1.65
 -11  -7   4    0.96    1.88
  -9  -7   4  325.35   18.51
  -9   7  -4  339.59   18.97
  -9   7   4  324.79   14.44
  -9  -7  -4  352.92   19.64
  -7   7   4    2.50    2.59
  -7  -7   4   10.03    3.25
  -7   7  -4    0.81    1.44
  -7   7   4    2.89    1.47
  -7  -7  -4    6.77    2.74
  -5  -7   4  448.85   18.47
  -5   7  -4  441.99   18.55
  -5   7   4  391.80   14.41
  -5  -7  -4  536.04   20.14
  -3  -7  -4  481.37   14.56
  -3   7   4  342.64   13.19
  -3   7  -4  383.56   16.01
  -3  -7   4  408.84   13.52
  -3  -7  -4  460.36   17.44
  -3   7   4  326.84   11.36
  -1  -7  -4  221.74    8.07
  -1   7   4  288.65    7.57
  -1  -7   4  277.65   11.66
  -1   7  -4  239.29   11.59
  -1   7   4  299.82   12.69
  -1   7   4  304.91   11.66
  -1  -7  -4  223.51   10.85
   1   7  -4  284.88   11.83
   1  -7   4  249.41   12.00
   1   7   4  231.16   11.13
   3   7  -4  411.39   16.47
   3   7  -4  423.75   13.73
   3  -7   4  393.48   16.17
   3   7   4  462.83   17.18
   5   7   4  524.24   12.05
   5   7  -4  458.08   18.63
   5   7  -4  453.11   16.68
   5   7  -4  467.54   19.07
   5  -7   4  471.98   19.39
   5   7  -4  474.84   14.25
   5   7   4  551.66   20.60
   5  -7  -4  392.32   14.48
   5   7  -4  468.97   16.50
   7   7   4    6.78    1.50
   7   7   4    5.91    2.37
   7   7  -4   10.32    3.23
   7   7  -4   10.14    2.86
   7  -7   4    2.53    1.59
   7   7  -4    7.13    1.84
   7  -7  -4    0.89    0.82
   7   7  -4    8.11    2.58
   9   7   4  340.13   11.83
   9   7  -4  332.44   15.55
   9  -7  -4  305.17   14.10
   9   7  -4  339.97   13.33
   9   7  -4  327.09   15.57
  11   7  -4    2.10    1.93
  11   7  -4    1.45    1.29
  11   7   4    0.13    1.29
  11   7  -4    1.25    0.99
  11  -7  -4    2.99    1.92
  13   7  -4  150.76   10.89
 -16   8  -4   -6.23    4.00
 -16   8   4   -0.01    1.88
 -16  -8  -4    6.46    3.96
 -14   8   4    0.39    1.88
 -14   8  -4    1.62    2.98
 -14   8  -4    2.51    2.55
 -14  -8   4    1.39    2.80
 -14   8   4    0.60    1.60
 -14  -8  -4   -0.20    1.83
 -14  -8   4   -0.11    1.77
 -12   8   4    5.24    1.96
 -12   8  -4    1.15    2.58
 -12   8   4    5.30    2.87
 -12  -8   4    5.51    3.62
 -12   8  -4   -0.18    2.07
 -12   8   4    7.97    2.60
 -12  -8  -4    2.39    2.74
 -10  -8   4    1.93    2.32
 -10   8  -4    7.66    2.87
 -10   8   4    2.68    1.65
 -10  -8  -4    4.75    2.88
  -8  -8   4   31.81    5.68
  -8   8  -4   33.74    5.87
  -8   8   4   49.35    5.83
  -8  -8  -4   16.52    4.36
  -6  -8   4   21.43    4.36
  -6   8   4    9.69    2.68
  -6   8  -4   12.51    3.43
  -6  -8  -4   21.52    4.51
  -4  -8  -4  155.47    9.37
  -4   8  -4  197.42   12.50
  -4   8   4  251.54   12.13
  -4   8   4  248.48   10.49
  -4  -8  -4  153.51   10.87
  -2  -8  -4    4.25    1.41
  -2   8  -4    5.88    2.17
  -2  -8  -4    3.81    2.02
  -2   8   4   12.15    2.47
  -2   8   4   12.78    2.82
  -2  -8   4    6.46    2.15
   0   8   4 1162.04   18.60
   0  -8   4 1183.93   26.43
   0   8  -4 1190.92   26.61
   0   8   4 1155.40   25.01
   0  -8  -4 1165.02   25.22
   2   8  -4    5.68    2.34
   2  -8   4    9.82    2.89
   2   8  -4    7.98    2.23
   2   8   4    3.32    1.95
   4   8  -4  207.85   12.47
   4  -8   4  200.76   12.53
   4   8  -4  201.35   10.11
   4   8   4  154.89   10.86
   4   8  -4  197.13   11.28
   6   8  -4   21.30    4.34
   6   8   4   27.14    4.85
   6   8   4   25.77    2.74
   6   8  -4   24.37    4.01
   6  -8   4   16.36    3.98
   6   8  -4   24.70    3.59
   6  -8  -4    8.06    2.26
   6   8  -4   21.91    3.98
   8   8  -4   29.71    4.83
   8   8  -4   32.60    5.63
   8   8   4   18.48    2.97
   8   8  -4   28.95    4.69
   8   8  -4   31.46    4.23
   8  -8  -4   48.23    5.81
  10   8  -4    3.20    1.88
  10   8   4    6.82    1.88
  10   8  -4    2.28    1.70
  10  -8  -4    3.09    1.39
  10   8  -4    1.83    0.77
  12   8  -4    4.65    2.12
  12  -8  -4    8.10    2.87
  12   8  -4    4.10    1.79
 -15  -9   4   73.14   11.69
 -15   9  -4   87.85   12.06
 -15   9   4   78.71   11.65
 -15  -9  -4   66.55   11.10
 -13   9   4   65.39    7.10
 -13   9  -4   59.63    9.53
 -13   9   4   63.28   10.02
 -13  -9   4   39.70    8.26
 -13   9   4   64.17    7.85
 -13   9  -4   52.99    9.19
 -13  -9  -4   37.77    7.85
 -11   9   4   11.37    2.80
 -11  -9   4   18.39    5.28
 -11   9  -4   14.21    4.47
 -11   9   4   13.82    3.79
 -11  -9  -4   24.84    6.08
  -9  -9   4   76.82    9.55
  -9   9  -4   82.17    9.92
  -9   9   4   68.42    7.42
  -9  -9  -4   72.76    9.29
  -7  -9   4  120.49   11.22
  -7  -9  -4  110.01   10.01
  -7   9   4  121.73    9.30
  -7   9  -4  130.35   11.42
  -7  -9  -4  108.86   10.54
  -5  -9  -4 1059.58   27.25
  -5   9   4 1155.30   27.98
  -5   9  -4 1068.31   30.74
  -5  -9  -4 1022.38   30.48
  -3  -9  -4  199.47   10.29
  -3   9  -4  245.77   13.77
  -3   9   4  261.36   13.01
  -3  -9   4  206.78   11.13
  -3   9   4  270.99   12.08
  -3  -9  -4  195.04   11.97
  -1   9   4   44.26    3.83
  -1   9  -4   47.08    5.93
  -1  -9   4   54.44    5.91
  -1   9   4   48.67    5.96
  -1  -9  -4   57.97    6.31
  -1   9   4   44.20    5.15
   1   9  -4   56.43    6.03
   1  -9   4   51.05    6.07
   1   9   4   57.27    6.11
   3   9  -4  223.63   13.38
   3  -9   4  255.01   14.24
   3   9  -4  223.33   11.51
   3   9   4  200.80   12.29
   5   9  -4 1141.80   31.49
   5   9  -4 1143.20   31.83
   5   9  -4 1137.97   25.54
   5  -9   4 1132.03   31.89
   5   9   4 1090.56   30.89
   5  -9  -4 1127.24   27.90
   5   9  -4 1089.36   28.03
   7   9  -4  123.87   10.86
   7   9   4  110.28    5.39
   7   9  -4  114.84    9.27
   7   9  -4  121.15    8.54
   7  -9  -4  125.74    9.79
   7   9  -4  112.37    9.44
   9   9  -4   70.83    7.52
   9   9   4   70.96    6.20
   9   9  -4   76.02    7.24
   9  -9  -4   71.75    7.66
   9   9  -4   77.63    8.31
  11   9  -4   18.34    3.97
  11   9   4   19.61    3.47
  11  -9  -4   12.41    3.47
  11   9  -4   19.14    4.04
  13   9  -4   48.53    6.51
  13   9  -4   50.94    6.35
 -16  10   4    3.51    4.00
 -16  10  -4    0.23    1.76
 -14  10   4   -1.99    2.75
 -14  10  -4    1.54    2.13
 -14 -10  -4    3.31    2.95
 -14 -10   4    1.12    3.73
 -14  10  -4    1.53    2.35
 -14  10   4    1.16    1.40
 -14 -10  -4    6.24    3.99
 -12  10   4    5.82    3.76
 -12  10   4    4.01    1.43
 -12 -10   4    8.78    4.10
 -12 -10  -4    4.77    2.94
 -12  10  -4    1.91    2.49
 -12  10   4    7.38    2.93
 -12 -10  -4    3.33    2.44
 -10 -10  -4    5.74    2.88
 -10 -10   4    2.67    1.49
 -10  10  -4   11.43    4.38
 -10  10   4    8.34    2.65
 -10 -10  -4   11.75    4.26
  -8 -10   4    7.31    3.28
  -8 -10  -4   12.76    3.99
  -8  10   4   10.77    3.24
  -8  10  -4   21.64    5.19
  -8 -10  -4   12.12    3.94
  -6 -10  -4   17.21    3.90
  -6  10  -4   18.26    4.24
  -6  10   4   15.00    3.69
  -6 -10  -4   15.04    4.04
  -4 -10  -4   25.03    4.22
  -4  10  -4   11.82    2.98
  -4 -10  -4   25.80    5.05
  -4  10   4   14.06    3.54
  -4  10   4   10.32    2.75
  -2  10  -4    1.54    1.53
  -2  10   4   -0.20    1.01
  -2  10   4    0.30    1.06
  -2 -10   4    4.90    1.87
  -2 -10  -4    2.51    1.70
   0  10   4   83.09    5.87
   0 -10   4   86.65    7.92
   0  10  -4   88.79    8.11
   0  10   4   85.89    7.63
   0  10   4   86.46    8.29
   2  10  -4    4.87    2.51
   2  10  -4    4.80    2.05
   2 -10   4    0.18    1.13
   2  10   4    2.79    1.69
   4  10  -4   21.99    4.50
   4 -10   4   12.79    3.44
   4  10   4   24.85    4.79
   4  10  -4   25.23    4.60
   4  10  -4   26.97    4.40
   6  10  -4    6.80    2.74
   6  10  -4    7.65    2.44
   6  10  -4    8.71    2.68
   6 -10  -4   10.86    3.07
   8  10   4   11.48    1.76
   8  10  -4    6.38    2.51
   8  10  -4    5.07    2.07
   8 -10  -4   10.24    3.08
   8  10  -4    5.90    2.36
  10  10  -4    5.39    2.57
  10  10   4    9.62    2.63
  10 -10  -4   10.85    3.32
  10  10  -4    4.58    2.04
  12  10  -4    4.17    2.13
  12  10  -4    6.31    2.36
 -15  11   4  176.76   17.97
 -15  11  -4  181.90   18.01
 -15  11  -4  184.38   18.26
 -15 -11  -4  159.72   17.52
 -13  11  -4  227.19   19.23
 -13  11   4  226.25   19.39
 -13 -11  -4  196.54   18.40
 -13 -11   4  212.06   19.27
 -13  11   4  224.16   16.00
 -13  11  -4  247.23   20.03
 -13 -11  -4  211.55   18.98
 -11 -11   4  135.92   14.13
 -11 -11  -4  151.17   14.71
 -11  11  -4  174.48   15.89
 -11  11   4  171.55   13.29
 -11 -11  -4  172.41   16.12
  -9 -11  -4  975.58   34.09
  -9 -11   4  938.54   34.98
  -9  11  -4  970.43   34.94
  -9  11   4  912.69   29.09
  -9 -11  -4  997.69   36.45
  -7 -11  -4  334.81   17.77
  -7  11   4  353.50   17.71
  -7  11  -4  372.31   20.52
  -7 -11  -4  340.47   19.53
  -5 -11  -4 2944.69   47.71
  -5  11   4 3032.89   50.10
  -5  11  -4 2996.31   55.23
  -5  11   4 2962.40   44.80
  -5 -11  -4 2924.53   53.90
  -3 -11  -4  658.39   20.23
  -3  11   4  593.62   21.84
  -3  11  -4  611.02   23.43
  -3 -11   4  618.70   21.36
  -3 -11  -4  650.85   24.26
  -3  11   4  576.01   20.01
  -1  11   4 1005.04   21.17
  -1  11  -4  988.47   28.69
  -1 -11   4 1000.51   28.57
  -1  11   4 1069.37   29.88
  -1  11   4 1062.70   27.89
   1  11  -4  968.25   27.56
   1 -11   4 1002.26   28.95
   1  11   4  919.29   26.99
   1  11   4  928.22   28.35
   3  11  -4  671.66   25.14
   3  11  -4  634.86   21.80
   3 -11   4  640.40   24.19
   3  11   4  697.90   24.93
   3  11  -4  660.76   23.73
   5  11  -4 2867.62   45.72
   5  11  -4 2961.73   50.80
   7  11  -4  320.43   15.54
   7  11  -4  327.04   17.49
   7 -11  -4  338.17   17.57
   9  11   4  980.67   13.93
   9  11  -4  918.89   28.23
   9  11   4  918.59   25.23
   9  11  -4  922.43   27.14
   9 -11  -4  957.67   31.04
  11  11  -4  140.46   11.22
  11  11  -4  141.75   11.14
 -14  12   4   15.68    5.79
 -14  12  -4   17.80    5.65
 -14 -12   4   11.32    5.38
 -14 -12  -4    6.20    3.70
 -14  12  -4   14.50    5.55
 -14 -12  -4    3.56    1.63
 -12 -12   4   50.52    9.13
 -12 -12  -4   45.14    8.64
 -12  12   4   55.60    8.03
 -12  12  -4   62.22    9.83
 -12 -12  -4   48.69    8.98
 -10 -12  -4   15.62    4.67
 -10 -12   4   17.30    4.90
 -10  12   4   12.76    3.80
 -10  12  -4   14.78    4.93
 -10 -12  -4   25.23    6.12
  -8 -12  -4    0.46    1.91
  -8  12   4   15.33    3.83
  -8  12  -4   11.80    4.06
  -8 -12  -4    4.76    2.70
  -6 -12  -4   47.61    6.78
  -6  12   4   57.08    7.27
  -6  12  -4   69.95    9.03
  -6 -12  -4   65.74    8.66
  -4 -12  -4    7.27    2.44
  -4  12  -4   12.06    3.73
  -4  12   4    2.58    1.63
  -4 -12  -4    7.63    2.94
  -4  12   4    3.35    2.27
  -2  12   4    1.68    0.98
  -2  12  -4    2.32    1.91
  -2  12   4    0.57    1.08
  -2  12   4    2.98    1.64
  -2 -12   4    1.98    1.81
   0  12   4    1.52    1.16
   0  12  -4    0.12    1.11
   0  12   4    0.80    1.51
   0 -12   4    0.99    1.66
   0  12   4    0.33    1.05
   2  12  -4    1.77    1.47
   2  12  -4    0.01    1.53
   2 -12   4    2.34    1.54
   2  12   4    1.21    0.98
   2  12   4    0.07    1.36
   4  12  -4    3.22    1.71
   4  12  -4    3.23    1.94
   6  12  -4   39.76    5.81
   6 -12  -4   54.55    7.20
   8  12  -4    6.77    2.64
   8  12  -4    8.85    3.01
  10  12  -4   19.26    4.63
  10  12   4   21.80    4.17
  10  12  -4   18.43    4.24
  12  12  -4   45.80    6.47
  12  12  -4   47.78    6.80
 -15  13  -4   51.02    9.95
 -13 -13   4   85.18   12.71
 -13 -13  -4   86.93   12.50
 -13  13  -4  101.07   13.52
 -13  13   4   82.15   10.13
 -13 -13  -4   85.90   12.52
 -11 -13   4  213.80   19.06
 -11 -13  -4  195.30   17.29
 -11  13  -4  213.10   18.40
 -11  13   4  208.04   15.90
 -11 -13  -4  199.12   17.95
  -9 -13  -4  225.16   16.89
  -9  13  -4  214.23   17.25
  -9  13   4  212.02   15.28
  -9 -13  -4  230.00   18.22
  -7 -13  -4  620.18   25.78
  -7  13   4  636.57   25.81
  -7  13  -4  677.68   29.13
  -7 -13  -4  642.19   28.86
  -5 -13  -4  392.42   18.71
  -5  13  -4  371.38   20.45
  -5  13   4  399.15   19.96
  -5  13   4  380.05   17.77
  -5 -13  -4  385.37   21.24
  -3  13   4  624.48   24.57
  -3  13  -4  669.38   26.42
  -3  13   4  634.65   23.35
  -1  13   4 1625.99   30.32
  -1  13  -4 1694.83   41.32
  -1 -13   4 1620.22   39.62
  -1  13   4 1686.26   40.55
  -1  13   4 1740.24   39.53
   1  13   4 1528.75   31.39
   1  13  -4 1562.47   38.20
   1  13   4 1556.75   40.19
   1  13   4 1593.41   38.74
   1 -13   4 1726.19   41.46
   3  13  -4  648.72   24.28
   3  13   4  672.17   26.60
   5  13  -4  379.28   18.35
   7  13  -4  606.10   23.47
   9  13  -4  221.49   14.71
   9  13  -4  220.54   14.59
  11  13  -4  211.96   14.40
  11  13  -4  209.57   14.54
 -12 -14   4    5.03    3.87
 -12 -14  -4    3.78    2.20
 -12  14  -4   10.30    4.08
 -12  14   4    4.40    2.40
 -12 -14  -4    8.14    4.70
 -10 -14  -4   35.58    7.28
 -10  14   4   24.58    5.61
 -10  14  -4   31.78    7.29
 -10 -14  -4   41.50    8.37
  -8 -14  -4   31.74    6.29
  -8  14  -4   34.83    7.28
  -8  14   4   43.51    7.28
  -8 -14  -4   31.81    6.79
  -6 -14  -4    2.27    1.98
  -6  14   4    5.37    2.77
  -6  14  -4    2.35    2.03
  -6  14   4    6.22    2.93
  -6 -14  -4    4.38    3.41
  -4  14  -4    0.54    1.46
  -4  14   4   -0.45    2.20
  -4  14   4    0.46    0.98
  -2  14   4   33.09    4.62
  -2  14  -4   37.97    6.38
  -2  14   4   35.87    6.19
  -2  14   4   37.35    5.95
   0  14   4   35.03    4.87
   0  14  -4   38.94    6.40
   0  14   4   32.91    5.92
   0  14   4   36.73    6.10
   2  14  -4   55.41    7.44
   2  14   4   68.26    8.95
   4  14  -4    3.00    1.83
   4  14   4    5.79    2.94
   6  14  -4    1.11    1.69
   8  14  -4   43.21    6.87
  10  14  -4   30.45    5.83
  10  14  -4   29.42    5.70
  12  14  -4    3.61    2.55
 -13 -15  -4    4.52    3.60
 -13  15  -4    4.28    2.35
 -13  15   4    4.36    2.80
 -11 -15  -4   97.65   12.76
 -11  15  -4   91.24   12.64
 -11  15   4   92.68   11.30
 -11 -15  -4  111.13   14.10
  -9 -15  -4   28.59    6.47
  -9  15   4   22.91    5.67
  -9  15  -4   25.61    6.71
  -9 -15  -4   16.70    5.15
  -7 -15  -4  282.28   18.42
  -7  15   4  296.96   19.08
  -7  15  -4  274.54   19.99
  -7 -15  -4  295.76   20.67
  -5  15  -4  226.44   17.15
  -5  15   4  217.11   16.07
  -3  15  -4   93.06   10.80
  -3  15   4  111.21   11.39
  -1  15   4    8.74    2.56
  -1  15  -4    9.67    3.39
  -1  15   4    8.95    3.51
   1  15   4    9.35    3.11
   1  15  -4    8.99    3.65
   1  15   4   11.59    3.82
   3  15  -4  100.03   10.37
   3  15   4   79.59   10.06
   5  15  -4  177.06   13.69
   5  15   4  195.87   15.98
   7  15  -4  312.62   18.40
   9  15  -4   27.09    5.34
   9  15  -4   30.71    5.89
  11  15  -4  117.33   11.26
  11  15  -4  103.88   10.97
 -12 -16  -4   -1.73    3.06
 -12  16   4    2.82    2.85
 -12  16  -4    5.45    3.63
 -10 -16  -4    7.51    3.86
 -10  16   4   10.27    3.40
 -10  16  -4    9.48    4.93
 -10 -16  -4    6.79    4.13
  -8 -16  -4   89.27   11.15
  -8  16   4  120.62   12.92
  -8  16  -4   91.24   11.99
  -8 -16  -4  101.27   12.67
  -6  16   4  113.01   12.30
  -6  16  -4   78.60   10.71
  -4  16   4   81.13   10.21
  -4  16  -4  105.39   11.97
  -2  16   4   90.59    8.41
  -2  16  -4  101.04   11.57
  -2  16   4   91.79   10.64
   0  16   4  111.73    9.52
   0  16   4  115.34   12.03
   0  16  -4  118.39   12.18
   2  16  -4  123.16   12.13
   2  16   4  137.74   13.53
   4  16  -4   91.93   10.46
   4  16   4  130.33   13.64
   6  16  -4   95.10   10.73
   6  16   4   68.33    9.98
   8  16  -4  106.84   11.38
  10  16  -4   16.52    4.79
  10  16  -4   12.24    4.20
 -13  17   4   37.82    7.99
 -11 -17  -4  108.71   13.78
 -11  17  -4  100.82   13.87
 -11  17   4  107.42   13.04
 -11 -17  -4  104.68   14.57
  -9 -17  -4   34.25    7.29
  -9  17   4   28.79    6.61
  -9  17  -4   35.47    8.12
  -9 -17  -4   34.88    7.98
  -7  17   4  106.07   12.37
  -7  17  -4  124.34   14.29
  -5  17   4  186.55   16.21
  -5  17  -4  188.21   16.73
  -3  17   4    3.32    1.82
  -3  17  -4    3.02    2.86
  -3  17   4    3.30    2.44
  -1  17   4   27.81    4.75
  -1  17  -4   31.15    6.70
  -1  17   4   28.99    6.28
   1  17   4   19.98    4.46
   1  17  -4   20.15    5.39
   1  17   4   19.87    5.16
   3  17  -4    3.35    2.99
   3  17   4    4.21    2.51
   5  17  -4  182.13   15.26
   5  17   4  164.13   15.91
   7  17  -4   88.02   10.72
   7  17   4  111.56   13.35
   9  17  -4   31.11    6.54
   9  17   4   32.18    7.48
  11  17  -4   96.32   11.39
 -12  18   4    2.72    2.58
 -10 -18  -4    6.68    3.83
 -10  18   4    3.78    1.54
 -10  18  -4    4.06    2.95
  -8  18  -4    0.11    2.32
  -8  18   4    0.86    2.03
  -6  18  -4    0.99    2.06
  -6  18   4    5.52    2.45
  -4  18  -4   22.45    5.90
  -4  18   4   26.73    6.65
  -2  18   4    9.53    3.28
  -2  18  -4    8.42    3.77
  -2  18   4   14.92    4.75
   0  18   4   88.42    9.20
   0  18   4   98.65   12.22
   0  18  -4   88.40   11.32
   2  18  -4   10.16    4.05
   2  18   4   11.71    5.03
   4  18  -4   32.24    6.91
   4  18   4   23.00    6.29
   6  18  -4    9.96    3.36
   6  18   4    9.67    4.68
   8  18  -4   -0.29    2.24
   8  18   4    3.24    2.61
  10  18  -4    3.43    2.40
  10  18  -4    3.70    2.86
  10  18   4   11.82    4.77
 -11  19   4  175.56   17.56
  -9  19  -4   64.35   11.05
  -9  19   4   57.96    9.76
  -7  19  -4  376.91   25.98
  -7  19   4  354.92   24.23
  -5  19   4  224.33   19.06
  -5  19  -4  223.64   19.46
  -3  19  -4  612.37   31.35
  -3  19   4  637.97   31.53
  -1  19   4  375.61   24.08
  -1  19  -4  375.55   24.39
   1  19  -4  389.04   24.18
   1  19   4  397.55   25.01
   3  19  -4  602.30   29.83
   3  19   4  581.95   30.71
   5  19  -4  202.29   17.55
   5  19   4  230.11   20.05
   7  19  -4  344.75   22.62
   7  19   4  377.59   26.29
   9  19   4   66.21   11.26
   9  19  -4   58.13    9.48
 -10  20   4    3.46    3.65
  -8  20   4   -0.82    2.31
  -6  20  -4   10.79    4.79
  -6  20   4   15.05    5.50
  -4  20   4   28.14    6.88
  -4  20  -4   22.84    6.44
  -2  20  -4    4.53    3.39
  -2  20   4    4.28    2.96
   0  20  -4    7.13    3.19
   0  20   4    8.27    4.88
   2  20  -4    5.33    3.19
   2  20   4    6.36    4.34
   4  20  -4   15.53    4.73
   4  20   4   21.95    6.39
   6  20  -4    3.88    2.85
   6  20   4   13.11    5.35
   8  20   4    5.11    3.77
   8  20  -4    0.83    1.81
  10  20  -4    2.90    2.43
  -7  21   4  140.00   16.17
  -5  21   4  111.84   14.37
  -5  21  -4  106.19   14.08
  -3  21   4  159.41   16.87
  -3  21  -4  150.57   16.54
  -1  21  -4  180.25   17.72
  -1  21   4  183.69   18.01
   1  21  -4  203.89   18.65
   1  21   4  207.60   19.22
   3  21   4  151.35   16.59
   3  21  -4  134.84   15.06
   5  21  -4  122.00   14.37
   5  21   4  122.49   15.31
   7  21  -4  130.99   14.91
   9  21  -4   57.42    9.86
  -6  22   4   10.31    4.45
  -4  22   4   10.56    4.61
  -4  22  -4    4.81    3.72
  -2  22   4   10.18    4.30
  -2  22  -4    8.15    3.70
   0  22  -4   38.98    8.64
   0  22   4   49.21    9.82
   2  22  -4    4.97    3.99
   2  22   4    9.50    4.28
   4  22  -4    9.28    4.57
   4  22   4    9.69    5.41
   6  22  -4   13.19    4.96
   8  22  -4    0.50    2.52
   1  23  -4   22.83    6.77
   3  23  -4    4.80    3.24
   5  23  -4    8.85    4.28
 -18   0   5   -1.44    1.79
 -16   0   5   -1.75    2.70
 -16   0  -5   -0.09    2.22
 -14   0  -5   -1.59    1.60
 -14   0   5   -1.48    2.33
 -12   0   5   -0.26    1.55
 -12   0  -5    3.65    2.96
 -12   0   5   -1.07    2.14
 -12   0   5    3.34    1.61
 -10   0   5   -0.26    1.28
 -10   0  -5    0.29    0.49
 -10   0   5   -0.80    1.24
 -10   0  -5   -1.11    2.08
 -10   0   5    0.20    0.73
  -8   0   5    3.60    1.74
  -8   0   5   -1.61    2.02
  -8   0  -5   -0.79    1.63
  -8   0   5    0.36    0.47
  -6   0   5   -1.81    2.64
  -6   0  -5    2.06    1.44
  -6   0   5    0.97    1.01
  -6   0   5    0.97    1.35
  -6   0  -5    1.04    0.53
  -4   0  -5    3.85    1.84
  -4   0   5    2.44    1.88
  -4   0   5    4.26    1.75
  -4   0   5    3.96    1.46
  -4   0  -5    2.71    1.17
  -2   0  -5    1.80    0.75
  -2   0  -5    1.48    1.26
  -2   0   5    1.23    1.23
  -2   0   5    1.34    0.58
  -2   0  -5   -0.20    0.97
  -2   0   5    1.54    1.03
   0   0  -5    1.02    1.06
   0   0   5    0.46    0.91
   0   0  -5   -0.19    1.02
   0   0   5    1.31    1.06
   0   0  -5    3.12    1.72
   0   0   5   -0.77    0.88
   2   0  -5    0.31    1.44
   2   0  -5    0.41    0.49
   2   0   5    2.80    1.31
   2   0  -5    1.31    1.49
   2   0  -5    1.53    0.91
   4   0  -5    2.01    1.80
   4   0   5    1.25    0.92
   4   0  -5    5.08    2.17
   6   0  -5    1.48    1.80
   6   0  -5    2.85    1.68
   6   0   5    0.85    1.02
   8   0  -5    1.47    1.78
   8   0   5   -0.50    1.05
  10   0  -5    0.59    0.69
  12   0  -5    2.02    0.91
 -17  -1   5   41.19    8.84
 -17   1  -5   41.71    9.04
 -17  -1   5   37.01    8.13
 -17   1   5   28.52    7.26
 -17  -1  -5   41.41    8.89
 -15  -1   5   36.26    8.25
 -15   1  -5   34.34    7.62
 -15   1   5   29.18    6.95
 -15  -1   5   34.30    7.41
 -15  -1  -5   33.61    7.34
 -13   1  -5   22.98    3.09
 -13  -1  -5   25.31    5.94
 -13   1  -5   24.79    6.11
 -13  -1   5   19.11    5.44
 -13   1   5   22.87    5.75
 -13  -1   5   20.75    3.53
 -13   1   5   21.48    3.37
 -11   1   5    7.73    2.62
 -11  -1   5    5.95    2.36
 -11  -1  -5    6.66    2.60
 -11   1   5    6.91    3.45
 -11   1  -5   12.19    4.12
 -11  -1   5    6.93    3.50
 -11   1  -5    8.91    1.67
 -11  -1   5    8.80    2.07
 -11   1   5    7.74    1.79
  -9  -1   5   84.12    8.75
  -9   1   5   71.99    7.71
  -9  -1   5   76.62    7.81
  -9   1   5   76.23    8.57
  -9   1  -5   72.32    3.86
  -9   1  -5   74.13    8.55
  -9  -1   5   88.03    9.16
  -9  -1   5   89.85    5.57
  -9  -1  -5   74.05    8.75
  -9   1   5   82.65    4.73
  -7   1   5 1279.11   30.61
  -7  -1   5 1396.56   30.00
  -7  -1  -5 1390.61   16.06
  -7  -1   5 1396.47   30.86
  -7  -1   5 1377.62   32.97
  -7  -1  -5 1394.21   33.34
  -7   1  -5 1289.89   32.39
  -7   1   5 1284.86   32.12
  -7   1  -5 1289.76   12.99
  -7   1   5 1307.14   12.38
  -5  -1   5   95.57    7.98
  -5  -1  -5  113.00    8.65
  -5   1  -5  167.20   10.75
  -5   1   5  137.56    9.68
  -5  -1   5   96.18    6.74
  -5   1   5  133.88    9.23
  -5  -1  -5  118.84    5.45
  -5   1   5  136.38    7.40
  -5  -1   5   92.51    7.50
  -3   1  -5  306.61   12.54
  -3   1   5  242.51   11.10
  -3  -1  -5  268.65   11.75
  -3   1  -5  286.56    7.20
  -3  -1   5  212.12   10.43
  -3  -1   5  207.62    4.45
  -3  -1  -5  264.98    9.08
  -3   1   5  229.94    7.45
  -3   1   5  231.27   11.13
  -3   1  -5  282.07   10.07
  -3  -1   5  205.75   10.45
  -1   1  -5   23.18    2.67
  -1  -1  -5   20.22    2.83
  -1  -1   5   27.68    3.50
  -1   1   5   32.57    3.74
  -1  -1   5   26.69    2.60
  -1   1  -5   23.98    3.15
  -1   1   5   30.74    3.91
  -1  -1   5   30.63    3.78
  -1  -1  -5   19.58    2.94
   1   1   5   21.40    2.38
   1   1  -5   29.22    3.51
   1  -1  -5   29.35    2.65
   1  -1   5   26.07    3.27
   1   1   5   18.00    2.75
   1   1  -5   28.51    3.70
   1  -1  -5   31.64    3.91
   3   1  -5  201.64   10.49
   3  -1  -5  250.95   11.44
   3   1  -5  211.50   10.56
   3   1  -5  205.66    8.50
   3  -1   5  315.52   12.66
   5   1  -5   92.94    8.12
   5  -1  -5  137.91    9.26
   5   1  -5   87.94    7.35
   5   1   5  125.14    9.19
   5  -1   5  167.37   10.56
   5   1  -5   94.16    3.64
   7  -1  -5 1270.74   30.00
   7   1  -5 1386.46   33.31
   7   1  -5 1373.92   17.66
   7   1   5 1468.03   34.80
   7  -1   5 1346.49   33.15
   7   1  -5 1405.31   31.00
   9   1  -5   83.90    8.01
   9   1   5   78.45    8.81
   9  -1   5   75.88    8.56
   9  -1  -5   78.24    4.01
   9   1  -5   83.52    3.42
  11   1  -5    8.36    1.44
  11  -1  -5    6.96    1.50
 -16  -2   5   62.69   10.21
 -16  -2   5   64.94   10.31
 -16   2   5   85.91   11.80
 -16  -2  -5   66.85   10.74
 -16   2  -5   84.15   12.25
 -14  -2   5  316.59   21.84
 -14  -2   5  323.39   21.60
 -14   2   5  371.74   23.13
 -14  -2  -5  297.07   21.35
 -14  -2   5  339.83   15.83
 -14   2  -5  362.27   23.40
 -12  -2   5   89.02    9.07
 -12  -2   5   95.43   10.91
 -12   2   5  104.11   11.49
 -12   2  -5  108.04   11.63
 -12  -2   5   92.02   10.72
 -12   2  -5  129.22    7.23
 -12   2   5  108.86    6.93
 -12  -2   5  104.55    7.87
 -12  -2  -5  102.58   11.61
 -10  -2   5  353.87   17.01
 -10  -2   5  368.92   19.01
 -10   2   5  353.85   18.05
 -10   2   5  373.75   19.81
 -10   2  -5  339.67   10.49
 -10   2  -5  333.36   19.06
 -10  -2   5  346.22   19.10
 -10  -2  -5  319.99   18.68
 -10   2   5  361.48   10.74
 -10  -2   5  368.75   13.02
  -8  -2   5  111.02    9.24
  -8   2   5  136.34   10.40
  -8  -2   5  116.27    9.23
  -8   2  -5  125.29   10.72
  -8   2   5  134.86   11.05
  -8   2  -5  128.05    5.62
  -8  -2   5  117.44   10.14
  -8   2   5  134.56    4.86
  -8  -2  -5  113.12   10.22
  -6   2  -5 3275.76   49.67
  -6   2   5 3380.59   49.74
  -6  -2   5 3534.04   50.87
  -6  -2   5 3572.46   45.63
  -6  -2  -5 3322.90   24.14
  -6   2   5 3432.19   48.57
  -6  -2   5 3564.71   48.03
  -6   2   5 3303.84   22.16
  -6  -2  -5 3322.27   50.02
  -4  -2   5 2808.87   41.52
  -4   2   5 2909.85   41.78
  -4  -2   5 2909.06   40.47
  -4  -2  -5 2840.83   27.49
  -4  -2   5 2858.05   36.14
  -4   2   5 2954.63   28.46
  -4   2   5 2947.01   41.43
  -4   2  -5 3013.95   42.62
  -4   2   5 2916.64   21.50
  -4  -2  -5 2946.72   41.47
  -2  -2   5   19.30    3.24
  -2   2  -5   48.66    3.72
  -2   2   5   16.94    2.85
  -2  -2  -5   54.25    4.35
  -2   2   5   17.28    3.01
  -2   2  -5   52.71    5.07
  -2  -2  -5   51.23    4.72
   0   2   5 1995.64   24.59
   0   2   5 2095.20   26.35
   0   2  -5 2030.28   27.21
   0  -2  -5 2125.92   29.79
   0   2  -5 2081.07   30.92
   0   2   5 1933.47   29.28
   0   2  -5 2088.71   26.40
   0  -2   5 2013.08   25.95
   0  -2  -5 2075.05   24.83
   2   2   5   49.34    4.83
   2   2  -5   17.18    2.91
   2   2   5   50.32    3.25
   2   2  -5   16.08    3.03
   2  -2  -5   19.36    3.44
   2   2  -5   18.62    2.81
   2   2   5   49.42    4.14
   2   2  -5   19.61    2.10
   2  -2   5   52.62    4.93
   2  -2  -5   16.72    1.63
   4   2   5 2916.73   42.02
   4   2  -5 2855.69   41.84
   4  -2  -5 2904.18   40.83
   4   2  -5 2896.81   40.47
   4  -2   5 2970.26   42.07
   4   2  -5 2869.87   24.61
   6   2   5 3423.82   50.61
   6   2  -5 3648.74   51.93
   6   2  -5 3534.70   47.68
   6   2   5 3442.74   51.14
   6  -2   5 3302.31   49.33
   6   2  -5 3510.24   29.21
   8   2  -5  118.60   10.34
   8   2   5  126.43   10.75
   8   2  -5  114.54    6.21
   8   2  -5  126.14    9.54
   8   2   5  116.37   10.32
   8  -2   5  139.83   11.27
   8  -2  -5  139.26    5.51
  10   2  -5  351.84   12.54
  10   2  -5  348.77   16.76
  10   2  -5  356.25    8.67
  10  -2  -5  361.14   10.56
  12  -2  -5  109.24    6.72
  12   2  -5   97.92    5.59
 -17   3  -5   -0.28    1.88
 -17   3   5   -1.46    3.55
 -17  -3  -5   -2.78    4.23
 -15  -3   5    4.31    2.75
 -15  -3   5    1.11    3.48
 -15   3  -5    1.38    3.27
 -15   3   5   -0.33    1.75
 -15  -3  -5    0.57    1.79
 -13  -3   5   79.12   10.72
 -13   3  -5   83.51   10.62
 -13   3   5   71.75    9.96
 -13  -3   5   77.40   10.36
 -13   3  -5   91.56    6.81
 -13  -3  -5   83.62   10.86
 -13   3   5   76.29    6.23
 -13  -3   5   88.70    7.86
 -11  -3   5   24.62    5.40
 -11   3  -5   38.45    6.84
 -11   3  -5   38.67    4.10
 -11   3   5   23.56    5.66
 -11  -3   5   20.95    5.02
 -11  -3  -5   30.67    6.26
 -11   3   5   28.04    3.36
 -11  -3   5   25.44    3.92
  -9  -3   5   89.15    9.24
  -9   3   5   85.72    8.60
  -9   3  -5  119.74   11.00
  -9   3   5   83.21    8.97
  -9  -3   5   84.57    9.05
  -9   3   5   85.74    4.67
  -9  -3  -5  123.24   11.18
  -7   3  -5   87.34    8.53
  -7  -3   5   63.39    7.29
  -7   3   5   82.58    8.28
  -7  -3   5   69.01    7.09
  -7   3   5   84.51    8.12
  -7  -3   5   65.99    6.77
  -7   3  -5   75.53    7.95
  -7   3   5   77.90    4.39
  -7  -3  -5   68.74    7.71
  -7   3   5   78.89    2.98
  -5  -3   5  117.87    9.11
  -5   3   5  120.97    9.02
  -5  -3  -5  147.57    5.62
  -5   3   5  138.42    9.57
  -5  -3   5  117.04    8.19
  -5   3  -5  170.09   11.01
  -5   3   5  128.76    5.39
  -5  -3  -5  154.29   10.18
  -3   3   5  154.18    4.15
  -3   3   5  151.49    9.37
  -3  -3   5  237.28   11.61
  -3   3   5  167.66    9.87
  -3  -3  -5  253.22    8.79
  -3   3   5  158.07    4.85
  -3   3  -5  162.96    9.53
  -3  -3   5  238.61    6.63
  -3   3   5  163.56    6.54
  -3  -3  -5  250.41   11.55
  -1   3   5  469.08   10.98
  -1   3   5  483.50   14.24
  -1   3  -5  515.82   13.77
  -1   3   5  505.92   15.64
  -1  -3  -5  505.28   13.95
  -1  -3   5  490.35   12.28
  -1   3  -5  490.80   14.53
  -1  -3  -5  508.92   14.14
   1  -3  -5  493.56   15.23
   1   3   5  488.20   13.92
   1   3  -5  491.23   14.97
   1   3  -5  491.12   15.91
   1   3   5  512.46   14.13
   1   3  -5  493.06   12.11
   1  -3   5  515.42   14.83
   1  -3  -5  498.51   11.20
   3  -3  -5  169.99    9.90
   3   3  -5  247.87   11.79
   3   3   5  248.55   11.38
   3   3  -5  236.80   10.43
   3   3   5  241.18    8.67
   3   3  -5  241.22   11.54
   3   3  -5  232.50    6.57
   3  -3   5  171.03    9.77
   5   3   5  156.85   10.33
   5   3  -5  113.20    8.90
   5   3  -5  122.84    8.69
   5  -3   5  166.69   10.77
   5   3  -5  115.23    5.84
   7   3   5   78.51    8.16
   7   3  -5   72.28    7.83
   7   3  -5   71.10    7.14
   7  -3   5   85.83    8.60
   7  -3  -5   85.23    4.65
   7   3  -5   69.39    4.98
   9   3  -5   86.77    9.33
   9   3  -5   89.96    6.39
   9   3  -5   87.84    8.15
   9   3  -5   82.71    3.87
   9  -3  -5   90.42    5.43
   9   3  -5   89.53    4.09
  11   3  -5   24.47    3.89
  11   3  -5   27.92    5.09
  11   3  -5   26.81    2.76
  11  -3  -5   28.53    3.53
 -16  -4   5  257.16   21.70
 -16   4   5  240.29   20.20
 -16  -4  -5  260.07   21.56
 -16   4  -5  245.61   20.60
 -14  -4   5  380.38   24.22
 -14   4  -5  384.83   23.89
 -14   4   5  404.32   24.47
 -14  -4   5  396.23   18.21
 -14  -4  -5  383.40   24.51
 -12  -4   5  351.99   21.35
 -12   4  -5  342.19   21.14
 -12   4  -5  367.91   14.13
 -12   4   5  314.23   20.22
 -12  -4   5  340.69   20.69
 -12  -4  -5  379.35   22.33
 -12  -4   5  346.85   15.62
 -12   4   5  324.97   12.06
 -10   4   5  685.07   27.43
 -10  -4   5  688.99   27.32
 -10   4  -5  717.27   28.30
 -10  -4   5  693.11   26.97
 -10   4   5  708.61   26.22
 -10   4   5  715.61   17.51
 -10  -4  -5  704.58   28.01
 -10   4   5  712.01   15.19
  -8   4   5  655.76   24.72
  -8   4  -5  586.91   23.55
  -8  -4   5  689.16   25.21
  -8  -4   5  680.01   23.85
  -8   4   5  664.58   23.63
  -8   4  -5  594.30   23.78
  -8   4   5  647.35   15.04
  -8  -4  -5  606.97   23.93
  -8   4   5  672.55   11.85
  -6   4   5 2225.43   41.83
  -6  -4   5 2208.29   41.80
  -6   4   5 2198.69   16.19
  -6   4   5 2336.13   41.49
  -6  -4   5 2226.71   39.29
  -6   4  -5 2278.48   42.44
  -6   4   5 2287.17   26.37
  -6  -4  -5 2150.45   41.13
  -6   4   5 2257.47   16.44
  -4   4   5 4145.59   51.88
  -4   4  -5 4019.18   50.96
  -4   4   5 3944.86   34.45
  -4  -4  -5 3956.15   49.54
  -4   4   5 3910.79   22.76
  -2   4   5 1300.10   27.06
  -2  -4   5 1230.61   19.10
  -2   4  -5 1341.06   26.51
  -2   4   5 1276.84   17.27
  -2  -4  -5 1326.80   25.24
   0   4   5  984.77   21.24
   0  -4   5  972.25   19.81
   0   4  -5  975.90   19.79
   0  -4  -5  998.31   18.79
   0   4   5  985.06   18.63
   2   4   5 1242.61   24.40
   2   4  -5 1274.50   26.25
   2   4   5 1284.76   21.66
   2   4  -5 1246.59   25.91
   2   4  -5 1240.06   24.71
   2   4  -5 1233.92   18.97
   2  -4   5 1307.93   26.00
   2  -4  -5 1286.74   17.31
   4   4  -5 3697.68   49.07
   4   4   5 3880.85   49.69
   4   4  -5 3793.68   46.48
   4   4   5 3859.99   32.68
   4   4  -5 3856.11   47.63
   4   4  -5 3777.80   28.04
   4  -4   5 4138.20   51.93
   4   4  -5 3786.17   36.78
   6   4  -5 2234.75   42.23
   6   4   5 2239.62   41.98
   6   4  -5 2261.07   38.41
   6  -4   5 2271.05   42.41
   6   4  -5 2232.07   19.69
   6   4  -5 2172.00   29.14
   8   4   5  662.86   25.11
   8   4  -5  687.71   25.04
   8   4  -5  696.04   22.46
   8  -4   5  613.00   24.07
   8   4  -5  696.19   12.00
   8   4  -5  691.54   11.96
   8  -4  -5  700.83   16.12
   8   4  -5  675.70   17.64
  10   4  -5  680.61   19.47
  10   4  -5  695.95   23.71
  10   4  -5  668.94   13.55
  10  -4  -5  689.09   17.26
  10   4  -5  717.68   14.19
  12   4  -5  331.30   15.03
  12   4  -5  338.12   17.41
  12  -4  -5  301.87   12.53
  12   4  -5  343.40   11.12
 -17   5  -5    2.15    2.31
 -17   5   5    0.49    3.31
 -15  -5   5    8.99    3.87
 -15   5   5    8.34    3.13
 -15   5  -5   15.89    5.21
 -15  -5  -5    9.62    4.62
 -13  -5   5   23.42    6.05
 -13   5  -5   40.94    7.65
 -13   5  -5   45.33    5.47
 -13   5   5   31.17    6.93
 -13   5   5   32.15    4.03
 -13  -5  -5   39.81    7.50
 -13  -5   5   30.61    5.17
 -11   5  -5   66.66    9.11
 -11   5   5   56.80    8.20
 -11  -5   5   58.36    8.25
 -11   5   5   51.62    5.45
 -11  -5  -5   59.51    8.72
 -11   5   5   58.59    4.87
  -9   5   5   36.27    3.27
  -9   5   5   29.69    5.53
  -9   5  -5   54.46    7.66
  -9   5   5   33.58    5.69
  -9  -5   5   44.70    6.69
  -9   5  -5   48.38    7.19
  -9   5   5   31.88    3.85
  -9  -5  -5   49.37    7.19
  -7   5   5   86.66    8.94
  -7   5   5   91.86    4.43
  -7  -5   5   71.11    7.67
  -7   5   5   88.83    8.74
  -7   5  -5  110.22    9.97
  -7   5   5   96.93    6.20
  -7  -5  -5   91.48    8.94
  -5  -5   5   74.68    7.20
  -5   5   5   92.31    8.24
  -5   5  -5   74.67    7.50
  -5   5   5   76.66    5.37
  -5   5   5   77.03    3.84
  -5  -5  -5   79.59    7.71
  -3   5   5  606.24   19.50
  -3   5  -5  755.25   21.63
  -3  -5   5  533.67   13.01
  -3   5   5  605.45   15.58
  -3   5   5  580.17   11.95
  -3  -5  -5  693.20   20.27
  -1   5   5   20.56    3.53
  -1  -5   5   13.65    2.44
  -1   5  -5   15.31    2.82
  -1  -5  -5   12.70    2.51
  -1   5   5   18.91    2.70
   1   5   5   10.20    2.45
   1   5   5   12.66    2.58
   1   5  -5   14.03    2.46
   1  -5   5   14.36    2.73
   1  -5  -5   21.51    2.85
   3   5  -5  550.24   18.66
   3   5   5  694.99   15.61
   3   5  -5  536.07   17.80
   3   5  -5  542.31   17.70
   3   5  -5  546.48   13.08
   3  -5   5  731.15   21.18
   3   5   5  687.50   20.33
   5   5   5   76.28    7.47
   5   5  -5   76.15    7.41
   5   5   5   72.69    4.18
   5   5  -5   73.31    7.00
   5   5  -5   76.75    4.51
   5  -5   5   76.15    7.53
   5   5  -5   75.85    5.73
   7   5   5  103.83    9.57
   7   5   5   89.24    3.77
   7   5  -5   70.85    7.96
   7   5  -5   73.55    7.27
   7   5  -5   74.07    4.36
   7  -5   5  115.05   10.14
   7  -5  -5   94.02    6.15
   7   5  -5   78.75    6.25
   9   5  -5   45.35    6.01
   9   5  -5   48.21    3.84
   9  -5  -5   35.59    4.23
   9   5  -5   39.92    4.83
   9   5  -5   44.25    3.70
  11   5  -5   57.47    6.40
  11   5  -5   55.33    6.91
  11   5  -5   59.54    4.72
  11  -5  -5   57.56    5.56
  11   5  -5   59.71    4.73
 -16  -6   5   80.26   12.39
 -16   6  -5   67.94   11.29
 -16   6   5   68.04   10.91
 -16  -6  -5   67.47   11.14
 -14  -6   5   90.80   12.07
 -14   6  -5   97.22   12.29
 -14   6   5   90.77   12.19
 -14  -6  -5  109.82   13.47
 -12   6  -5   48.03    8.05
 -12   6   5   53.01    8.58
 -12   6  -5   47.56    5.80
 -12  -6   5   58.98    8.84
 -12   6   5   51.76    5.85
 -12  -6  -5   54.83    8.89
 -12   6   5   49.38    4.83
 -10   6  -5  342.32   19.93
 -10   6   5  329.24   11.29
 -10   6   5  330.08   19.59
 -10  -6   5  344.84   19.65
 -10   6   5  314.46   13.27
 -10   6  -5  341.39   20.10
 -10  -6  -5  371.55   21.10
  -8   6   5  158.29    7.00
  -8   6   5  153.16   12.38
  -8   6   5  152.15   12.01
  -8  -6   5  198.63   13.71
  -8   6  -5  111.74   10.59
  -8   6   5  157.10    8.93
  -8  -6  -5  166.09   12.95
  -6   6   5 1885.52   39.35
  -6  -6   5 1770.78   37.64
  -6   6  -5 1868.39   40.23
  -6   6   5 1827.57   28.79
  -6   6   5 1761.97   21.80
  -6  -6  -5 1830.34   39.41
  -4   6   5  336.20   15.39
  -4   6  -5  306.25   14.89
  -4   6   5  318.50   11.86
  -4  -6  -5  304.93   14.62
  -4   6   5  321.99    9.58
  -2   6   5 2561.45   39.55
  -2   6  -5 2734.50   40.87
  -2  -6   5 2577.86   32.64
  -2   6   5 2585.27   35.17
  -2  -6  -5 2753.84   39.07
  -2   6   5 2522.81   29.80
   0   6   5  332.24   13.32
   0   6  -5  328.65   12.80
   0  -6   5  346.00   13.25
   0  -6  -5  332.34   12.14
   0   6   5  319.10   11.97
   2   6  -5 2645.61   41.30
   2   6  -5 2668.11   40.28
   2   6   5 2786.45   34.94
   2   6  -5 2646.72   33.04
   2  -6   5 2768.60   41.14
   2   6   5 2809.12   40.16
   4   6  -5  335.31   15.68
   4   6  -5  326.36   14.78
   4   6  -5  320.90   14.72
   4   6   5  306.37   10.11
   4  -6   5  327.15   15.53
   4   6  -5  322.07   10.73
   4   6   5  308.88   14.71
   4   6  -5  323.23   12.66
   6   6  -5 1787.12   38.86
   6   6   5 1842.16   39.28
   6   6   5 1771.66   18.76
   6   6  -5 1759.26   35.17
   6   6  -5 1766.01   24.08
   6  -6   5 1913.98   40.28
   6   6  -5 1770.58   30.76
   8   6   5  159.25    6.18
   8   6  -5  202.56   14.02
   8   6  -5  196.24   12.20
   8   6  -5  198.73    8.34
   8  -6  -5  162.23    9.18
   8   6  -5  194.48   10.77
  10   6  -5  352.75   17.09
  10  -6  -5  319.66   13.67
  10   6  -5  361.16   12.22
  10   6  -5  335.93   15.28
  12   6  -5   53.27    6.90
  12   6  -5   58.28    6.90
  12   6  -5   57.72    5.22
  12  -6  -5   46.45    5.52
 -15  -7   5   22.27    6.22
 -15   7  -5   10.55    4.20
 -15   7   5    3.37    2.67
 -15  -7  -5   23.88    6.32
 -13   7   5   28.65    6.83
 -13   7  -5   29.45    4.81
 -13   7  -5   31.76    7.23
 -13  -7   5   22.32    5.98
 -13   7   5   24.88    4.35
 -13  -7  -5   32.50    7.54
 -11   7   5   51.51    4.96
 -11   7  -5   46.42    7.69
 -11   7   5   43.60    7.51
 -11  -7   5   37.31    6.90
 -11   7   5   49.70    5.74
 -11   7  -5   54.81    8.52
 -11  -7  -5   48.70    8.25
  -9   7   5    2.75    1.22
  -9   7   5    3.25    2.26
  -9  -7   5    2.65    1.87
  -9   7   5    0.56    0.79
  -9   7  -5    4.35    2.26
  -9  -7  -5    5.18    3.14
  -7  -7   5   13.52    3.51
  -7   7   5   10.57    3.35
  -7   7  -5   13.76    3.68
  -7   7   5   12.60    2.73
  -7  -7  -5   23.96    4.91
  -5   7   5  113.72    9.64
  -5   7  -5  125.44   10.13
  -5   7   5  117.85    7.96
  -5   7   5  114.13    6.30
  -5  -7  -5  118.27    9.97
  -3   7   5   39.96    5.40
  -3  -7  -5   17.66    2.97
  -3   7  -5   26.51    4.45
  -3   7   5   34.95    3.66
  -3  -7  -5   13.88    3.32
  -3  -7   5   23.22    3.38
  -3   7   5   36.19    4.56
  -1   7   5   35.74    4.85
  -1  -7  -5   74.90    4.50
  -1   7  -5   40.46    5.01
  -1  -7   5   60.95    5.66
  -1   7   5   30.64    3.80
  -1  -7  -5   69.62    6.52
   1   7   5   75.88    6.41
   1   7  -5   62.60    5.78
   1  -7   5   43.92    5.36
   1   7   5   79.97    6.67
   1  -7  -5   29.15    3.77
   3   7  -5   23.81    4.22
   3   7   5   17.51    3.43
   3   7   5   13.77    2.59
   3   7  -5   24.87    4.22
   3  -7   5   32.25    5.05
   3   7  -5   24.36    3.29
   5   7  -5  104.53    9.27
   5   7  -5  110.31    8.89
   5   7  -5   98.20    8.88
   5   7   5  132.48    6.44
   5  -7   5  143.98   11.04
   5   7  -5  106.60    6.70
   5   7   5  127.40   10.24
   5   7  -5  109.72    7.98
   7   7   5   17.04    4.21
   7   7  -5   13.89    3.59
   7   7  -5   17.35    3.64
   7   7   5   17.37    1.50
   7  -7   5   12.92    3.41
   7   7  -5   16.25    2.69
   7   7  -5   18.13    3.54
   7  -7  -5   10.74    2.69
   9   7  -5    4.51    2.49
   9   7   5    3.69    1.24
   9   7  -5    4.11    1.40
   9   7  -5    3.75    1.93
   9  -7  -5    2.23    1.28
  11   7  -5   32.73    5.41
  11  -7  -5   53.32    6.16
  11   7  -5   40.35    4.72
  11   7  -5   39.08    5.84
  13   7  -5   23.30    4.56
 -16   8   5   -0.06    3.05
 -16   8  -5   -1.09    3.58
 -14  -8   5    1.35    2.62
 -14   8   5    5.41    3.94
 -14   8  -5    5.59    3.38
 -14  -8  -5    3.90    2.86
 -12   8   5   11.95    2.66
 -12   8  -5   11.66    4.36
 -12   8   5   10.63    3.70
 -12  -8   5   11.63    4.57
 -12   8  -5    5.49    2.88
 -12   8   5   11.83    3.23
 -12  -8  -5   10.47    4.21
 -10   8   5   10.72    3.86
 -10   8   5   15.58    2.79
 -10  -8   5    3.92    2.89
 -10   8  -5   15.54    4.72
 -10   8   5   13.77    3.38
 -10  -8  -5    4.50    2.81
  -8  -8   5   28.05    5.77
  -8   8  -5   33.57    6.18
  -8   8   5   26.55    4.26
  -8  -8  -5   42.70    6.83
  -6   8   5   15.59    4.09
  -6   8   5   14.82    3.00
  -6   8  -5   15.97    3.92
  -6  -8  -5   32.86    5.73
  -6   8   5   14.42    2.51
  -4   8   5   78.81    8.30
  -4  -8  -5  132.83    8.75
  -4   8   5   80.60    6.91
  -4   8  -5  114.20    9.78
  -4  -8  -5  134.20   10.35
  -4   8   5   80.61    5.82
  -2  -8  -5   29.56    3.48
  -2   8   5   42.19    2.85
  -2   8  -5   33.78    5.03
  -2   8   5   42.09    4.55
  -2   8   5   47.79    5.48
  -2  -8   5   33.46    4.27
  -2  -8  -5   31.67    4.72
   0   8  -5   18.26    3.66
   0  -8  -5   20.93    3.76
   0  -8   5   18.02    3.53
   0   8   5   18.95    3.25
   2   8  -5   33.51    5.06
   2   8  -5   40.22    4.76
   2  -8   5   32.07    4.93
   2   8   5   31.82    4.70
   4   8   5  117.16    7.14
   4   8  -5   95.53    8.81
   4   8  -5   90.73    8.41
   4  -8   5  121.83   10.13
   4   8  -5   87.64    6.68
   4   8  -5   83.83    7.41
   4   8   5  127.66   10.09
   6   8   5   26.51    5.05
   6   8  -5   23.34    4.79
   6   8  -5   27.95    4.59
   6   8   5   27.81    2.92
   6  -8   5   13.56    3.84
   6   8  -5   29.27    3.70
   6   8  -5   26.18    4.27
   8   8   5   38.57    3.87
   8   8  -5   26.32    4.82
   8   8  -5   25.32    3.51
   8  -8  -5   23.19    3.84
   8   8  -5   24.51    4.28
  10   8  -5    5.34    2.54
  10   8  -5    0.65    1.21
  10   8   5    3.99    1.36
  10   8  -5    2.45    1.16
  10  -8  -5   14.10    3.50
  12   8  -5   15.48    4.32
  12   8  -5   12.29    2.93
  14   8  -5    4.83    2.25
 -15  -9   5   49.95   10.02
 -15   9   5   49.40    9.46
 -15   9  -5   57.88   10.29
 -15  -9  -5   49.34    9.57
 -13   9   5  154.06   15.82
 -13   9  -5  164.38   16.16
 -13  -9   5  160.22   16.24
 -13   9  -5  162.12   16.41
 -13   9   5  167.19   12.24
 -13  -9  -5  175.60   16.93
 -11   9   5   13.92    4.64
 -11   9   5   14.89    3.10
 -11  -9   5   13.79    4.18
 -11   9  -5   10.87    4.48
 -11   9   5   15.76    3.82
 -11  -9  -5   15.18    4.50
  -9  -9   5  139.92   12.99
  -9   9  -5  178.30   14.83
  -9   9   5  137.20   10.18
  -9  -9  -5  172.80   14.54
  -7   9   5  135.16    9.83
  -7   9  -5  143.15   12.40
  -7  -9  -5  122.11   11.63
  -5  -9  -5  383.55   16.24
  -5   9   5  329.39   14.90
  -5   9  -5  392.87   19.26
  -5  -9  -5  397.47   19.14
  -5   9   5  328.82   12.79
  -3  -9  -5   34.96    4.30
  -3   9   5   43.91    5.48
  -3   9  -5   31.07    5.28
  -3  -9   5   50.60    5.61
  -3  -9  -5   29.88    4.83
  -3   9   5   43.08    4.85
  -1   9   5  183.13    6.94
  -1  -9   5  170.90   10.52
  -1   9  -5  215.76   12.46
  -1   9   5  189.28   10.50
  -1   9   5  184.49   11.50
  -1  -9  -5  189.97   11.48
   1   9  -5  166.57   10.47
   1  -9   5  222.86   12.74
   1   9   5  188.53   11.42
   3   9  -5   50.78    6.55
   3  -9   5   29.14    4.94
   3   9  -5   46.99    5.29
   3   9   5   31.83    5.07
   5   9   5  372.97   12.64
   5   9  -5  351.60   18.09
   5   9  -5  341.65   17.78
   5   9  -5  323.07   13.58
   5  -9   5  409.82   19.66
   5   9   5  401.00   19.12
   5   9  -5  326.40   15.67
   7   9   5  128.14    5.97
   7   9  -5  123.26   10.03
   7   9  -5  128.38    8.58
   7   9  -5  124.73    9.86
   7  -9  -5  131.03    9.63
   9   9   5  176.12    9.08
   9   9  -5  139.20   11.06
   9   9  -5  145.22    9.29
   9  -9  -5  140.87   10.63
   9   9  -5  142.17   11.04
  11   9  -5   16.04    3.82
  11   9  -5   16.27    4.25
  11   9  -5   15.26    3.16
  11  -9  -5   13.46    3.37
  13   9  -5  177.65   13.06
 -14  10  -5   30.10    7.29
 -14  10   5   15.20    5.06
 -14 -10  -5   23.71    7.25
 -14 -10   5   12.56    4.41
 -14  10  -5   28.33    7.02
 -14 -10  -5   20.30    5.91
 -12  10  -5  111.49   13.27
 -12  10   5  143.81   15.05
 -12 -10   5  125.47   14.12
 -12  10  -5  113.75   13.54
 -12  10   5  133.30   11.21
 -12 -10  -5  113.94   13.71
 -10 -10   5  273.39   19.42
 -10 -10  -5  271.27   18.75
 -10  10  -5  284.03   19.64
 -10  10   5  300.81   16.20
 -10 -10  -5  281.61   19.86
  -8 -10   5  161.18   13.85
  -8 -10  -5  143.22   12.31
  -8  10   5  166.64   11.63
  -8  10  -5  143.21   13.08
  -8 -10  -5  142.19   13.23
  -6 -10  -5  581.84   21.93
  -6  10  -5  550.70   24.05
  -6  10   5  554.39   20.61
  -6  10   5  549.08   17.71
  -6 -10  -5  532.78   23.71
  -4 -10  -5   38.94    5.01
  -4  10   5   65.45    6.98
  -4  10  -5   64.91    7.92
  -4  10   5   64.61    6.16
  -4 -10  -5   46.38    6.55
  -2  10   5  308.66    9.82
  -2  10  -5  384.98   17.83
  -2 -10   5  320.49   15.21
  -2 -10  -5  372.77   17.23
  -2  10   5  318.02   15.68
  -2  10   5  322.26   14.24
   0  10  -5  300.29   15.05
   0 -10   5  304.45   15.15
   0  10   5  290.49   14.21
   0  10   5  298.50   15.43
   2  10  -5  323.35   16.84
   2 -10   5  408.04   18.63
   2  10  -5  303.35   14.40
   2  10   5  389.09   17.65
   4  10  -5   48.66    6.71
   4 -10   5   65.23    7.94
   4  10  -5   47.61    5.58
   4  10   5   44.05    6.35
   4  10  -5   45.88    6.11
   6  10   5  532.75   14.99
   6  10  -5  588.32   19.21
   6  10  -5  576.43   22.06
   8  10   5  142.09    5.75
   8  10  -5  161.64   12.14
   8  10  -5  165.92   10.41
   8 -10  -5  162.88   11.65
   8  10  -5  164.99   12.21
  10  10   5  274.48   12.19
  10  10  -5  269.95   15.84
  10  10  -5  272.28   13.60
  10 -10  -5  294.70   16.26
  12  10  -5  128.11    9.56
  12  10  -5  143.52   11.82
 -15  11  -5   47.24    9.57
 -15  11  -5   53.70   10.15
 -13  11   5   29.33    7.47
 -13  11  -5   34.37    7.56
 -13 -11  -5   22.57    6.32
 -13 -11   5   22.23    6.69
 -13  11  -5   29.86    7.09
 -13  11   5   23.90    5.44
 -13 -11  -5   23.69    6.67
 -11 -11   5   -1.85    2.83
 -11 -11  -5   -1.59    2.99
 -11  11   5    1.52    1.70
 -11  11  -5   -1.71    3.61
 -11 -11  -5    4.78    3.65
  -9 -11  -5   -0.80    2.00
  -9 -11   5    0.77    2.37
  -9  11   5   -0.35    1.03
  -9  11  -5    1.96    1.64
  -9 -11  -5   -0.21    1.62
  -7 -11  -5    2.64    1.29
  -7  11   5    7.03    3.12
  -7  11  -5    5.20    2.63
  -7 -11  -5    4.65    2.81
  -7  11   5    4.16    2.00
  -5 -11  -5   13.59    3.48
  -5  11  -5    9.86    3.78
  -5  11   5    6.54    2.70
  -5  11   5    4.20    1.72
  -5 -11  -5   15.99    4.31
  -3 -11  -5   35.37    4.74
  -3  11   5   66.80    7.45
  -3  11  -5   55.99    7.26
  -3 -11  -5   37.41    6.08
  -3 -11   5   43.74    5.82
  -3  11   5   58.28    6.31
  -1  11   5   98.56    6.15
  -1  11  -5   92.88    8.97
  -1  11   5  110.95    9.08
  -1  11   5  115.19   10.28
  -1 -11  -5   56.52    6.97
  -1 -11   5   70.95    7.55
   1 -11   5   98.85    9.28
   1  11  -5   75.30    7.92
   1  11   5   63.41    7.31
   1  11   5   65.19    7.70
   3  11  -5   50.28    7.02
   3 -11   5   50.82    7.05
   3  11  -5   48.08    6.09
   3  11   5   37.53    5.86
   5  11  -5    5.46    2.13
   5  11  -5    9.60    3.24
   7  11   5    5.62    1.64
   7  11  -5    1.84    1.03
   7  11  -5    0.68    1.15
   7  11  -5    2.37    1.86
   9  11  -5   -1.81    1.72
   9  11   5    0.46    0.37
   9  11   5    0.23    1.44
   9  11  -5    1.57    1.89
   9 -11  -5   -1.81    1.40
  11  11  -5   -1.39    1.46
  11  11  -5   -0.02    1.27
  13  11  -5   16.39    4.04
 -14  12  -5   36.59    8.57
 -14  12   5   65.07   11.71
 -14 -12  -5   33.24    7.59
 -14  12  -5   49.98    9.88
 -14 -12  -5   35.99    8.70
 -12 -12  -5  112.07   13.57
 -12 -12   5  121.44   14.63
 -12  12   5  131.15   11.94
 -12  12  -5  129.67   14.88
 -12 -12  -5  121.01   14.57
 -10 -12  -5  309.30   20.42
 -10  12  -5  339.10   22.49
 -10  12   5  313.43   17.80
 -10 -12  -5  341.72   22.64
  -8 -12  -5  253.96   16.79
  -8  12   5  367.88   18.93
  -8  12  -5  297.83   19.89
  -8 -12  -5  239.91   17.62
  -6 -12  -5  282.30   15.87
  -6  12  -5  255.12   17.16
  -6  12   5  261.82   15.69
  -6  12   5  259.41   13.80
  -6 -12  -5  301.97   18.66
  -4 -12  -5  530.94   19.69
  -4  12  -5  592.62   25.09
  -4  12   5  617.99   23.60
  -4 -12  -5  526.14   23.46
  -4  12   5  602.81   21.06
  -2  12   5 1089.25   21.75
  -2  12  -5 1141.01   33.30
  -2  12   5 1107.79   31.72
  -2 -12   5 1188.16   32.18
  -2 -12  -5 1170.72   32.93
  -2  12   5 1123.39   29.79
   0  12   5 1254.34   24.85
   0  12  -5 1247.47   33.46
   0 -12   5 1318.73   34.47
   0  12   5 1236.32   32.15
   0  12   5 1259.54   34.98
   2 -12   5 1210.82   34.60
   2  12  -5 1168.71   31.39
   2  12   5 1254.27   34.34
   4  12  -5  549.04   21.21
   4  12  -5  596.70   24.14
   6  12  -5  305.46   15.56
   8  12   5  252.29   10.05
   8  12  -5  313.47   17.80
   8  12  -5  319.68   16.20
   8 -12  -5  356.30   18.64
  10  12  -5  320.57   18.13
  10  12  -5  324.18   16.46
  12  12  -5  132.04   11.80
 -13  13   5   81.28   12.18
 -13 -13  -5   66.33   10.82
 -13 -13   5   60.99   10.66
 -13  13   5   70.08    9.21
 -13  13  -5   68.63   11.16
 -13 -13  -5   69.99   11.45
 -11 -13  -5   44.55    8.08
 -11  13   5   30.24    6.14
 -11  13  -5   38.27    7.90
 -11 -13  -5   43.48    8.44
  -9 -13  -5    9.37    3.20
  -9  13   5   27.47    5.89
  -9  13  -5   22.01    5.51
  -9 -13  -5   18.44    5.70
  -7 -13  -5   -0.77    1.76
  -7  13   5    1.76    1.77
  -7  13  -5    0.32    2.45
  -7 -13  -5    0.23    2.41
  -7  13   5    0.53    1.34
  -5 -13  -5   39.27    6.00
  -5  13  -5   39.79    7.29
  -5  13   5   22.30    4.90
  -5  13   5   20.04    4.13
  -5 -13  -5   46.98    7.61
  -3  13   5  156.75    8.86
  -3  13   5  179.72   13.33
  -3  13  -5  127.71   11.79
  -3 -13   5  180.99   12.79
  -3 -13  -5  134.58   12.16
  -3  13   5  169.93   11.93
  -1  13   5   12.25    2.58
  -1  13  -5    5.87    2.68
  -1  13   5   10.90    3.50
  -1 -13   5   19.37    4.67
  -1  13   5   14.59    3.93
   1  13  -5   16.51    3.85
   1  13   5    7.48    2.90
   1  13   5   10.49    3.92
   3  13  -5  184.74   12.96
   5  13  -5   25.89    4.83
   7  13  -5    1.16    1.54
   9  13  -5   17.52    4.38
   9  13  -5   19.78    4.36
  11  13  -5   53.54    7.74
  11  13  -5   49.15    6.93
 -12 -14  -5   78.91   11.67
 -12  14  -5   77.81   11.97
 -12  14   5   51.44    8.20
 -12 -14  -5   85.56   12.65
 -10 -14  -5  210.85   17.35
 -10  14  -5  191.12   17.54
 -10  14   5  194.08   15.31
 -10 -14  -5  225.51   19.44
  -8 -14  -5  215.45   16.30
  -8  14  -5  231.31   18.53
  -8  14   5  200.76   15.27
  -8  14   5  202.65   13.55
  -8 -14  -5  234.83   19.63
  -6 -14  -5   10.16    3.21
  -6  14   5   16.29    4.47
  -6  14  -5   21.39    5.60
  -6 -14  -5   18.68    5.30
  -6  14   5   13.62    3.51
  -4  14  -5   44.80    7.36
  -4  14   5   30.30    5.67
  -4  14   5   29.21    5.15
  -4 -14  -5   45.36    7.62
  -2  14   5  245.76   11.69
  -2  14  -5  262.15   17.17
  -2  14   5  250.31   16.35
  -2  14   5  267.09   15.89
   0  14   5  176.30   10.42
   0  14  -5  165.65   13.31
   0  14   5  175.70   14.08
   2  14  -5  303.69   17.57
   2  14   5  311.29   19.15
   4  14  -5   40.34    6.26
   6  14  -5   10.55    3.36
   8  14  -5  197.13   14.61
   8  14  -5  218.69   14.66
  10  14  -5  217.24   15.58
  10  14  -5  206.34   14.38
  12  14  -5   65.33    8.65
 -13 -15  -5    2.44    3.20
 -11 -15  -5    8.54    4.14
 -11  15   5   10.70    4.05
 -11  15  -5    6.70    3.02
 -11 -15  -5    5.31    2.70
  -9 -15  -5    8.71    4.19
  -9  15   5    2.57    2.71
  -9  15  -5    4.66    2.23
  -9 -15  -5    6.29    3.46
  -7 -15  -5    1.71    1.49
  -7  15  -5   -1.65    3.09
  -7  15   5   -0.46    1.56
  -7  15   5    1.02    1.16
  -7 -15  -5    2.79    1.61
  -5  15   5   40.50    6.99
  -5  15  -5   43.57    7.89
  -5  15   5   39.48    6.25
  -5 -15  -5   35.29    6.70
  -3  15   5    5.09    1.80
  -3  15  -5    2.97    1.55
  -3  15   5    5.76    2.98
  -1  15   5    3.15    1.72
  -1  15  -5    4.05    2.31
  -1  15   5    2.92    2.16
   1  15  -5    2.61    1.96
   1  15   5    3.35    2.36
   3  15  -5    9.24    2.89
   3  15   5   11.18    4.16
   5  15  -5   30.23    5.94
   7  15  -5    1.56    1.69
   9  15  -5    4.31    2.58
   9  15  -5    9.57    3.40
  11  15  -5    5.31    2.31
  11  15  -5    3.17    1.24
 -12 -16  -5    2.88    2.83
 -12  16   5    1.18    1.48
 -10 -16  -5   15.51    5.42
 -10  16   5   26.12    5.97
 -10  16  -5   10.20    4.71
 -10 -16  -5   14.01    5.70
  -8 -16  -5    3.82    2.60
  -8  16   5    1.69    3.05
  -8  16  -5    9.52    3.66
  -8 -16  -5    4.28    2.22
  -6  16  -5    5.18    3.41
  -6  16   5    4.50    2.70
  -6 -16  -5   15.71    4.93
  -4  16   5  115.17    8.97
  -4  16   5  116.50   12.08
  -4  16  -5  113.81   12.49
  -2  16   5   12.99    3.03
  -2  16  -5   13.72    4.67
  -2  16   5   12.60    3.98
   0  16   5  176.69   11.52
   0  16  -5  184.12   15.12
   0  16   5  186.84   15.58
   2  16  -5    2.77    2.51
   2  16   5    4.45    3.20
   4  16  -5   73.29    9.14
   4  16   5   72.08   10.20
   6  16  -5   13.35    4.28
   6  16   5   20.20    5.62
   8  16  -5    1.88    1.93
  10  16  -5   20.30    5.08
  10  16  -5   22.06    5.21
 -11 -17  -5   21.66    6.38
 -11  17   5   21.44    5.88
  -9 -17  -5   -0.88    2.59
  -9  17   5    2.41    2.66
  -9  17  -5    6.03    3.92
  -9 -17  -5    0.97    1.91
  -7  17   5  112.80   12.67
  -7  17  -5  134.98   15.09
  -5  17  -5   42.77    8.45
  -5  17   5   39.88    7.33
  -3  17   5    2.48    1.67
  -3  17  -5    6.97    3.43
  -3  17   5    3.94    2.67
  -1  17   5    9.58    2.53
  -1  17  -5    5.54    3.71
  -1  17   5    9.80    4.46
   1  17  -5   20.50    5.39
   1  17   5    3.89    2.72
   3  17  -5    5.47    2.71
   3  17   5    6.18    3.21
   5  17  -5   46.63    7.93
   5  17   5   40.79    7.98
   7  17  -5  123.40   12.62
   7  17   5  150.67   15.79
   9  17  -5    6.13    2.75
   9  17  -5    3.67    3.07
  11  17  -5   17.22    4.98
 -12  18   5  106.17   13.53
 -10 -18  -5    9.64    4.95
 -10  18   5    9.88    4.72
  -8  18   5  187.48   17.18
  -8  18  -5  207.59   19.33
  -6  18   5  117.71   13.25
  -6  18  -5  103.35   13.55
  -4  18   5  414.59   24.79
  -4  18  -5  444.63   26.38
  -2  18  -5  110.16   12.94
  -2  18   5   89.16   11.18
   0  18   5   24.20    4.63
   0  18  -5   30.99    7.03
   0  18   5   35.89    7.60
   2  18  -5   81.99   10.81
   2  18   5   89.89   12.03
   4  18  -5  376.05   22.70
   4  18   5  444.15   27.16
   6  18  -5  105.22   12.18
   6  18   5  110.40   13.91
   8  18  -5  179.21   15.79
   8  18   5  205.84   19.45
  10  18  -5    2.42    1.82
  10  18  -5    2.39    2.99
  10  18   5    2.02    3.68
 -11  19   5    2.36    2.25
  -9  19   5    8.47    3.27
  -7  19  -5   36.68    8.46
  -7  19   5   42.08    8.26
  -5  19  -5   -2.53    3.24
  -5  19   5    0.78    2.08
  -3  19  -5    6.93    3.67
  -3  19   5    6.72    3.56
  -1  19  -5   10.35    4.71
  -1  19   5    9.84    4.13
   1  19  -5   13.11    4.43
   1  19   5   11.09    5.00
   3  19  -5    7.73    4.05
   3  19   5   -0.87    1.81
   5  19  -5   -1.34    1.65
   5  19   5    4.96    3.76
   7  19  -5   42.51    8.19
   7  19   5   50.57    9.76
   9  19  -5    4.70    3.20
   9  19  -5    8.09    4.09
   9  19   5   15.49    6.03
 -10  20   5   51.09    9.48
  -8  20   5  152.59   16.48
  -6  20   5   89.52   12.43
  -6  20  -5   83.06   12.63
  -4  20   5  312.23   23.13
  -4  20  -5  315.42   23.66
  -2  20  -5  120.46   14.37
  -2  20   5  126.89   14.80
   0  20  -5  323.09   23.09
   0  20   5  311.79   22.97
   2  20  -5  112.18   13.37
   2  20   5  127.16   14.94
   4  20  -5  294.25   21.73
   4  20   5  344.21   25.11
   6  20  -5   90.52   11.97
   6  20   5   82.22   12.79
   8  20  -5  149.71   15.37
  -7  21   5   21.45    6.80
  -5  21  -5    1.98    2.76
  -5  21   5   -3.36    3.93
  -3  21  -5   64.29   10.93
  -3  21   5   52.30    9.97
  -1  21  -5    4.46    3.48
  -1  21   5    1.86    2.72
   1  21  -5    0.11    2.22
   1  21   5   -4.75    4.05
   3  21  -5   40.98    8.25
   3  21   5   46.00    9.28
   5  21  -5   -0.68    2.48
   5  21   5   -0.38    3.23
   7  21  -5   18.84    5.85
   9  21  -5   16.83    5.76
  -4  22   5   23.76    6.78
  -2  22  -5  105.60   14.37
  -2  22   5  115.73   14.75
   0  22  -5    2.45    2.07
   0  22   5    3.05    2.76
   2  22  -5  122.86   14.95
   2  22   5  121.67   15.50
   4  22  -5   23.92    6.81
   6  22  -5   40.08    8.57
   8  22  -5   20.09    6.42
   1  23  -5   -2.94    3.61
   3  23  -5   23.45    6.77
   5  23  -5   -0.52    1.74
 -16   0   6    3.41    3.00
 -16   0   6    4.99    2.05
 -16   0  -6    5.83    3.83
 -14   0   6   74.99   10.47
 -14   0   6   74.09   10.72
 -14   0  -6  101.65   12.69
 -12   0   6  259.17   17.63
 -12   0   6  252.68   18.20
 -12   0  -6  262.76   19.03
 -12   0   6  287.10   10.45
 -10   0  -6   17.89    4.52
 -10   0   6   19.48    4.60
 -10   0   6   21.42    4.37
 -10   0  -6   19.76    2.05
 -10   0   6   17.81    4.13
  -8   0  -6  805.44   27.84
  -8   0   6  747.26   26.70
  -8   0   6  750.83   23.00
  -8   0   6  766.24   25.48
  -8   0  -6  811.17   15.45
  -6   0   6   84.73    8.17
  -6   0  -6   29.16    4.86
  -6   0   6   79.22    6.40
  -6   0   6   78.10    7.63
  -4   0  -6 1589.22   32.25
  -4   0   6 1600.31   32.32
  -4   0   6 1558.08   24.23
  -4   0   6 1605.63   32.45
  -4   0  -6 1571.38   24.77
  -2   0  -6  193.89    7.22
  -2   0  -6  195.88    9.99
  -2   0   6  168.21    9.44
  -2   0   6  158.42    6.24
  -2   0  -6  192.51    9.25
  -2   0   6  181.76   10.13
   0   0  -6 2082.63   27.26
   0   0  -6 2026.89   28.25
   0   0   6 2071.27   28.30
   0   0   6 2005.30   27.98
   0   0   6 2010.42   32.83
   0   0  -6 2073.75   32.40
   2   0  -6  175.03    9.55
   2   0  -6  176.88    6.18
   2   0   6  187.53   10.05
   2   0  -6  179.22   10.10
   2   0  -6  172.69    7.02
   4   0  -6 1576.96   32.10
   4   0   6 1601.72   32.53
   4   0  -6 1549.49   31.74
   6   0  -6   76.23    8.26
   6   0   6   31.28    5.04
   6   0  -6   87.93    7.97
   8   0  -6  729.21   24.32
   8   0   6  831.29   28.19
 -17  -1   6   12.10    4.91
 -17   1   6   12.75    4.75
 -17  -1   6    3.35    2.73
 -17   1   6   13.59    5.47
 -15  -1   6    7.47    3.61
 -15  -1  -6   10.84    4.04
 -15   1  -6   17.08    5.55
 -15  -1   6    4.32    2.89
 -15   1   6    7.41    2.32
 -13  -1   6    7.42    3.36
 -13   1  -6   12.60    5.10
 -13  -1   6    7.10    3.45
 -13   1   6   12.73    4.69
 -13  -1  -6    5.20    2.94
 -13  -1   6    6.93    2.97
 -11   1  -6    5.67    1.22
 -11  -1   6    7.08    2.74
 -11  -1  -6    6.34    3.29
 -11  -1   6    5.34    3.14
 -11   1  -6   10.02    3.97
 -11   1   6   12.16    4.41
 -11   1   6    9.22    1.61
  -9   1   6   16.90    4.14
  -9   1  -6   25.32    5.50
  -9  -1   6   14.49    4.13
  -9  -1  -6   15.03    4.18
  -9  -1   6   14.92    3.60
  -9   1   6   17.22    3.89
  -9  -1  -6   16.94    1.60
  -9  -1   6   13.66    3.81
  -7   1  -6   69.39    7.96
  -7   1   6   90.46    8.95
  -7  -1  -6   34.16    5.58
  -7  -1   6   45.11    6.29
  -7  -1  -6   37.85    3.18
  -7   1   6   90.43    7.33
  -7   1   6   75.57    7.91
  -7  -1   6   46.15    5.52
  -7  -1   6   47.04    6.19
  -5   1   6   48.88    6.05
  -5  -1  -6   29.96    4.84
  -5   1  -6   20.69    3.62
  -5  -1   6   65.55    6.96
  -5   1   6   56.37    4.76
  -5   1  -6   19.70    2.94
  -5  -1  -6   25.08    2.91
  -5   1   6   55.79    6.24
  -5  -1   6   66.86    5.71
  -5  -1   6   63.14    6.87
  -3   1  -6  517.59   10.96
  -3  -1  -6  490.59   16.85
  -3   1  -6  538.84   17.84
  -3   1   6  577.78   18.36
  -3  -1   6  498.16   17.26
  -3  -1   6  500.96    8.72
  -3  -1  -6  488.26   14.01
  -3   1   6  561.38   18.66
  -3  -1   6  518.05   17.80
  -3   1  -6  542.68   15.60
  -1  -1   6   21.84    3.18
  -1   1  -6   32.57    3.37
  -1  -1  -6   32.47    3.78
  -1   1   6   26.16    3.52
  -1  -1   6   24.14    2.78
  -1  -1  -6   29.18    3.92
  -1   1   6   26.71    3.88
  -1   1  -6   38.47    4.23
  -1  -1   6   24.09    3.78
   1   1  -6   25.38    3.52
   1   1   6   28.21    3.08
   1  -1  -6   27.73    2.88
   1   1  -6   24.53    3.71
   1  -1  -6   30.68    4.25
   1   1   6   30.16    3.82
   1  -1   6   33.98    3.99
   3   1  -6  524.23   17.74
   3   1  -6  510.73   13.89
   3  -1  -6  547.36   18.30
   3   1  -6  519.51   17.79
   3   1   6  500.89   17.29
   3  -1   6  549.34   18.03
   3  -1  -6  547.25    7.44
   5   1  -6   61.25    6.75
   5  -1  -6   58.02    6.40
   5   1  -6   70.55    7.16
   5   1   6   29.94    4.91
   5  -1   6   22.16    4.03
   5   1  -6   67.00    2.80
   7   1  -6   44.54    6.43
   7   1  -6   44.52    2.58
   7  -1  -6   86.78    8.37
   7   1  -6   51.10    6.43
   7   1   6   40.03    6.08
   7  -1   6   75.84    8.25
   9   1  -6   15.97    3.77
 -16  -2   6   10.35    4.24
 -16  -2   6   10.16    4.48
 -16   2  -6   13.57    5.46
 -16   2   6   10.18    4.27
 -16  -2  -6   13.29    5.43
 -14  -2   6   66.62    9.74
 -14  -2  -6   57.92    9.61
 -14  -2   6   63.72   10.15
 -14   2   6   62.86    9.81
 -14   2  -6   74.84   10.99
 -12  -2   6  121.64   12.21
 -12   2  -6   89.52   10.72
 -12   2   6   97.09   11.54
 -12   2  -6   94.49    4.90
 -12  -2   6  110.09   12.24
 -12   2   6   96.48    5.32
 -12  -2  -6  111.88   12.62
 -10  -2   6    3.86    2.40
 -10  -2   6    6.57    2.81
 -10  -2  -6    1.31    1.69
 -10   2  -6   11.04    1.53
 -10   2   6   15.58    4.22
 -10  -2   6    5.36    2.64
 -10   2  -6   11.37    3.70
 -10   2   6   14.88    1.56
  -8  -2   6   51.72    6.24
  -8   2   6   34.58    5.77
  -8  -2  -6   49.81    2.60
  -8  -2   6   54.61    6.61
  -8   2  -6   26.27    2.16
  -8  -2   6   51.26    6.84
  -8   2  -6   25.80    5.27
  -8   2   6   34.03    5.99
  -8  -2  -6   47.74    7.01
  -6  -2   6    1.08    0.95
  -6  -2   6    3.82    1.95
  -6  -2  -6    2.05    0.77
  -6   2   6    8.17    2.11
  -6   2   6    8.15    2.79
  -6   2   6    6.69    2.44
  -6  -2  -6    2.37    2.35
  -6   2  -6    9.50    2.78
  -6  -2   6    0.90    1.72
  -4   2   6   37.86    5.11
  -4  -2   6   43.13    5.51
  -4  -2  -6   40.20    3.77
  -4   2   6   36.56    3.17
  -4   2  -6   34.10    4.99
  -4   2  -6   31.39    2.80
  -4  -2   6   47.81    5.65
  -4   2   6   34.43    4.96
  -4   2   6   39.40    2.68
  -4  -2  -6   41.35    5.31
  -2  -2   6   91.55    7.09
  -2   2   6   81.31    6.57
  -2   2  -6   71.46    4.91
  -2  -2  -6   90.86    6.31
  -2   2  -6   73.22    6.16
  -2   2   6   84.67    7.02
  -2   2  -6   73.58    6.35
  -2  -2   6   91.04    4.82
  -2  -2  -6   90.67    6.76
   0   2  -6  175.83    8.84
   0   2   6  174.93    7.93
   0   2   6  184.19    8.50
   0   2   6  183.35    9.65
   0  -2  -6  193.32    9.87
   0   2  -6  181.50    9.88
   0  -2   6  178.84    8.39
   0   2  -6  176.72    8.37
   0  -2  -6  190.98    8.25
   2   2  -6   91.83    7.14
   2   2   6   86.55    6.66
   2   2   6   88.99    4.84
   2  -2  -6   84.20    7.02
   2   2  -6   90.35    6.19
   2   2  -6   82.00    7.09
   2   2   6   88.20    6.15
   2  -2   6   70.86    6.19
   2  -2  -6   78.51    3.98
   4   2   6   44.96    5.47
   4   2  -6   46.80    5.85
   4  -2  -6   38.07    5.02
   4   2  -6   46.58    5.66
   4   2  -6   43.47    4.82
   4  -2   6   33.56    4.78
   4   2  -6   41.97    3.10
   6   2  -6    1.32    1.13
   6   2   6    3.14    2.27
   6   2  -6    5.07    2.57
   6  -2  -6    7.85    2.53
   6   2   6    0.47    1.08
   6  -2   6   11.32    3.39
   6   2  -6    3.07    0.91
   8   2  -6   50.89    3.71
   8   2  -6   53.99    7.34
   8   2   6   51.16    7.01
   8  -2   6   25.74    4.86
   8   2  -6   53.45    6.64
  10   2  -6   10.63    3.98
 -17   3   6   54.23   10.52
 -15  -3   6  195.24   17.96
 -15   3   6  207.38   18.51
 -15  -3   6  196.69   18.09
 -15  -3  -6  200.35   18.44
 -15   3  -6  213.24   19.28
 -13  -3   6  231.16   17.91
 -13   3  -6  226.17   18.35
 -13   3   6  233.57   18.36
 -13  -3   6  238.78   18.66
 -13  -3  -6  218.03   18.11
 -11  -3   6   32.62    6.09
 -11  -3  -6   33.05    6.52
 -11  -3   6   37.21    6.87
 -11   3  -6   45.33    3.88
 -11   3  -6   44.60    7.88
 -11   3   6   46.94    7.89
 -11   3   6   45.42    3.12
  -9  -3   6  414.41   19.28
  -9   3   6  343.58   18.16
  -9   3  -6  346.08   19.35
  -9   3   6  360.33   19.49
  -9  -3   6  396.66   20.39
  -9  -3  -6  414.15   21.24
  -7   3  -6 1587.16   38.02
  -7  -3   6 1631.28   38.42
  -7   3   6 1633.44   38.51
  -7   3   6 1666.63   37.41
  -7  -3   6 1660.14   34.99
  -7   3   6 1600.40   17.63
  -7  -3  -6 1567.06   37.56
  -5   3   6  476.38   18.81
  -5  -3   6  434.19   18.22
  -5  -3   6  435.96   16.10
  -5   3   6  485.01   19.04
  -5   3   6  487.98   12.58
  -5  -3  -6  478.84   11.94
  -5   3  -6  521.87   20.00
  -5   3   6  491.24   10.43
  -5  -3  -6  502.54   19.32
  -3  -3   6 1879.13   34.67
  -3   3   6 1838.44   33.38
  -3   3   6 1830.52   34.33
  -3  -3  -6 1699.41   25.88
  -3  -3   6 1805.56   19.99
  -3   3  -6 1697.76   32.77
  -3  -3  -6 1690.27   31.58
  -1   3   6  358.58   13.20
  -1   3   6  343.08   10.16
  -1   3  -6  382.94   12.62
  -1  -3  -6  389.77   13.58
  -1   3   6  360.76   14.30
  -1   3  -6  384.59   13.59
  -1  -3   6  353.95   11.22
  -1  -3  -6  394.46   13.19
   1   3   6  375.23   12.87
   1   3   6  386.82   11.67
   1   3  -6  351.71   13.61
   1  -3  -6  371.28   14.29
   1   3   6  398.13   13.75
   1   3  -6  361.13   14.56
   1   3  -6  366.14   11.29
   1  -3   6  392.39   13.82
   1  -3  -6  350.86   10.26
   3   3  -6 1860.35   34.28
   3   3   6 1697.20   31.86
   3  -3  -6 1813.06   33.85
   3   3   6 1701.89   18.86
   3   3  -6 1824.02   29.99
   3   3  -6 1867.02   34.72
   3   3   6 1693.20   25.65
   3   3  -6 1805.44   19.76
   3  -3   6 1692.08   32.39
   3  -3  -6 1758.30   15.40
   5   3   6  510.04   19.65
   5   3  -6  434.99   18.55
   5   3  -6  440.41   17.54
   5  -3   6  522.10   19.95
   5   3  -6  437.01   11.32
   7   3   6 1671.08   38.83
   7   3  -6 1725.09   39.73
   7   3  -6 1634.34   35.69
   7  -3   6 1613.86   38.28
   7   3  -6 1650.59   22.81
   9   3  -6  379.05   18.17
   9   3  -6  402.21   12.52
  11   3  -6   32.90    5.68
  11   3  -6   34.70    4.25
  11  -3  -6   45.52    3.65
 -16  -4   6   33.78    8.02
 -16   4  -6   33.78    8.00
 -16   4   6   32.09    7.84
 -16  -4  -6   41.38    8.70
 -14  -4   6    0.56    1.98
 -14   4   6    2.46    2.37
 -14   4  -6    0.56    2.58
 -14  -4  -6    2.98    1.97
 -12  -4   6    9.17    4.05
 -12   4  -6    7.91    2.00
 -12   4  -6   11.26    4.16
 -12  -4   6    5.57    3.12
 -12   4   6    7.33    3.80
 -12  -4  -6   11.70    4.39
 -12   4   6    4.81    1.18
 -10  -4   6    9.07    3.41
 -10  -4  -6   11.66    3.96
 -10   4   6   21.23    5.06
 -10  -4   6   14.19    4.59
 -10   4  -6   20.91    5.04
 -10   4   6   22.81    1.87
  -8  -4   6   21.40    4.76
  -8   4   6   25.26    4.99
  -8  -4  -6   18.09    4.32
  -8   4  -6   24.29    5.08
  -8   4  -6   26.06    5.49
  -8   4   6   26.86    2.80
  -8  -4   6   22.25    4.36
  -8   4   6   26.83    4.96
  -6  -4  -6   33.87    5.50
  -6   4   6   50.67    6.53
  -6  -4   6   59.11    7.34
  -6   4   6   53.52    6.73
  -6  -4   6   57.33    6.45
  -6   4   6   55.27    3.99
  -6   4  -6   35.54    5.69
  -4   4   6   11.76    3.17
  -4   4   6    9.35    1.04
  -4  -4  -6   12.16    3.01
  -4   4   6   12.04    1.50
  -4   4   6   12.10    3.28
  -4   4  -6   11.90    2.90
  -4   4   6   10.28    1.81
  -4  -4   6   12.16    1.68
  -2   4   6    0.35    0.62
  -2   4   6    1.28    1.80
  -2   4   6   -0.82    1.57
  -2  -4  -6    2.97    1.76
  -2  -4   6    0.85    0.83
  -2   4  -6   -0.23    1.34
  -2  -4  -6    0.42    1.11
   0   4   6  132.14    7.36
   0  -4  -6  136.89    8.77
   0   4  -6  137.29    8.36
   0   4   6  136.57    8.48
   0  -4   6  128.86    7.73
   0   4  -6  128.80    7.69
   0  -4  -6  132.99    7.33
   2   4   6    0.83    0.99
   2   4  -6   -0.11    0.83
   2   4  -6   -1.32    1.75
   2   4  -6    0.03    0.88
   2   4   6   -0.34    0.74
   2  -4   6    0.66    0.82
   2   4  -6    0.25    0.89
   2  -4  -6    0.97    0.75
   4   4   6   15.18    3.43
   4   4  -6    8.40    2.83
   4   4  -6    9.66    2.89
   4   4   6   11.98    2.05
   4   4  -6   13.92    2.93
   4  -4   6   12.84    3.16
   4   4  -6   10.15    1.61
   6   4   6   46.37    6.21
   6   4  -6   57.61    7.20
   6   4  -6   63.84    7.07
   6   4  -6   53.09    2.37
   6  -4   6   41.61    5.97
   6   4  -6   54.43    4.53
   8   4  -6   23.34    4.48
   8   4  -6   24.10    3.28
  10   4  -6    7.52    2.80
  10   4  -6   10.45    2.41
  10  -4  -6   22.30    2.78
  12   4  -6    6.47    2.23
  12   4  -6    8.08    2.52
 -15  -5   6  169.13   16.97
 -15   5  -6  181.67   17.93
 -15   5   6  200.47   18.56
 -15  -5  -6  174.09   17.74
 -13  -5   6  185.11   16.33
 -13   5   6  213.79   18.15
 -13   5  -6  213.65   18.14
 -13  -5  -6  195.23   17.52
 -11   5   6   14.90    5.00
 -11   5  -6    6.55    3.18
 -11  -5   6    8.20    3.51
 -11   5   6    8.68    2.20
 -11   5   6    6.70    1.33
 -11  -5  -6    5.76    3.27
  -9   5   6  193.73   14.76
  -9   5  -6  198.26   14.90
  -9  -5   6  221.25   14.91
  -9   5   6  209.71    9.05
  -9   5  -6  186.48   14.59
  -9  -5  -6  191.97   14.69
  -9   5   6  212.24    5.58
  -7   5   6 1350.05   35.91
  -7  -5   6 1392.74   34.28
  -7   5   6 1384.60   35.21
  -7   5  -6 1407.30   37.15
  -7   5   6 1338.55   22.18
  -7  -5  -6 1415.62   36.53
  -5   5   6 1387.93   33.65
  -5   5   6 1468.60   34.23
  -5   5  -6 1364.85   33.19
  -5   5   6 1414.76   22.93
  -5  -5  -6 1356.80   32.37
  -5   5   6 1366.02   13.75
  -3   5   6  861.11   24.68
  -3  -5   6  748.76   15.75
  -3   5  -6  868.78   24.44
  -3   5   6  828.73   18.68
  -3   5   6  805.60   14.36
  -3  -5  -6  788.68   22.54
  -1   5   6  857.69   22.90
  -1   5  -6  802.10   21.10
  -1  -5   6  734.41   18.05
  -1  -5  -6  706.51   18.90
  -1   5   6  824.17   17.66
   1   5  -6  760.43   21.50
   1   5   6  736.39   19.54
   1  -5   6  821.10   21.47
   1   5  -6  750.55   18.11
   1   5   6  712.57   19.06
   1  -5  -6  848.12   17.91
   3   5   6  795.53   22.62
   3   5  -6  775.11   23.20
   3   5  -6  781.56   23.21
   3   5   6  797.34   18.40
   3   5  -6  781.42   22.09
   3   5  -6  758.86   15.90
   3  -5   6  872.71   24.18
   5   5   6 1422.08   33.66
   5   5  -6 1430.83   34.20
   5   5  -6 1448.06   32.72
   5   5   6 1340.31   20.64
   5   5  -6 1419.55   32.38
   5  -5   6 1399.26   33.62
   5   5  -6 1403.05   18.44
   5   5  -6 1416.10   25.23
   7   5   6 1519.94   38.01
   7   5  -6 1420.58   36.68
   7   5  -6 1394.01   33.40
   7   5  -6 1417.69   16.51
   7  -5   6 1442.35   37.62
   7   5  -6 1379.36   25.55
   9   5  -6  218.70   13.89
   9   5  -6  221.81    6.15
   9   5  -6  227.44    6.27
   9   5  -6  218.04   10.78
  11   5  -6    5.11    1.99
  11   5  -6    1.89    1.77
  11   5  -6    4.50    0.92
  11   5  -6    4.95    1.06
  11  -5  -6    8.91    2.09
  13   5  -6  185.71   13.90
 -16  -6   6    0.68    1.75
 -16   6   6   -2.58    3.10
 -16   6  -6    0.39    1.68
 -14  -6   6   14.79    4.95
 -14   6  -6   24.32    6.43
 -14   6   6   19.74    6.33
 -14  -6  -6   23.61    6.63
 -12   6   6   34.13    7.22
 -12   6  -6   34.85    7.58
 -12   6  -6   37.01    4.83
 -12  -6   6   28.29    6.30
 -12   6   6   32.26    4.18
 -12  -6  -6   26.88    6.76
 -10   6   6  160.84   14.15
 -10   6  -6  154.57   13.99
 -10  -6   6   97.07   10.66
 -10   6  -6  145.17   13.69
 -10   6   6  164.36    8.99
 -10   6   6  164.47    6.37
 -10  -6  -6   96.06   10.97
  -8   6   6  176.35   13.75
  -8   6   6  174.56    5.80
  -8  -6   6  164.66   12.65
  -8   6  -6  167.35   13.44
  -8   6   6  173.95    8.94
  -8   6   6  181.08    6.01
  -8  -6  -6  156.34   12.85
  -6   6   6   47.71    6.78
  -6   6   6   46.21    6.50
  -6   6  -6   62.29    7.59
  -6   6   6   57.66    5.16
  -6   6   6   55.69    3.33
  -6  -6  -6   37.55    5.97
  -4   6   6   12.37    3.13
  -4   6  -6   15.61    3.36
  -4  -6  -6   20.31    3.94
  -4   6   6   15.05    2.55
  -4  -6   6   15.82    2.45
  -4   6   6   14.00    1.96
  -2   6   6  114.52    9.02
  -2   6  -6   79.36    7.26
  -2  -6   6   86.34    6.26
  -2   6   6  103.83    6.16
  -2  -6  -6   62.68    6.17
   0   6   6  365.90   14.90
   0  -6   6  359.83   14.05
   0   6  -6  361.35   13.92
   0   6   6  359.40   13.31
   0  -6  -6  364.43   13.40
   2   6  -6   87.32    7.81
   2   6   6   60.27    5.58
   2   6  -6   84.12    7.59
   2  -6   6   73.15    7.13
   2   6  -6   84.94    6.11
   2   6   6   62.48    6.28
   2  -6  -6  108.57    6.33
   4   6   6   21.27    4.00
   4   6  -6   16.66    3.86
   4   6  -6   15.59    3.45
   4   6  -6   12.49    3.48
   4   6   6   20.19    2.83
   4  -6   6   19.28    3.82
   4   6  -6   17.31    2.55
   6   6  -6   32.81    5.53
   6   6   6   37.39    5.93
   6   6  -6   24.68    4.12
   6   6   6   37.74    3.20
   6   6  -6   26.71    2.85
   6  -6   6   71.21    8.04
   6   6  -6   31.09    4.13
   8   6   6  139.50    4.06
   8   6  -6  168.22   12.14
   8   6  -6  170.21    6.81
   8   6  -6  159.73    9.54
  10   6  -6   99.91    9.69
  10   6  -6  103.61    5.33
  10   6  -6  103.83    5.31
  10  -6  -6  159.40    9.00
  10   6  -6   98.52    8.02
  12   6  -6   27.10    5.16
 -15  -7   6   37.91    8.37
 -15   7  -6   22.80    6.71
 -15   7   6   32.89    8.15
 -15  -7  -6   27.38    7.43
 -13  -7   6   35.15    7.40
 -13   7   6   44.07    8.64
 -13   7  -6   33.31    7.45
 -13  -7  -6   45.82    9.19
 -11   7   6    1.09    1.13
 -11   7   6   -2.61    3.08
 -11   7  -6   -3.09    2.92
 -11  -7   6   -0.77    2.11
 -11   7  -6    1.11    2.56
 -11   7   6    0.65    0.94
 -11  -7  -6   -0.24    2.35
  -9   7   6  106.06    5.54
  -9   7   6  109.47   11.39
  -9  -7   6   92.96   10.14
  -9   7  -6   90.98   10.67
  -9   7   6  104.77    7.68
  -9  -7  -6   99.69   11.20
  -7  -7   6  103.81    9.92
  -7   7   6   99.06    7.25
  -7   7  -6   89.59    9.73
  -7  -7  -6  105.93   10.43
  -7   7   6   91.43    5.02
  -5   7   6    1.97    1.62
  -5   7  -6    3.59    2.33
  -5  -7  -6   -0.30    1.17
  -5   7   6    0.98    0.97
  -5   7   6    2.15    1.07
  -3   7   6    3.13    1.92
  -3   7  -6    6.00    2.53
  -3  -7  -6    3.03    1.08
  -3  -7   6    2.55    1.09
  -3   7   6    3.35    1.56
  -3   7   6    2.23    1.06
  -1   7   6   13.43    3.30
  -1  -7  -6    2.32    0.86
  -1   7  -6    2.76    1.74
  -1  -7   6    9.69    2.44
  -1  -7  -6    4.17    1.85
  -1   7   6   11.70    2.46
   1   7   6    4.08    1.78
   1   7   6    4.78    2.17
   1   7  -6    9.88    2.19
   1  -7   6    1.71    1.03
   1  -7  -6   12.64    2.58
   3   7   6    3.39    1.29
   3   7  -6    4.10    1.98
   3   7   6    3.21    1.11
   3   7  -6    3.20    1.51
   3  -7   6    4.63    1.78
   3   7  -6    1.35    0.97
   5   7   6    1.37    1.41
   5   7  -6    2.54    1.80
   5   7  -6    0.28    1.26
   5   7  -6   -0.36    1.05
   5   7   6    1.60    0.95
   5   7  -6    3.03    1.65
   5  -7   6    1.86    1.27
   5   7  -6    1.06    0.75
   7   7   6  113.93    4.84
   7   7  -6  106.46    9.47
   7   7  -6  111.15    6.43
   7   7  -6  108.70    8.19
   9   7   6   88.92    4.18
   9   7  -6   96.43    9.50
   9   7  -6  110.69    6.28
   9   7  -6  102.04    8.30
  11   7  -6    0.21    1.60
  11   7  -6    3.11    2.03
  11  -7  -6   -0.75    1.07
  11   7  -6    2.68    1.19
  13   7  -6   36.51    6.21
 -14  -8   6    2.40    2.32
 -14   8   6    0.48    1.69
 -14   8  -6    2.44    2.57
 -14  -8  -6   -0.22    1.96
 -12   8   6  240.27   19.20
 -12   8  -6  282.31   20.89
 -12  -8   6  258.76   19.94
 -12   8  -6  284.69   21.01
 -12   8   6  253.43   13.35
 -12  -8  -6  256.28   20.01
 -10   8   6  193.20    8.48
 -10   8   6  202.97   16.72
 -10  -8   6  186.82   15.54
 -10   8  -6  144.08   14.15
 -10   8   6  186.77   11.20
 -10  -8  -6  144.59   14.06
  -8  -8   6  485.45   23.07
  -8   8   6  498.35   17.65
  -8   8  -6  510.37   24.33
  -8  -8  -6  514.81   24.42
  -8   8   6  501.45   13.52
  -6   8  -6  155.71   12.50
  -6   8   6  149.16    9.53
  -6  -8  -6  151.74   12.28
  -6   8   6  146.74    7.33
  -4   8   6  108.64    9.71
  -4  -8  -6  136.61    8.89
  -4   8  -6   94.50    9.05
  -4   8   6  103.99    7.90
  -4   8   6   98.86    6.40
  -4  -8  -6  119.72   10.17
  -4  -8   6  120.86    7.86
  -2   8   6 1091.10   29.18
  -2  -8  -6 1010.40   19.34
  -2  -8   6 1044.71   24.48
  -2   8  -6 1031.59   27.74
  -2   8   6 1084.94   26.66
  -2   8   6 1063.36   22.88
  -2  -8  -6 1032.57   27.31
   0   8   6  346.40   15.38
   0  -8   6  337.49   14.98
   0   8  -6  324.06   14.48
   0   8   6  318.10   13.59
   0  -8  -6  323.09   14.01
   2   8   6 1017.47   24.48
   2   8  -6 1079.50   29.27
   2   8  -6 1038.97   24.21
   2  -8   6 1065.97   28.71
   2   8   6 1054.82   27.52
   4   8  -6  121.08   10.26
   4   8   6  121.15    7.69
   4   8  -6  118.90   10.00
   4   8  -6  128.69    8.13
   4  -8   6   99.10    9.59
   4   8   6  133.81   10.72
   6   8   6  152.39    7.32
   6   8  -6  154.13   12.47
   6   8  -6  154.31   11.37
   6   8  -6  153.57    8.49
   6   8  -6  158.62   10.37
   8   8   6  488.90   12.56
   8   8  -6  475.09   20.67
   8   8  -6  500.80   15.02
   8   8  -6  485.60   18.87
  10   8   6  157.57    6.47
  10   8  -6  183.02   13.36
  10   8  -6  196.40    9.33
  10  -8  -6  193.09   11.41
  10   8  -6  175.00   11.76
  12   8  -6  254.41   16.21
  14   8  -6   -0.93    2.37
 -15  -9   6    8.44    4.21
 -15   9   6    8.50    4.40
 -15   9  -6    8.59    4.46
 -13   9   6  101.28   13.12
 -13   9  -6   96.23   12.71
 -13  -9   6   72.97   11.13
 -13   9  -6   92.13   12.59
 -13  -9  -6   66.16   10.54
 -11   9   6   54.12    4.97
 -11   9   6   51.73    8.88
 -11  -9   6   39.57    7.75
 -11   9  -6   50.65    8.67
 -11   9   6   57.73    6.75
 -11  -9  -6   51.54    8.82
  -9  -9   6   43.61    7.37
  -9   9  -6   59.57    8.91
  -9   9   6   57.79    6.51
  -9  -9  -6   51.98    8.33
  -9   9   6   53.58    4.87
  -7   9  -6  113.25   11.50
  -7   9   6  100.83    8.40
  -7  -9  -6   85.42    9.75
  -7   9   6  101.53    6.74
  -5  -9  -6  383.13   16.24
  -5   9  -6  364.27   18.86
  -5   9   6  364.36   15.72
  -5  -9  -6  386.82   19.27
  -5   9   6  356.59   12.98
  -3   9   6  435.27   19.59
  -3  -9  -6  410.29   14.17
  -3   9   6  414.43    8.42
  -3   9  -6  426.63   19.08
  -3   9   6  421.09   14.77
  -3   9   6  421.17   17.19
  -3  -9   6  416.98   16.41
  -3  -9  -6  414.19   18.71
  -1   9   6  113.35    9.50
  -1  -9   6   85.67    7.64
  -1   9  -6   99.68    8.65
  -1   9   6  122.03    9.47
  -1   9   6  111.58    8.29
  -1  -9  -6   73.01    7.23
   1   9   6   70.05    7.06
   1  -9   6   93.92    8.62
   1   9  -6   78.37    7.26
   1   9   6   67.52    6.87
   3   9  -6  426.12   19.78
   3   9   6  392.08   15.19
   3   9  -6  415.03   19.08
   3   9  -6  397.49   15.56
   3  -9   6  432.29   19.71
   3   9   6  407.80   18.49
   5   9   6  362.04   13.19
   5   9  -6  355.41   17.63
   5   9  -6  402.59   19.76
   5   9  -6  369.91   14.42
   5   9  -6  388.68   17.19
   5   9   6  396.64   19.61
   7   9   6   88.35    5.28
   7   9  -6   81.95    8.76
   7   9  -6   82.45    6.65
   7   9  -6   78.51    7.86
   9   9   6   53.13    4.52
   9   9  -6   46.32    6.74
   9   9  -6   45.60    4.89
   9   9  -6   42.67    6.04
  11   9  -6   39.80    6.24
  11   9  -6   39.19    6.30
  11   9  -6   44.78    4.84
  13   9  -6   74.32    9.17
 -14  10   6   -1.16    3.44
 -14  10  -6    4.21    4.24
 -14 -10   6   -2.83    4.29
 -14  10  -6    2.76    2.32
 -14 -10  -6    4.04    4.23
 -12  10   6   74.62   11.23
 -12  10  -6   70.80   10.78
 -12 -10   6   62.77   10.18
 -12  10   6   71.59    7.77
 -12  10  -6   80.39   11.39
 -12 -10  -6   71.23   11.14
 -10 -10   6   53.81    8.79
 -10  10  -6   41.11    7.52
 -10  10   6   48.20    6.45
 -10 -10  -6   48.53    8.59
  -8 -10  -6  269.58   16.88
  -8  10  -6  293.88   19.35
  -8  10   6  278.56   14.91
  -8 -10  -6  260.00   18.41
  -8  10   6  285.69   12.18
  -6 -10  -6  236.76   13.92
  -6  10  -6  235.12   16.07
  -6  10   6  218.06   13.02
  -6 -10  -6  230.23   15.98
  -6  10   6  203.25   10.28
  -4 -10  -6   97.01    7.77
  -4  10  -6  117.93   10.87
  -4  10   6  126.33    9.77
  -4  10   6  124.89    8.45
  -4 -10   6  107.81    8.40
  -4 -10  -6   93.71    9.56
  -2  10   6  561.55   11.20
  -2  10  -6  547.65   22.01
  -2 -10   6  653.75   21.73
  -2  10   6  575.36   21.81
  -2  10   6  551.30   18.54
  -2 -10  -6  633.68   23.05
   0  10  -6  115.09    9.46
   0 -10   6  109.61    9.40
   0 -10  -6  104.65    8.73
   0  10   6  122.52    9.43
   2  10   6  641.60   21.24
   2  10  -6  697.96   25.45
   2 -10   6  583.22   22.72
   2  10  -6  642.06   21.36
   2  10   6  641.06   22.80
   4  10   6   95.45    7.52
   4  10  -6  118.00   10.68
   4  10  -6  116.29    8.74
   4  10  -6  121.22    9.97
   4  10   6  101.55    9.86
   6  10   6  237.07   10.57
   6  10  -6  224.28   14.54
   6  10  -6  203.21   11.37
   6  10  -6  205.13   12.99
   8  10  -6  231.76   15.39
   8  10   6  270.62    8.16
   8  10  -6  249.37   12.46
   8  10  -6  237.49   14.37
  10  10  -6   52.47    7.59
  10  10  -6   59.37    5.97
  12  10  -6   67.27    8.83
 -13  11   6  194.64   18.71
 -13  11  -6  169.81   17.34
 -13 -11   6  186.43   18.33
 -13 -11  -6  176.14   17.51
 -13  11  -6  193.60   18.77
 -13 -11  -6  174.27   17.77
 -11  11   6  190.54   17.48
 -11 -11   6  162.51   16.05
 -11 -11  -6  160.56   15.46
 -11  11  -6  174.59   16.64
 -11  11   6  173.09   12.69
 -11 -11  -6  164.29   16.40
  -9 -11  -6  374.76   21.29
  -9  11  -6  388.59   23.41
  -9  11   6  397.89   18.74
  -9  11   6  401.88   15.51
  -9 -11  -6  371.50   22.99
  -7 -11  -6  409.50   19.92
  -7  11  -6  446.98   23.55
  -7  11   6  428.46   19.23
  -7  11   6  441.16   16.33
  -7 -11  -6  416.25   22.79
  -5 -11  -6  148.18   10.52
  -5  11  -6  161.32   13.32
  -5  11   6  171.07   11.94
  -5 -11  -6  150.03   12.69
  -5  11   6  169.89   10.36
  -3  11   6  536.26   12.49
  -3 -11  -6  564.18   18.14
  -3  11   6  539.67   21.27
  -3  11  -6  528.73   23.03
  -3  11   6  535.75   18.96
  -3 -11   6  577.80   21.19
  -3 -11  -6  562.27   23.22
  -1 -11   6  456.47   19.32
  -1  11  -6  387.27   18.47
  -1  11   6  464.08   20.48
  -1  11   6  467.04   18.69
  -1 -11  -6  378.50   17.78
   1  11  -6  435.63   18.91
   1 -11   6  406.44   19.15
   1  11   6  396.92   18.21
   3  11   6  567.28   20.02
   3  11  -6  559.85   20.65
   3  11   6  587.06   23.47
   5  11   6  141.55    9.13
   5  11  -6  160.37   10.81
   5  11  -6  172.60   12.54
   7  11  -6  373.72   19.70
   7  11   6  390.55   13.05
   7  11  -6  390.24   16.59
   7  11  -6  394.09   19.43
   9  11   6  367.14   14.37
   9  11  -6  394.37   16.53
   9  11  -6  387.40   20.36
  11  11  -6  163.20   10.58
  11  11  -6  160.28   13.30
  13  11  -6  191.89   14.64
 -14 -12  -6    2.50    2.32
 -14  12  -6    4.62    3.96
 -12  12   6   53.24    9.74
 -12 -12  -6   40.73    8.46
 -12 -12   6   32.99    7.61
 -12  12  -6   58.33   10.03
 -12  12   6   50.83    7.38
 -12 -12  -6   48.30    9.65
 -10 -12  -6   18.54    5.30
 -10  12   6   31.97    5.80
 -10  12  -6   25.94    6.38
 -10 -12  -6   18.04    5.22
  -8 -12  -6    4.53    2.88
  -8  12   6    0.69    1.10
  -8  12  -6   -0.32    1.67
  -8  12   6   -1.01    1.42
  -8 -12  -6    4.04    3.09
  -6 -12  -6   19.96    4.33
  -6  12   6   28.59    5.19
  -6  12  -6   30.14    6.20
  -6  12   6   29.85    4.58
  -6 -12  -6   15.05    4.23
  -4 -12  -6   55.50    6.31
  -4  12   6   72.57    8.15
  -4  12  -6   53.86    7.89
  -4 -12  -6   52.91    7.51
  -4  12   6   76.84    7.54
  -2  12   6  380.81   11.57
  -2  12  -6  374.58   19.26
  -2  12   6  377.30   18.93
  -2 -12   6  344.55   17.65
  -2  12   6  363.18   16.71
  -2 -12  -6  365.84   18.75
   0  12  -6  136.55   11.16
   0 -12   6  141.00   11.42
   0  12   6  156.45   12.44
   0  12   6  138.22   10.94
   2  12  -6  339.82   17.21
   2  12   6  359.61   18.56
   4  12  -6   65.11    7.30
   4  12  -6   61.81    7.83
   6  12   6   15.76    3.05
   6  12  -6   24.87    4.51
   8  12  -6    0.76    1.19
   8  12   6    0.45    1.15
   8  12  -6    0.42    1.16
  10  12  -6   23.41    5.43
  10  12  -6   28.54    4.80
  12  12  -6   42.37    7.19
 -13  13   6   25.55    7.08
 -13 -13  -6   31.34    7.50
 -13  13  -6   29.24    7.75
 -11 -13  -6  187.97   16.77
 -11  13  -6  193.23   18.27
 -11  13   6  222.36   15.79
 -11 -13  -6  202.24   18.73
  -9 -13  -6  414.95   22.80
  -9  13   6  389.59   20.42
  -9  13  -6  399.84   24.73
  -9 -13  -6  437.34   25.62
  -7 -13  -6  455.28   21.69
  -7  13  -6  424.18   23.99
  -7  13   6  401.55   20.37
  -7  13   6  393.67   17.40
  -7 -13  -6  419.57   23.86
  -5 -13  -6   92.36    9.00
  -5  13   6  102.09   10.09
  -5  13  -6   87.93   10.60
  -5 -13  -6   94.52   10.77
  -5  13   6   99.50    8.88
  -3  13   6   58.76    4.96
  -3  13  -6   43.13    6.85
  -3  13   6   55.25    7.57
  -3  13   6   56.92    6.91
  -3 -13   6   60.05    7.45
  -3 -13  -6   46.33    7.16
  -1  13  -6 1112.28   33.72
  -1  13   6 1071.65   33.75
  -1 -13   6 1086.10   32.83
  -1  13   6 1043.20   30.40
   1  13  -6 1064.79   32.22
   1  13   6 1145.88   35.60
   1  13   6 1143.55   33.60
   3  13  -6   61.41    7.50
   5  13  -6  104.99    9.60
   7  13   6  435.41   15.80
   7  13  -6  380.44   20.58
   7  13  -6  427.02   19.35
   9  13  -6  398.53   21.41
   9  13  -6  422.72   19.07
  11  13  -6  209.73   15.73
 -12 -14  -6   70.93   10.86
 -12  14  -6   94.22   13.43
 -12  14   6   92.79   10.66
 -12 -14  -6   67.91   11.36
 -10 -14  -6   33.60    7.28
 -10  14   6   35.37    6.75
 -10  14  -6   30.67    7.68
 -10 -14  -6   28.60    7.27
  -8 -14  -6   52.76    8.06
  -8  14   6   61.86    8.60
  -8  14  -6   62.63   10.04
  -8 -14  -6   47.63    8.53
  -6 -14  -6  115.22   10.69
  -6  14  -6  112.75   12.54
  -6  14   6   97.72   10.55
  -6 -14  -6  114.72   12.61
  -6  14   6   99.11    9.19
  -4  14   6   55.49    5.20
  -4  14  -6   68.23    9.42
  -4  14   6   56.52    8.00
  -4  14   6   51.95    6.82
  -4 -14  -6   37.86    6.96
  -2  14   6 1044.93   22.27
  -2  14   6 1006.84   33.30
  -2  14  -6  979.56   33.74
  -2  14   6 1004.84   30.62
   0  14  -6  205.13   14.98
   0  14   6  223.08   16.43
   2  14  -6 1005.01   32.27
   2  14   6  944.26   33.77
   4  14  -6   38.68    6.38
   6  14   6  114.43    9.18
   6  14  -6  118.05   10.86
   8  14  -6   44.24    7.47
   8  14  -6   47.09    6.92
  10  14  -6   31.58    6.20
  10  14  -6   35.43    5.84
  12  14  -6   78.80   10.10
 -13 -15  -6   29.81    7.40
 -11 -15  -6   10.62    3.81
 -11  15   6   20.14    5.12
 -11  15  -6   25.29    7.30
 -11 -15  -6   18.66    6.44
  -9 -15  -6  106.18   12.34
  -9  15   6  114.83   12.09
  -9  15  -6  119.42   14.41
  -9 -15  -6  101.43   13.07
  -7 -15  -6   22.84    5.10
  -7  15   6   32.32    6.38
  -7  15  -6   24.89    6.05
  -7 -15  -6   31.15    7.49
  -5  15  -6   -0.89    1.82
  -5  15   6    1.93    2.18
  -5  15   6   -0.72    0.93
  -5 -15  -6    0.43    2.61
  -3  15   6   20.34    3.41
  -3  15  -6    3.71    2.56
  -3  15   6   22.17    5.33
  -1  15  -6  726.29   29.45
  -1  15   6  736.79   29.81
   1  15  -6  725.25   28.93
   1  15   6  770.18   31.54
   3  15  -6   17.10    4.40
   3  15   6    6.41    2.49
   5  15  -6    1.62    2.05
   7  15  -6   33.73    5.95
   9  15  -6   93.04   10.98
   9  15  -6  104.76   10.52
  11  15  -6   13.92    4.40
 -12 -16  -6   52.34    9.75
 -10 -16  -6  195.75   17.47
 -10  16  -6  214.70   19.97
 -10  16   6  177.59   15.48
 -10 -16  -6  216.28   20.03
  -8 -16  -6  152.42   14.25
  -8  16   6  144.35   14.20
  -8  16  -6  159.29   16.39
  -8 -16  -6  155.69   16.75
  -6  16  -6   20.27    5.79
  -6  16   6   11.21    4.17
  -6 -16  -6   24.87    6.30
  -4  16   6  217.39   16.69
  -4  16  -6  229.18   18.20
  -2  16   6    6.41    2.17
  -2  16  -6    5.10    2.59
  -2  16   6    9.68    3.99
   0  16  -6  465.14   24.26
   0  16   6  452.08   24.72
   2  16  -6   10.04    4.42
   2  16   6    1.35    1.55
   4  16  -6  210.12   15.78
   4  16   6  197.42   17.22
   6  16  -6   16.68    4.44
   8  16  -6  127.65   13.03
   8  16  -6  139.60   12.70
  10  16  -6  188.84   15.90
  10  16  -6  194.75   14.95
 -11 -17  -6   59.96   10.22
 -11  17   6   69.55   10.20
  -9 -17  -6    6.31    2.80
  -9  17  -6    2.90    3.58
  -9  17   6   12.89    4.65
  -9 -17  -6    6.39    3.00
  -7  17  -6   73.37   11.31
  -7  17   6   78.98   10.59
  -7 -17  -6   96.20   12.91
  -5  17   6  450.43   25.17
  -5  17  -6  468.78   27.62
  -3  17   6  193.09   16.43
  -3  17  -6  177.15   16.13
  -1  17  -6   93.87   11.70
  -1  17   6   82.06   10.74
   1  17  -6   55.24    8.62
   1  17   6   85.48   11.38
   3  17  -6  161.75   14.48
   3  17   6  152.65   15.51
   5  17  -6  455.79   24.13
   5  17   6  457.42   27.30
   7  17  -6   90.37   10.69
   9  17  -6    6.77    3.57
   9  17  -6   10.40    3.60
  11  17  -6   58.12    9.05
 -10 -18  -6   68.66   10.73
 -10  18   6   55.80    9.15
  -8  18   6    8.36    4.41
  -8  18  -6    6.20    3.00
  -8 -18  -6   14.08    5.34
  -6  18  -6   19.18    6.10
  -6  18   6   13.79    4.57
  -4  18   6  122.27   13.43
  -4  18  -6  115.79   13.73
  -2  18  -6   40.84    8.11
  -2  18   6   41.34    7.84
   0  18   6  399.20   24.70
   0  18  -6  395.79   24.22
   2  18  -6   43.23    8.10
   2  18   6   39.41    8.07
   4  18  -6  123.33   13.01
   4  18   6  136.42   15.42
   6  18  -6   11.35    4.36
   6  18   6   13.21    4.75
   8  18  -6   15.93    4.45
   8  18   6   22.21    6.92
  10  18  -6   69.37   10.26
 -11  19   6  107.40   13.50
  -9  19   6   34.45    7.90
  -7  19  -6   46.10    9.42
  -7  19   6   41.38    8.13
  -5  19   6  182.37   17.14
  -5  19  -6  217.62   19.80
  -3  19   6  188.19   17.12
  -3  19  -6  154.65   16.07
  -1  19   6  151.44   15.73
  -1  19  -6  166.46   16.35
   1  19  -6  131.83   14.33
   1  19   6  133.53   14.87
   3  19  -6  134.49   14.24
   3  19   6  125.46   14.87
   5  19  -6  163.67   15.38
   5  19   6  203.74   19.35
   7  19  -6   46.12    7.99
   7  19   6   41.01    8.99
   9  19  -6   34.90    7.50
   9  19  -6   27.22    6.47
 -10  20   6   10.64    4.87
  -8  20   6   -0.72    2.22
  -6  20  -6    3.48    3.90
  -6  20   6   -3.79    2.90
  -4  20  -6   14.55    5.66
  -4  20   6   13.23    5.58
  -2  20  -6    6.34    3.58
  -2  20   6    2.84    3.67
   0  20  -6    8.33    4.18
   0  20   6    9.29    4.49
   2  20  -6    1.91    4.27
   2  20   6   -2.86    2.79
   4  20  -6    6.15    3.42
   4  20   6   10.05    4.24
   6  20  -6   -0.22    2.21
   6  20   6   -1.53    2.36
   8  20  -6   -1.56    2.91
  -7  21   6  101.81   13.62
  -5  21   6  154.04   16.72
  -3  21   6   73.35   11.50
  -3  21  -6   80.09   12.06
  -1  21  -6  113.04   14.31
  -1  21   6   98.95   13.57
   1  21  -6   99.83   13.20
   1  21   6  117.03   14.66
   3  21  -6   78.12   11.61
   3  21   6   89.12   13.23
   5  21  -6  154.00   16.04
   7  21  -6   87.40   12.19
   9  21  -6   40.45    8.24
  -4  22   6   63.78   11.35
  -2  22  -6   12.05    5.11
  -2  22   6   11.91    5.17
   0  22  -6   68.63   11.46
   0  22   6   62.12   11.04
   2  22  -6    7.73    4.91
   4  22  -6   51.07    9.42
   6  22  -6   24.60    6.82
   8  22  -6   18.64    6.29
   3  23  -6   -1.05    2.65
   5  23  -6   10.73    4.99
 -16   0  -7    3.74    3.44
 -16   0   7   -1.72    1.93
 -16   0   7   -2.30    3.30
 -14   0   7   -5.71    4.28
 -14   0  -7   -0.98    1.75
 -14   0   7   -2.00    2.35
 -12   0  -7   -0.05    1.70
 -12   0   7   -1.33    2.28
 -12   0   7   -2.54    1.84
 -10   0  -7   -1.79    3.15
 -10   0   7   -0.58    1.70
 -10   0  -7    0.53    0.71
 -10   0   7   -0.87    1.90
  -8   0  -7   -1.09    1.43
  -8   0   7    4.44    2.26
  -8   0  -7   -0.38    0.57
  -8   0   7    1.68    1.24
  -8   0   7   -0.12    2.08
  -6   0  -7    1.75    1.92
  -6   0   7   -2.10    2.20
  -6   0  -7   -0.26    0.92
  -6   0   7    1.82    0.91
  -6   0   7    1.30    1.14
  -4   0  -7    1.20    1.39
  -4   0   7   -1.51    1.11
  -4   0   7    0.31    0.26
  -4   0   7   -0.31    1.32
  -4   0  -7   -0.44    0.85
  -2   0  -7   -0.42    1.47
  -2   0   7    0.09    1.40
  -2   0  -7   -0.04    0.77
  -2   0   7   -0.23    0.63
  -2   0  -7    0.30    1.16
  -2   0   7   -0.35    0.87
   0   0   7    0.39    0.84
   0   0  -7    0.92    0.95
   0   0  -7    0.36    0.86
   0   0   7    0.72    1.19
   0   0   7   -1.09    1.53
   0   0  -7    1.18    1.96
   2   0  -7    0.77    0.83
   2   0  -7    0.89    1.33
   2   0   7    0.87    1.61
   2   0  -7    1.07    0.76
   2   0  -7    1.32    1.60
   4   0  -7    0.42    1.36
   4   0  -7   -0.29    0.30
   4   0   7   -0.28    1.08
   4   0  -7    2.89    2.05
   6   0  -7    1.83    2.05
   6   0  -7   -0.91    1.63
   6   0   7   -0.56    1.68
   8   0  -7    1.25    1.69
 -17   1   7   18.84    5.94
 -17  -1   7   21.05    6.86
 -15  -1   7  254.87   19.94
 -15   1   7  210.83   17.92
 -15  -1   7  257.81   21.22
 -15   1   7  232.80   20.07
 -15   1  -7  218.55   19.85
 -15  -1  -7  261.98   21.77
 -13  -1   7  170.17   14.90
 -13   1   7  180.36   15.02
 -13  -1   7  165.01   15.95
 -13   1   7  178.84   16.40
 -13  -1  -7  168.48   16.39
 -13   1  -7  168.11   16.18
 -11  -1   7  381.56   20.13
 -11   1   7  344.47   18.55
 -11   1  -7  354.03   10.77
 -11   1  -7  345.94   21.23
 -11   1   7  351.16   21.29
 -11  -1   7  368.91   22.08
 -11  -1  -7  353.36   22.01
  -9  -1   7   39.66    6.18
  -9   1   7   35.92    5.48
  -9  -1  -7   48.06    3.38
  -9  -1   7   38.29    5.72
  -9   1  -7   45.80    4.30
  -9   1  -7   47.01    7.30
  -9  -1   7   38.60    6.74
  -9   1   7   36.00    6.54
  -9  -1  -7   52.05    7.88
  -7  -1  -7 1080.64   31.76
  -7   1  -7 1119.39   32.46
  -7   1   7 1115.14   32.70
  -7  -1   7 1189.55   33.52
  -7   1  -7 1098.96   22.40
  -7   1   7 1152.58   25.58
  -7  -1  -7 1128.08   19.92
  -7   1   7 1127.61   32.02
  -7  -1   7 1193.17   28.27
  -7  -1   7 1179.84   32.25
  -5  -1  -7 1936.95   38.90
  -5   1  -7 1807.44   37.87
  -5   1   7 1885.45   38.92
  -5  -1   7 2068.69   40.67
  -5  -1  -7 1950.83   28.71
  -5   1   7 1883.88   27.83
  -5   1   7 1951.14   39.38
  -5  -1   7 2170.85   40.90
  -5   1  -7 1724.86   28.99
  -3   1   7 2826.57   43.01
  -3  -1  -7 2826.63   42.16
  -3   1  -7 2786.71   28.51
  -3   1  -7 2895.69   43.19
  -3  -1   7 2867.02   43.86
  -3   1   7 2773.53   25.98
  -3  -1   7 2781.16   24.44
  -3  -1   7 2809.84   45.65
  -3  -1  -7 2861.54   37.54
  -3   1   7 2854.02   45.38
  -3   1  -7 2797.88   38.52
  -1  -1  -7  627.46   17.44
  -1   1   7  639.23   18.32
  -1   1  -7  624.60   17.62
  -1   1  -7  589.32   15.67
  -1  -1   7  670.17   18.94
  -1  -1   7  659.65   15.61
  -1  -1   7  697.92   20.78
  -1   1  -7  596.29   18.59
  -1   1   7  665.54   20.36
  -1  -1  -7  623.50   18.47
   1  -1  -7  629.92   14.48
   1   1  -7  672.86   18.99
   1   1   7  606.66   15.33
   1   1   7  628.56   18.83
   1  -1  -7  685.04   20.62
   1   1  -7  697.60   20.82
   1   1   7  619.70   18.22
   1  -1   7  611.16   17.84
   3   1  -7 2860.95   43.75
   3  -1  -7 2817.34   44.43
   3   1  -7 2808.94   33.75
   3   1  -7 2844.26   44.87
   3  -1   7 2836.22   43.24
   3   1   7 2906.60   44.00
   3  -1  -7 2744.35   21.24
   5   1  -7 2115.49   41.44
   5  -1  -7 1913.40   39.21
   5   1  -7 2125.09   40.68
   5   1   7 2052.48   41.26
   5  -1   7 1840.53   38.71
   5   1  -7 2069.51   15.11
   7   1  -7 1193.39   33.74
   7  -1   7 1148.90   33.27
   7   1   7 1161.73   33.29
   7  -1  -7 1128.77   31.13
   7   1  -7 1208.57   32.43
   9   1  -7   39.59    6.30
 -16   2   7   26.14    6.35
 -16  -2   7   26.01    6.67
 -16  -2   7   30.08    7.57
 -16   2  -7   33.51    8.31
 -16   2   7   30.78    7.94
 -14  -2   7    9.25    3.96
 -14   2   7   19.26    5.57
 -14  -2  -7   12.85    5.18
 -14  -2   7   15.89    5.45
 -14   2  -7   10.80    4.72
 -14   2   7   19.80    5.88
 -12   2  -7  153.56    7.72
 -12  -2   7  127.67   12.42
 -12   2   7  123.26   11.84
 -12   2  -7  154.53   14.94
 -12   2   7  130.99   13.78
 -12  -2   7  141.26   14.28
 -12  -2  -7  155.54   15.26
 -10  -2   7  242.87   15.50
 -10   2   7  206.97   13.56
 -10   2  -7  307.21   19.42
 -10   2   7  211.79   15.98
 -10  -2   7  252.16   17.46
 -10  -2  -7  328.10   20.19
  -8  -2   7  224.86   14.54
  -8   2   7  233.12   12.22
  -8   2   7  223.87   14.66
  -8  -2  -7  258.51    8.01
  -8  -2   7  225.98   13.42
  -8   2  -7  257.70   16.42
  -8   2   7  224.17   15.42
  -8  -2   7  237.04   15.61
  -8  -2  -7  272.33   16.93
  -6   2   7  300.14   11.45
  -6  -2   7  312.81   16.27
  -6  -2  -7  277.90    9.92
  -6  -2   7  310.19   14.10
  -6   2   7  308.90   16.28
  -6   2  -7  267.38   15.54
  -6   2   7  295.35   16.38
  -6   2  -7  256.10    6.85
  -6  -2   7  288.78   16.18
  -6  -2  -7  269.83   15.45
  -4   2  -7  447.69   18.16
  -4   2   7  505.03   19.28
  -4  -2   7  448.53   18.39
  -4   2  -7  431.87   11.08
  -4   2  -7  453.11   15.60
  -4  -2   7  479.52   18.65
  -4   2   7  503.80   19.80
  -4  -2  -7  434.61   13.85
  -4  -2   7  458.70    7.70
  -4   2   7  504.28   10.52
  -4  -2  -7  444.96   17.80
  -2   2  -7  180.00    8.35
  -2   2   7  149.17    9.47
  -2  -2   7  109.27    8.37
  -2  -2  -7  150.78    8.88
  -2   2   7  149.96   10.06
  -2   2  -7  191.04   10.45
  -2  -2   7  107.35    5.76
  -2  -2  -7  150.23    9.18
   0   2  -7  283.98   12.00
   0   2   7  298.50   11.79
   0  -2  -7  296.49   13.22
   0   2   7  298.48   13.51
   0   2  -7  289.69   13.42
   0  -2   7  295.62   11.62
   0  -2  -7  295.05   11.02
   2   2   7  142.55    6.76
   2   2  -7  113.65    8.65
   2  -2  -7  151.08   10.17
   2  -2  -7  144.71    5.24
   2   2  -7  109.65    8.58
   2   2  -7  108.57    7.04
   2   2   7  143.14    8.65
   2  -2   7  179.21   10.31
   2  -2  -7  144.42    5.98
   4   2  -7  489.47   19.14
   4   2  -7  468.26   18.91
   4   2  -7  459.45   15.52
   4  -2  -7  500.78   19.43
   4  -2   7  486.54   18.84
   6   2  -7  323.46   16.91
   6  -2  -7  297.95   15.81
   6   2  -7  313.38   16.08
   6   2   7  293.67   16.23
   6  -2   7  261.40   15.14
   6   2  -7  300.56    7.55
   8   2  -7  229.61   14.48
   8   2  -7  228.70    6.79
  10   2  -7  228.61   15.13
 -17   3   7   22.91    6.58
 -15  -3   7   35.38    7.85
 -15   3   7   29.55    7.40
 -15  -3   7   45.41    9.49
 -15   3  -7   41.00    9.03
 -15   3   7   26.67    6.75
 -15  -3  -7   48.91    9.43
 -13  -3   7  123.13   12.93
 -13   3  -7  143.84   15.16
 -13   3   7  133.02   14.22
 -13  -3   7  130.06   14.15
 -13  -3  -7  136.79   14.80
 -11  -3   7   -0.10    2.22
 -11  -3  -7    0.56    1.76
 -11  -3   7   -2.03    2.57
 -11   3   7   -2.39    3.43
 -11   3  -7   -1.35    2.20
 -11   3  -7    0.09    0.50
  -9   3   7   42.72    5.81
  -9  -3   7   54.30    7.19
  -9   3  -7   63.40    8.81
  -9   3  -7   72.91    3.86
  -9   3   7   48.56    7.76
  -9  -3   7   62.43    8.54
  -9  -3  -7   81.96    9.74
  -7  -3  -7   45.39    3.51
  -7  -3   7   44.38    6.65
  -7   3  -7   26.44    5.18
  -7  -3  -7   42.43    6.61
  -7   3   7   28.17    5.12
  -7   3   7   26.48    3.70
  -7  -3   7   37.36    5.45
  -7   3   7   28.68    5.30
  -7   3   7   28.05    1.98
  -5   3  -7  958.37   28.17
  -5  -3   7 1075.71   30.02
  -5   3   7  930.01   27.81
  -5  -3  -7 1051.54   20.26
  -5   3   7  976.27   28.65
  -5   3   7  943.24   17.25
  -5   3   7  953.99   14.76
  -5  -3  -7 1065.44   29.27
  -3  -3   7  131.38    9.68
  -3   3  -7  172.50    8.19
  -3   3   7  162.38   10.58
  -3   3   7  166.89   11.25
  -3  -3  -7  146.02    8.39
  -3   3  -7  175.43   11.07
  -3  -3   7  134.02    6.03
  -3  -3  -7  143.46    9.72
  -1   3   7   59.90    4.60
  -1   3  -7   49.94    4.90
  -1   3   7   62.49    5.85
  -1   3  -7   57.28    6.07
  -1  -3  -7   51.34    5.37
  -1   3   7   58.89    6.43
  -1   3  -7   53.49    5.45
  -1  -3   7   54.42    4.75
  -1  -3  -7   59.23    5.53
   1   3   7   50.94    5.14
   1   3  -7   56.65    5.92
   1   3   7   57.29    4.95
   1  -3  -7   68.39    6.68
   1   3   7   53.31    5.61
   1  -3  -7   58.43    2.57
   1   3  -7   59.92    6.44
   1   3  -7   60.58    5.05
   1  -3   7   53.92    5.42
   1  -3  -7   59.46    4.57
   3   3   7  144.06    6.10
   3   3  -7  140.64   10.03
   3   3   7  150.55   10.10
   3  -3  -7  168.31   10.92
   3   3  -7  131.20    9.80
   3   3   7  142.69    8.18
   3   3  -7  134.75    8.47
   3   3  -7  137.12    6.03
   3  -3   7  178.04   11.03
   3  -3  -7  155.40    5.23
   5   3   7 1087.76   29.74
   5  -3  -7  936.89   28.01
   5   3  -7 1064.87   29.75
   5   3  -7 1041.54   28.97
   5  -3   7  939.71   27.55
   5   3  -7 1038.45   17.62
   7   3  -7   40.73    6.05
   7   3   7   48.34    6.95
   7   3  -7   38.08    3.24
   9   3  -7   53.56    7.22
   9   3  -7   59.51    4.40
  11   3  -7    2.82    2.86
 -16  -4   7  146.02   16.35
 -16   4   7  127.65   15.52
 -14  -4   7  128.69   14.16
 -14   4  -7  126.14   14.38
 -14   4   7  128.56   14.64
 -14  -4  -7  121.26   14.32
 -12  -4   7  155.38   14.20
 -12   4  -7  138.28   14.52
 -12   4   7  148.76   14.81
 -12  -4   7  156.87   15.25
 -12  -4  -7  138.92   14.30
 -10  -4   7  108.69   10.77
 -10   4  -7  109.11   11.87
 -10   4   7  119.07   12.41
 -10  -4   7  118.33   12.24
 -10  -4  -7   82.04   10.23
  -8   4  -7  198.97   14.68
  -8  -4   7  205.08   14.94
  -8   4   7  240.24   15.99
  -8  -4   7  210.85   13.68
  -8   4   7  232.38    7.30
  -8  -4  -7  185.45   14.24
  -6  -4   7  501.86   21.76
  -6   4   7  451.21   20.25
  -6   4   7  468.48   20.72
  -6   4   7  480.97   13.42
  -6   4  -7  441.59   20.34
  -6   4   7  463.75   11.35
  -6  -4  -7  488.63   21.21
  -4   4   7  766.50   24.20
  -4  -4  -7  731.04   17.89
  -4   4   7  758.16   24.72
  -4   4  -7  790.49   25.00
  -4  -4   7  704.84   12.94
  -4   4   7  782.33   16.82
  -4  -4  -7  730.98   23.41
  -2   4   7  151.02    6.77
  -2   4   7  164.48   10.33
  -2   4  -7  140.60    8.32
  -2  -4  -7  150.94    8.91
  -2   4   7  160.88   10.66
  -2   4  -7  144.59    9.61
  -2  -4   7  166.52    7.94
  -2  -4  -7  145.48    9.22
   0   4   7   21.11    3.40
   0   4  -7   20.32    3.53
   0   4   7   22.28    3.19
   0  -4  -7   19.66    3.72
   0   4  -7   22.59    3.99
   0   4   7   21.67    3.91
   0   4  -7   19.50    3.25
   0  -4   7   19.41    3.24
   0  -4  -7   21.26    3.21
   2   4  -7  163.16   10.53
   2   4   7  149.31    9.52
   2   4   7  143.49    7.30
   2  -4  -7  157.46   10.54
   2   4  -7  171.97   10.06
   2   4   7  153.46    8.96
   2   4  -7  168.63   11.29
   2   4  -7  172.25    8.06
   2  -4   7  152.49    9.95
   2  -4  -7  166.92    7.09
   4   4  -7  713.27   23.73
   4   4   7  768.63   24.06
   4   4   7  722.09   12.35
   4   4  -7  706.57   21.13
   4   4  -7  693.07   23.22
   4   4   7  715.67   17.59
   4   4  -7  686.02   12.72
   4  -4   7  782.04   24.64
   6   4   7  519.02   21.76
   6   4  -7  527.05   22.18
   6   4  -7  513.32   21.03
   6  -4   7  459.53   20.49
   6   4  -7  515.60   13.91
   8   4  -7  206.77   13.81
   8   4  -7  215.74    9.18
  10   4  -7  108.80   10.44
  10   4  -7  119.14    7.30
  12   4  -7  139.12   12.35
 -15  -5   7   12.37    4.95
 -15   5  -7   19.17    5.96
 -15   5   7   10.51    4.55
 -15  -5  -7   17.67    5.90
 -13  -5   7   -1.10    2.19
 -13   5  -7    4.13    3.01
 -13   5   7   -0.23    2.32
 -13  -5  -7    4.65    4.33
 -11  -5   7  332.93   20.33
 -11   5   7  328.63   21.39
 -11   5  -7  316.68   21.07
 -11  -5  -7  314.83   20.98
  -9   5  -7   86.65   10.27
  -9   5   7  104.32   11.38
  -9  -5   7   80.93    9.21
  -9   5   7  106.22    5.89
  -9  -5  -7   68.54    9.15
  -7   5   7  139.69   12.10
  -7  -5   7  111.11    9.89
  -7   5   7  141.58    7.05
  -7   5  -7  149.51   12.62
  -7  -5  -7  129.37   11.50
  -5   5   7  103.23    9.57
  -5   5   7   97.50    4.75
  -5   5   7  109.88    9.96
  -5   5  -7  111.73   10.05
  -5   5   7  106.84    6.40
  -5  -5  -7  109.96    9.72
  -3   5   7  115.08    5.62
  -3   5   7  114.06    9.19
  -3   5   7  119.49    9.76
  -3   5  -7  127.49    9.75
  -3  -5   7  119.48    6.66
  -3   5   7  114.03    7.12
  -3  -5  -7  132.65    9.72
  -1   5   7  579.27   15.55
  -1   5  -7  592.37   18.59
  -1   5   7  606.23   20.61
  -1   5  -7  582.23   18.96
  -1  -5   7  626.47   17.43
  -1  -5  -7  640.83   18.89
   1   5   7  629.81   18.67
   1   5  -7  656.65   20.94
   1   5  -7  646.60   21.52
   1   5   7  656.64   19.80
   1   5  -7  637.26   17.49
   1  -5   7  574.00   18.69
   1  -5  -7  601.80   15.73
   3   5   7  134.25    9.71
   3   5  -7  134.08   10.14
   3   5   7  137.23    8.31
   3   5  -7  125.63    9.23
   3   5  -7  121.26    9.81
   3   5  -7  117.71    6.51
   3  -5   7  128.19    9.61
   5   5   7  109.42    9.67
   5   5   7  103.54    4.36
   5   5  -7   98.42    9.31
   5   5  -7   97.61    8.59
   5   5  -7   91.63    8.84
   5   5   7   98.23    6.25
   5   5  -7   94.77    4.76
   5  -5   7  114.77   10.15
   5   5  -7  100.57    6.76
   7   5  -7  114.05   10.28
   7   5  -7  116.20    7.29
   9   5  -7   82.71    9.16
   9   5  -7   84.95    6.54
  11   5  -7  329.06   18.81
  11   5  -7  339.56   13.79
  13   5  -7    2.23    1.78
 -14  -6   7   27.44    6.99
 -14   6  -7   41.76    8.37
 -14   6   7   33.94    7.78
 -14  -6  -7   37.27    8.09
 -12  -6   7   20.43    5.57
 -12   6  -7   19.32    3.51
 -12   6   7   24.16    5.97
 -12   6  -7   15.46    4.79
 -12  -6  -7   11.91    4.37
 -10   6  -7  102.25   11.74
 -10   6   7   71.12    9.80
 -10  -6   7   97.68   10.82
 -10   6   7   78.86    5.87
 -10  -6  -7  116.38   12.56
  -8   6   7  164.67   13.65
  -8  -6   7  200.15   14.13
  -8   6  -7  155.56   13.54
  -8   6   7  173.90    8.56
  -8  -6  -7  184.31   14.53
  -6   6   7  140.39   11.74
  -6   6  -7  181.87   13.41
  -6   6   7  138.62    7.92
  -6   6   7  125.36    3.85
  -6  -6  -7  189.11   13.47
  -4   6   7  693.30   24.64
  -4   6  -7  649.73   23.40
  -4   6   7  675.40   18.12
  -4  -6   7  645.71   15.97
  -4   6   7  647.61   13.07
  -4  -6  -7  616.03   22.36
  -2   6   7    9.10    1.93
  -2   6   7   10.59    3.14
  -2   6  -7   18.20    3.75
  -2  -6   7   13.80    2.57
  -2  -6  -7   24.68    4.13
   0   6  -7 2181.81   38.49
   0   6   7 2179.14   38.28
   0   6  -7 2098.93   35.01
   0  -6   7 2126.49   35.70
   0  -6  -7 2161.80   33.66
   0   6   7 2099.54   33.39
   2   6  -7   16.56    3.64
   2   6   7   22.90    3.93
   2   6  -7   12.81    3.56
   2   6   7   19.93    3.49
   2   6  -7   14.48    3.30
   2  -6   7   15.91    3.40
   2   6  -7   13.73    2.52
   2  -6  -7    9.87    1.96
   4   6   7  613.27   22.23
   4   6  -7  636.42   23.44
   4   6  -7  640.45   22.01
   4   6   7  595.26   16.77
   4   6  -7  621.92   22.75
   4   6  -7  613.71   15.03
   4  -6   7  669.90   23.68
   6   6   7  199.55   13.91
   6   6   7  182.56    8.01
   6   6  -7  135.45   10.98
   6   6  -7  136.39    6.02
   6   6  -7  134.31    8.41
   8   6  -7  183.08   13.22
   8   6  -7  194.97    5.69
   8   6  -7  195.96   10.44
  10   6  -7   90.15    9.78
  10   6  -7   88.63    7.25
  12   6  -7   12.32    3.91
  14   6  -7   26.42    5.94
 -15  -7   7   32.35    7.94
 -15   7  -7   36.59    8.70
 -15   7   7   32.70    7.85
 -13  -7   7  146.17   15.32
 -13   7  -7  157.92   16.21
 -13   7   7  142.38   15.55
 -13  -7  -7  135.18   15.21
 -11   7  -7  214.86   17.89
 -11   7   7  238.31   18.82
 -11  -7   7  233.85   17.83
 -11   7  -7  225.58   18.44
 -11   7   7  243.79   11.38
 -11  -7  -7  223.80   18.51
  -9   7   7  578.27   27.23
  -9  -7   7  583.53   26.00
  -9   7  -7  640.22   28.69
  -9   7   7  594.77   17.58
  -9  -7  -7  608.25   27.89
  -7   7   7  130.63   12.09
  -7   7   7  127.97    8.22
  -7   7  -7  176.99   13.87
  -7   7   7  142.59    5.05
  -7  -7  -7  173.57   13.83
  -5   7   7  415.64   20.01
  -5   7  -7  428.82   20.30
  -5   7   7  398.17   14.57
  -5  -7  -7  419.48   19.67
  -5   7   7  385.33   10.32
  -3   7   7  768.62   25.94
  -3  -7   7  691.63   18.35
  -3   7  -7  710.84   24.08
  -3   7   7  733.45   20.88
  -3  -7  -7  690.23   22.97
  -3   7   7  704.61   16.58
  -1  -7  -7 2038.72   21.40
  -1   7   7 2036.98   39.60
  -1  -7   7 2099.34   35.33
  -1   7  -7 1894.90   36.21
  -1  -7  -7 2068.61   36.41
  -1   7   7 1916.27   31.44
   1   7  -7 2109.14   40.45
   1   7   7 2068.72   37.01
   1  -7   7 1981.55   37.40
   1   7  -7 2053.30   34.59
   1   7   7 2041.92   36.13
   1  -7  -7 1963.15   31.81
   3   7  -7  730.58   25.02
   3   7  -7  701.41   24.24
   3   7   7  690.78   19.74
   3   7  -7  730.28   24.07
   3  -7   7  724.60   24.52
   3   7  -7  721.75   18.86
   3   7   7  689.80   23.02
   5   7   7  451.58   20.33
   5   7  -7  403.33   19.68
   5   7  -7  416.36   19.21
   5   7   7  421.91   13.69
   5   7  -7  401.23   19.06
   5  -7   7  443.25   20.53
   5   7  -7  378.26   12.28
   5   7  -7  400.77   15.67
   7   7  -7  114.75   10.47
   7   7  -7  126.82    6.40
   7   7  -7  132.23    9.12
   9   7  -7  577.63   24.28
   9   7  -7  587.79   12.18
   9   7  -7  566.25   19.23
  11   7  -7  242.33   16.26
  11   7  -7  247.61   13.41
  13   7  -7  139.93   12.82
 -14  -8   7   11.70    4.83
 -14   8   7   16.50    5.82
 -14   8  -7    6.77    3.77
 -14  -8  -7    6.31    3.54
 -12  -8   7   35.47    7.62
 -12   8   7   37.20    7.59
 -12   8  -7   40.21    8.14
 -12  -8  -7   45.55    9.06
 -10   8   7   31.55    6.82
 -10  -8   7   34.30    6.93
 -10   8  -7   28.90    6.52
 -10   8   7   31.79    4.48
 -10  -8  -7   24.25    5.95
 -10   8   7   32.74    2.53
  -8   8   7   29.07    6.33
  -8   8  -7   23.59    5.48
  -8   8   7   24.80    3.97
  -8   8   7   25.54    2.59
  -8  -8  -7    9.17    3.44
  -6   8   7   51.59    5.64
  -6   8  -7   34.86    6.26
  -6   8   7   51.38    4.03
  -6  -8  -7   37.53    6.20
  -4   8   7  119.77   10.74
  -4   8  -7  147.38   11.77
  -4   8   7  111.96    8.40
  -4  -8   7   70.68    6.13
  -4  -8  -7  102.55    9.66
  -4   8   7  111.71    6.75
  -2   8   7   72.62    7.85
  -2  -8  -7   80.88    5.39
  -2   8  -7   72.24    7.59
  -2  -8   7   78.27    6.83
  -2  -8  -7   83.58    8.03
  -2   8   7   63.73    5.73
  -2   8   7   70.12    7.06
   0   8   7  137.30   10.31
   0   8  -7  136.77    9.69
   0  -8   7  141.70   10.06
   0  -8  -7  122.92    8.84
   0   8   7  138.08    9.33
   2   8  -7   80.73    8.42
   2   8  -7   84.76    8.43
   2   8   7   77.71    7.19
   2  -8   7   82.00    8.15
   2   8  -7   80.30    6.83
   2   8   7   81.81    7.94
   4   8  -7   82.34    8.99
   4   8  -7   80.85    8.42
   4   8  -7   86.11    8.99
   4   8   7  107.61    7.77
   4  -8   7  138.85   11.49
   4   8  -7   74.36    6.19
   4   8   7  109.90    9.98
   6   8   7   43.75    4.27
   6   8  -7   51.35    7.16
   6   8  -7   51.47    4.77
   6   8  -7   52.12    5.98
   8   8   7    9.85    1.59
   8   8  -7   10.65    3.54
   8   8  -7   12.51    2.29
   8   8  -7    9.41    2.51
  10   8  -7   33.24    5.84
  10   8  -7   31.64    3.15
  10   8  -7   35.39    5.26
  12   8  -7   34.02    6.29
  14   8  -7    9.29    2.73
 -13  -9   7  304.80   22.95
 -13   9  -7  290.15   22.61
 -13   9   7  293.23   22.65
 -13  -9  -7  300.15   23.06
 -11   9   7  155.92   15.62
 -11   9  -7  160.36   15.81
 -11  -9   7  160.74   15.60
 -11   9  -7  157.56   15.96
 -11   9   7  159.55   10.55
 -11  -9  -7  153.35   15.47
  -9   9   7  507.00   26.41
  -9   9  -7  541.46   27.11
  -9   9   7  507.36   18.70
  -9  -9  -7  572.26   27.74
  -9   9   7  522.62   13.24
  -7   9  -7   54.04    8.06
  -7   9   7   45.05    5.76
  -7   9   7   47.85    4.26
  -7  -9  -7   51.07    7.76
  -5  -9  -7  455.22   17.84
  -5   9   7  413.63   16.98
  -5   9  -7  432.88   21.28
  -5  -9  -7  436.36   21.14
  -5   9   7  409.46   13.43
  -3   9   7  111.44   10.33
  -3  -9  -7  120.19    7.59
  -3   9  -7  109.50   10.03
  -3  -9   7  120.87    8.80
  -3   9   7  108.69    8.96
  -3   9   7  112.55    7.69
  -3  -9  -7  130.85   10.83
  -1   9   7  617.20   22.85
  -1   9  -7  542.08   20.83
  -1  -9   7  549.82   19.84
  -1   9   7  578.27   18.83
  -1  -9  -7  505.88   19.27
   1   9   7  526.75   19.94
   1   9  -7  532.03   19.28
   1  -9   7  568.17   21.65
   1  -9  -7  566.49   18.91
   1   9   7  495.51   19.30
   3   9  -7  137.22   11.58
   3   9   7  118.26    8.86
   3   9  -7  131.98   11.03
   3  -9   7  109.83   10.09
   3   9  -7  127.70    8.86
   3   9   7  123.53   10.42
   5   9  -7  428.11   20.47
   5   9   7  440.79   15.34
   5   9  -7  415.18   15.25
   5   9  -7  414.96   17.96
   7   9   7   57.27    4.57
   7   9  -7   42.60    6.69
   7   9  -7   52.02    5.21
   7   9  -7   47.70    6.19
   9   9   7  562.46   12.60
   9   9  -7  531.95   23.91
   9   9  -7  521.11   15.37
   9   9  -7  511.55   20.56
  11   9  -7  155.85   13.40
  13   9  -7  298.42   19.02
 -14 -10   7   32.73    8.09
 -14  10   7   32.55    8.59
 -14  10  -7   44.81    8.78
 -12  10  -7    9.83    2.75
 -12  10   7   17.99    5.16
 -12 -10   7   13.57    5.20
 -12  10  -7   10.86    4.90
 -12 -10  -7    7.16    4.45
 -10  10   7    6.60    3.62
 -10  10   7    0.77    1.17
 -10  10  -7    4.46    3.30
 -10 -10  -7    6.54    3.58
  -8  10  -7   71.56    9.90
  -8  10   7   98.43    8.80
  -8 -10  -7   64.31    9.31
  -8  10   7   96.98    6.63
  -6 -10  -7  108.12    9.58
  -6  10   7   95.72    8.63
  -6  10  -7   87.90   10.01
  -6 -10  -7  108.42   11.22
  -6  10   7   95.46    6.80
  -4 -10  -7  224.86   11.68
  -4  10   7  280.45    6.14
  -4  10  -7  247.72   15.96
  -4  10   7  290.77   15.02
  -4 -10   7  261.17   13.29
  -4  10   7  283.02   12.58
  -4 -10  -7  218.38   14.73
  -2  10   7  118.82   10.69
  -2  10  -7  164.27   12.33
  -2 -10   7  104.41    8.78
  -2  10   7  132.75   10.63
  -2  10   7  112.95    8.50
  -2 -10  -7  142.82   11.02
   0  10   7    3.22    2.07
   0  10  -7    3.35    1.67
   0 -10   7    3.47    1.90
   0  10   7    3.68    2.03
   0 -10  -7    2.92    1.48
   2  10  -7  105.34   10.11
   2  10   7  142.66   10.37
   2  10  -7   99.19    8.38
   2 -10   7  159.45   12.32
   2  10   7  147.17   11.29
   4  10   7  217.97   11.91
   4  10  -7  252.75   13.05
   6  10  -7  108.82   10.78
   6  10   7  104.16    7.32
   6  10  -7  108.00    8.32
   6  10  -7  105.69    9.51
   8  10  -7   89.58    9.95
   8  10   7   64.24    4.31
   8  10  -7   93.28    7.26
   8  10  -7   94.53    9.17
  10  10  -7    4.92    2.72
  10  10  -7    4.32    1.27
  10  10  -7    2.39    1.48
  12  10  -7   15.43    4.78
 -13  11  -7    2.06    2.72
 -13  11   7    8.67    4.31
 -13 -11  -7    3.80    3.15
 -13 -11   7   12.68    5.18
 -13  11  -7   -0.03    2.36
 -13 -11  -7    9.31    4.45
 -11  11   7   57.62   10.14
 -11 -11  -7   45.55    8.37
 -11  11  -7   51.39    9.47
 -11  11   7   60.21    7.22
 -11 -11  -7   48.44    9.20
  -9 -11  -7   12.21    3.80
  -9  11  -7    5.49    3.37
  -9  11   7    3.48    1.85
  -9 -11  -7    8.58    3.38
  -7 -11  -7   27.33    5.32
  -7  11   7   35.70    5.68
  -7  11  -7   29.92    6.49
  -7 -11  -7   32.15    6.56
  -7  11   7   37.52    4.61
  -5 -11  -7   37.19    5.40
  -5  11  -7   36.65    6.67
  -5  11   7   49.39    6.62
  -5  11   7   47.04    5.32
  -5 -11  -7   35.54    6.39
  -3 -11  -7  130.80    8.52
  -3  11  -7  117.81   11.12
  -3  11   7   98.92    9.29
  -3 -11   7  107.49    9.40
  -3  11   7   91.30    7.95
  -3 -11  -7  117.35   10.79
  -1  11   7  136.35   11.44
  -1 -11   7   99.31    9.26
  -1  11  -7  134.68   11.32
  -1  11   7  142.63   11.60
  -1 -11  -7   92.64    8.97
  -1  11   7  136.53   10.18
   1  11   7   90.35    8.86
   1 -11   7  124.58   10.81
   1  11  -7   87.93    8.68
   1  11   7   86.51    8.66
   3  11   7  120.79    9.49
   3  11  -7  103.50    9.07
   5  11   7   34.76    4.83
   5  11  -7   48.39    6.20
   5  11  -7   43.91    6.39
   7  11   7   27.45    3.54
   7  11  -7   35.15    6.29
   7  11  -7   33.82    5.00
   7  11  -7   38.91    6.20
   9  11  -7    5.07    2.03
   9  11  -7    6.78    2.19
  11  11  -7   52.56    8.25
  13  11  -7    9.11    3.85
 -14 -12  -7   55.22   10.54
 -12  12   7   39.99    8.70
 -12 -12  -7   35.95    7.98
 -12  12  -7   34.26    8.06
 -12 -12  -7   34.79    8.06
 -10 -12  -7   78.09   10.44
 -10  12  -7  106.46   13.40
 -10  12   7   93.00    9.47
 -10 -12  -7  104.65   13.28
  -8 -12  -7  206.04   15.18
  -8  12  -7  192.54   16.82
  -8  12   7  189.59   13.57
  -8 -12  -7  213.66   17.63
  -6 -12  -7  276.39   15.64
  -6  12   7  240.12   15.11
  -6  12  -7  268.91   18.74
  -6  12   7  250.47   12.86
  -6 -12  -7  292.47   19.15
  -4 -12  -7  481.67   18.18
  -4  12   7  474.94   10.81
  -4  12  -7  493.60   24.10
  -4  12   7  474.24   21.08
  -4  12   7  457.92   17.96
  -4 -12   7  458.97   19.40
  -4 -12  -7  477.49   23.07
  -2  12  -7  506.99   23.16
  -2 -12   7  427.46   19.76
  -2  12   7  503.86   22.51
  -2  12   7  493.09   19.80
  -2 -12  -7  418.72   20.32
   0  12   7  164.83   12.70
   0 -12   7  161.43   12.56
   0  12  -7  144.61   11.59
   0  12   7  155.70   12.69
   0  12   7  160.62   11.89
   2  12   7  417.62   18.89
   2  12  -7  423.58   19.26
   4  12   7  451.93   18.39
   4  12  -7  461.56   19.55
   6  12   7  267.32   12.92
   6  12  -7  236.01   16.33
   6  12  -7  232.02   13.46
   8  12  -7  213.30   15.97
   8  12  -7  220.38   12.83
  10  12  -7   73.99    9.69
  10  12  -7   79.26    7.56
  12  12  -7   41.26    7.25
 -13 -13  -7   44.46    9.49
 -11 -13  -7   -0.86    2.08
 -11  13   7   -1.35    1.29
 -11  13  -7   -2.65    3.49
 -11 -13  -7    0.11    2.50
  -9 -13  -7  102.27   11.34
  -9  13   7  123.90   11.53
  -9  13  -7  127.74   14.35
  -9 -13  -7  105.51   12.84
  -7 -13  -7    0.92    1.44
  -7  13   7    0.28    2.13
  -7  13  -7    2.35    2.42
  -7 -13  -7    2.73    2.35
  -7  13   7    1.85    1.38
  -5  13   7  145.13    7.11
  -5 -13  -7  140.60   10.87
  -5  13  -7  141.01   13.83
  -5  13   7  143.64   12.17
  -5  13   7  139.61   10.43
  -5 -13  -7  132.03   13.14
  -3  13   7    0.76    0.95
  -3  13  -7    2.62    2.05
  -3 -13  -7    3.16    2.72
  -3  13   7    2.78    2.75
  -3  13   7    0.46    1.52
  -3 -13   7    5.17    2.36
  -1  13  -7   76.01    9.00
  -1  13   7  101.59   10.69
  -1  13   7   87.15    8.88
   1  13  -7   82.72    8.98
   1  13   7   66.49    8.76
   3  13   7    1.06    0.96
   3  13  -7    4.94    2.53
   5  13   7  126.99    9.74
   5  13  -7  133.23   11.10
   7  13  -7   -2.02    2.50
   7  13   7    0.72    1.39
   7  13  -7    1.38    1.22
   9  13  -7  107.71   11.64
   9  13  -7  102.35    9.22
  11  13  -7    4.52    2.45
 -12 -14  -7   32.17    7.70
 -10 -14  -7   71.39   10.17
 -10  14  -7   82.80   12.37
 -10  14   7   90.88   10.25
 -10 -14  -7   70.65   11.14
  -8 -14  -7   45.87    7.53
  -8  14   7   43.38    7.31
  -8  14  -7   48.12    9.09
  -8 -14  -7   46.69    8.56
  -6 -14  -7   45.47    6.61
  -6  14   7   57.40    8.06
  -6  14  -7   50.11    8.56
  -6  14   7   63.09    7.33
  -6 -14  -7   45.80    8.02
  -4  14   7  123.91    6.68
  -4  14   7  112.30   11.12
  -4  14  -7  131.91   13.27
  -4  14   7  114.98    9.90
  -4 -14  -7  145.12   13.61
  -2  14  -7    2.36    2.36
  -2  14   7   -0.38    2.41
  -2  14   7    1.03    0.95
   0  14  -7  326.22   19.08
   0  14   7  324.43   20.00
   2  14  -7    1.26    1.48
   2  14   7    2.10    2.46
   4  14   7  137.28   10.98
   4  14  -7  130.47   11.45
   6  14   7   44.82    5.71
   6  14  -7   57.16    7.65
   8  14  -7   49.22    8.14
   8  14  -7   48.15    6.75
  10  14  -7   92.94   11.31
  12  14  -7   29.47    6.20
 -13 -15  -7   27.53    7.41
 -11 -15  -7   67.06   10.36
 -11  15  -7   97.14   13.68
 -11  15   7   68.91    9.27
 -11 -15  -7   79.12   12.52
  -9 -15  -7   82.11   10.80
  -9  15   7   64.06    9.26
  -9  15  -7   75.76   11.58
  -9 -15  -7   74.01   11.80
  -7 -15  -7  160.42   13.50
  -7  15  -7  184.33   17.17
  -7  15   7  164.02   14.51
  -7 -15  -7  174.71   16.74
  -5  15   7  226.80   16.59
  -5  15  -7  233.34   18.32
  -5  15   7  231.82   14.93
  -5 -15  -7  230.14   18.27
  -3  15   7  128.30    7.35
  -3  15   7  126.47   12.50
  -3  15  -7  131.11   13.52
  -1  15  -7   96.57   10.98
  -1  15   7  127.60   12.91
   1  15  -7  110.28   11.31
   1  15   7  104.84   11.89
   3  15  -7  151.31   13.01
   3  15   7  155.90   14.84
   5  15   7  210.84   13.67
   5  15  -7  221.90   15.56
   7  15  -7  141.97   13.85
   7  15  -7  148.77   12.50
   9  15  -7   63.46    9.74
   9  15  -7   63.63    7.96
  11  15  -7   70.03    9.90
 -12 -16  -7    3.11    4.06
 -10 -16  -7    0.13    2.34
 -10  16  -7   -0.53    2.41
 -10  16   7   -1.37    2.56
 -10 -16  -7    1.50    2.38
  -8 -16  -7    1.48    2.88
  -8  16   7   -0.95    2.36
  -8  16  -7    4.48    4.06
  -8 -16  -7    2.38    3.06
  -6  16   7   -3.20    2.72
  -6  16  -7   -3.01    3.46
  -6 -16  -7   -2.27    2.94
  -4  16  -7   98.35   12.33
  -4  16   7   95.67   11.29
  -2  16   7   94.04   11.20
  -2  16  -7   99.79   11.72
   0  16  -7   25.81    5.82
   0  16   7   28.31    6.48
   2  16  -7   68.60    9.25
   2  16   7   87.26   11.21
   4  16  -7  101.36   11.10
   4  16   7  110.83   13.08
   6  16  -7   -0.85    1.34
   8  16  -7    2.30    2.76
   8  16  -7    3.61    2.80
  10  16  -7    4.29    3.53
 -11 -17  -7   70.66   10.94
  -9 -17  -7   10.96    4.11
  -9  17   7   17.32    5.46
  -9  17  -7   33.02    8.32
  -9 -17  -7   15.62    5.53
  -7  17  -7  291.79   22.66
  -7  17   7  261.14   19.41
  -7 -17  -7  248.42   21.03
  -5  17   7   91.35   11.39
  -5  17  -7   82.35   11.83
  -3  17   7  210.99   17.26
  -3  17  -7  218.93   18.39
  -1  17   7  105.08   12.39
  -1  17  -7   95.04   11.53
   1  17  -7  107.86   12.20
   1  17   7  106.17   12.82
   3  17  -7  219.97   16.99
   3  17   7  210.75   18.39
   5  17  -7   78.80   10.11
   5  17   7   68.89   10.69
   7  17  -7  236.42   16.98
   9  17  -7   10.60    4.62
  11  17  -7   77.25   10.97
 -10 -18  -7   19.73    5.41
 -10  18   7   33.20    7.16
  -8  18   7   24.51    6.78
  -8  18  -7   22.94    6.82
  -8 -18  -7   18.22    6.05
  -6  18  -7  126.91   15.09
  -6  18   7  142.98   14.82
  -4  18   7  155.85   15.30
  -4  18  -7  198.33   18.41
  -2  18  -7   90.08   11.78
  -2  18   7   98.00   12.18
   0  18  -7    2.27    2.17
   0  18   7   -1.37    3.39
   2  18  -7   84.47   11.15
   2  18   7   87.58   12.28
   4  18  -7  162.29   15.10
   4  18   7  183.30   17.73
   6  18  -7  133.38   13.37
   6  18   7  128.04   15.24
   8  18  -7   11.89    4.14
   8  18  -7   15.91    4.87
  10  18  -7   17.42    5.24
 -11 -19  -7    0.57    2.81
  -9  19   7    3.99    2.42
  -7  19   7    3.15    2.12
  -7  19  -7   12.65    5.54
  -5  19  -7    2.75    1.95
  -5  19   7    8.83    4.76
  -3  19  -7   21.55    6.07
  -3  19   7   26.84    6.37
  -1  19  -7   25.04    6.36
  -1  19   7   22.62    6.90
   1  19  -7   31.04    7.31
   1  19   7   25.82    7.04
   3  19  -7   32.01    7.20
   3  19   7   23.98    6.36
   5  19  -7    7.40    3.60
   5  19   7    2.13    2.98
   7  19  -7   11.01    4.47
   7  19   7   15.03    5.66
   9  19  -7    4.07    3.27
  -8  20   7   13.43    4.55
  -6  20   7   50.71    9.36
  -4  20  -7   17.85    5.75
  -4  20   7   18.43    5.44
  -2  20   7   99.01   13.05
  -2  20  -7   89.45   12.64
   0  20  -7    1.54    1.85
   0  20   7   -1.64    3.20
   2  20  -7   94.40   12.22
   2  20   7  104.86   13.87
   4  20  -7   11.48    4.66
   4  20   7   12.50    5.05
   6  20  -7   63.32   10.08
   8  20  -7   11.61    5.60
  -7  21   7   51.34    9.78
  -5  21   7   14.53    5.32
  -3  21  -7   70.96   11.42
  -3  21   7   77.44   11.97
  -1  21  -7   49.23    9.30
  -1  21   7   62.73   10.85
   1  21  -7   59.67   10.25
   1  21   7   55.17   10.38
   3  21  -7   65.59   10.52
   5  21  -7   12.08    4.58
   7  21  -7   50.22    9.18
   0  22  -7   61.49   10.79
   2  22  -7   36.22    8.25
   4  22  -7   24.55    7.11
   6  22  -7    0.68    1.80
 -16   0   8   63.40   10.20
 -14   0   8  192.03   16.27
 -14   0   8  227.77   19.71
 -14   0  -8  251.90   20.94
 -12   0   8  152.70   13.07
 -12   0   8  151.25   15.17
 -12   0  -8  151.82   15.32
 -10   0   8 1007.35   30.18
 -10   0  -8  926.77   18.05
 -10   0   8  994.48   36.01
 -10   0  -8  911.06   34.68
  -8   0  -8    4.34    2.18
  -8   0   8    6.87    2.76
  -8   0   8    6.33    2.34
  -8   0  -8    5.24    1.67
  -6   0   8  996.62   30.65
  -6   0  -8 1054.79   31.35
  -6   0  -8 1041.89   23.00
  -6   0   8 1069.34   31.78
  -4   0   8 1382.50   33.27
  -4   0  -8 1509.81   34.28
  -4   0   8 1409.26   16.00
  -4   0  -8 1512.83   28.92
  -4   0   8 1449.42   34.66
  -2   0  -8  358.04   15.04
  -2   0  -8  339.17   11.63
  -2   0   8  301.05   14.10
  -2   0   8  292.27   10.39
  -2   0  -8  354.87   14.80
  -2   0   8  307.33   15.26
   0   0  -8 1974.11   30.59
   0   0  -8 1930.60   32.22
   0   0   8 1951.53   32.11
   0   0   8 1932.05   31.44
   0   0   8 1940.48   36.14
   0   0  -8 1996.55   37.09
   2   0  -8  296.23    9.84
   2   0  -8  299.90   14.28
   2   0  -8  293.78   14.93
   2   0  -8  296.78   10.50
   2   0   8  353.44   15.19
   4   0  -8 1421.99   34.20
   4   0  -8 1401.24   34.11
   4   0   8 1575.33   35.49
   4   0  -8 1414.28   14.31
   6   0   8 1116.98   32.63
   6   0  -8 1055.01   31.42
   8   0  -8   11.38    3.56
  10   0  -8  979.03   33.40
 -17  -1   8   -1.98    3.46
 -17   1   8    4.04    3.19
 -15  -1  -8    2.56    3.17
 -15  -1   8   -0.54    2.05
 -15   1   8   -0.83    2.23
 -15   1  -8   -1.35    2.25
 -15  -1   8   -1.03    2.29
 -15   1   8   -2.90    3.82
 -13  -1  -8    7.26    4.40
 -13   1  -8   11.09    4.34
 -13  -1   8    7.97    4.11
 -13   1   8    6.59    3.40
 -13  -1   8    4.70    3.07
 -13   1   8   10.44    3.53
 -11  -1  -8   -0.52    1.86
 -11   1  -8   -1.09    1.60
 -11  -1   8   -0.57    1.51
 -11   1   8    0.04    2.10
 -11   1  -8   -0.38    0.72
 -11   1   8   -1.10    1.33
 -11  -1   8   -0.21    1.93
  -9   1   8   71.17    9.25
  -9  -1  -8   38.66    6.99
  -9   1  -8   55.94    8.19
  -9  -1   8   55.79    8.32
  -9  -1  -8   49.51    4.10
  -9   1   8   66.22    7.23
  -9   1  -8   61.10    5.39
  -9  -1   8   50.32    6.78
  -7   1   8   17.15    4.43
  -7  -1  -8   39.11    6.37
  -7   1  -8   29.94    5.89
  -7  -1   8   18.60    4.39
  -7   1   8   16.93    3.15
  -7  -1  -8   32.60    3.78
  -7  -1   8   21.38    4.60
  -7   1  -8   31.70    4.19
  -7  -1   8   23.09    4.16
  -5   1   8   16.39    3.67
  -5  -1  -8   10.33    3.42
  -5  -1   8   16.21    4.01
  -5   1  -8    8.11    2.58
  -5   1  -8   11.64    1.53
  -5   1   8   22.30    4.46
  -5  -1   8   16.22    3.78
  -5   1  -8   10.81    2.75
  -5  -1  -8    8.83    2.00
  -3   1   8    7.75    2.69
  -3   1  -8    6.73    1.68
  -3  -1  -8   19.85    4.02
  -3  -1   8   13.40    3.51
  -3   1  -8    8.07    2.65
  -3  -1   8   12.22    1.84
  -3   1   8    5.99    1.50
  -3   1  -8    6.53    2.12
  -3   1   8    4.32    1.81
  -3  -1   8   14.64    3.39
  -3  -1  -8   17.89    3.39
  -1  -1   8    7.02    2.38
  -1   1  -8    4.36    1.69
  -1  -1  -8    3.68    1.54
  -1   1  -8    3.14    1.47
  -1   1   8    6.08    2.26
  -1   1   8    7.21    2.07
  -1  -1   8    5.47    1.79
  -1   1  -8    4.72    2.23
  -1   1   8    8.30    2.64
  -1  -1  -8    1.74    1.07
   1   1  -8    4.14    1.41
   1   1   8    3.97    1.46
   1   1  -8    6.23    1.55
   1  -1  -8    5.95    1.70
   1   1   8    3.42    1.55
   1  -1   8    5.38    2.00
   1   1   8    1.68    0.87
   1  -1  -8    7.12    2.23
   1   1  -8    4.35    2.16
   3  -1  -8    6.22    1.26
   3   1  -8   14.18    3.40
   3   1  -8   11.07    1.76
   3  -1  -8    9.26    3.26
   3   1  -8   12.34    2.39
   3   1  -8   12.56    3.28
   3   1   8   18.26    3.81
   3  -1   8    7.78    2.64
   5   1  -8   18.21    1.51
   5   1  -8   20.33    4.43
   5  -1  -8   17.94    4.04
   5   1  -8   19.22    4.42
   5   1   8    9.42    2.93
   5  -1   8   13.78    3.52
   5   1  -8   19.88    1.62
   7  -1  -8   19.44    4.60
   7   1  -8   23.64    4.95
   9   1  -8   52.71    7.52
   9  -1  -8   69.03    8.85
  11   1  -8    3.05    2.64
 -16  -2   8   32.19    7.53
 -16   2   8   17.26    5.43
 -14  -2   8  180.13   16.27
 -14   2   8  177.03   15.32
 -14  -2   8  183.98   17.89
 -14   2   8  185.13   17.87
 -14  -2  -8  210.19   19.46
 -14   2  -8  193.03   18.54
 -12   2   8  356.18   19.64
 -12  -2   8  387.57   21.65
 -12   2  -8  372.63   23.67
 -12   2   8  354.75   23.15
 -12  -2   8  377.54   23.83
 -12  -2  -8  414.87   25.41
 -10   2  -8  347.06   13.41
 -10   2   8  361.90   17.43
 -10  -2   8  413.55   20.43
 -10   2  -8  339.37   21.32
 -10   2   8  338.89   21.17
 -10  -2   8  406.22   23.10
 -10  -2  -8  387.11   22.72
  -8   2   8  123.46    8.85
  -8   2  -8  112.30    8.04
  -8  -2  -8  133.20    6.81
  -8  -2   8  149.14   11.01
  -8   2   8  124.90   11.72
  -8   2  -8  105.54   11.13
  -8  -2   8  140.07   12.48
  -8  -2  -8  125.44   12.00
  -6  -2  -8  723.73   17.94
  -6  -2   8  732.46   25.73
  -6   2  -8  708.54   20.66
  -6   2   8  718.84   25.92
  -6   2   8  695.46   17.61
  -6   2  -8  694.33   11.64
  -6   2  -8  713.20   26.35
  -6   2   8  731.45   26.44
  -6  -2   8  709.47   26.26
  -6  -2  -8  743.78   26.46
  -4   2  -8 1038.26   18.54
  -4   2  -8 1082.77   29.67
  -4   2   8 1050.24   29.33
  -4  -2   8 1055.75   29.35
  -4  -2  -8 1053.43   23.63
  -4  -2   8 1069.09   29.67
  -4   2   8 1100.01   30.48
  -4   2  -8 1033.41   25.38
  -4  -2   8 1060.53   14.00
  -4  -2  -8 1091.02   29.13
  -2   2  -8  497.44   14.99
  -2   2   8  505.69   18.35
  -2   2  -8  523.49   18.68
  -2  -2   8  510.04   18.84
  -2  -2  -8  522.59   17.74
  -2   2   8  548.13   20.43
  -2   2  -8  527.41   18.78
  -2  -2   8  501.05   13.67
  -2  -2  -8  529.89   18.21
   0   2   8  306.28   12.66
   0   2  -8  294.73   12.99
   0  -2  -8  293.96   14.14
   0   2  -8  289.11   14.55
   0   2   8  305.04   14.47
   0  -2   8  284.21   12.21
   0  -2  -8  302.36   11.91
   2   2  -8  516.42   18.85
   2   2   8  518.34   14.03
   2  -2  -8  520.47   19.84
   2  -2  -8  506.03   10.58
   2   2   8  545.90   18.30
   2   2  -8  505.90   19.67
   2   2  -8  513.17   16.03
   2  -2   8  504.66   18.26
   2  -2  -8  513.06   12.52
   4   2  -8 1066.24   29.86
   4  -2  -8 1084.26   30.31
   4   2  -8 1051.02   29.71
   4   2  -8 1044.95   24.00
   4   2   8 1121.25   30.40
   4  -2   8 1073.22   29.28
   6   2  -8  736.80   26.64
   6  -2  -8  702.74   25.50
   6   2  -8  746.25   26.21
   6   2   8  769.43   27.65
   6  -2   8  735.69   26.57
   6   2  -8  735.52   11.31
   8   2  -8  146.06   12.36
  10   2  -8  399.14   21.10
 -15   3   8    7.73    3.05
 -15  -3   8    6.99    3.36
 -15  -3   8    2.80    2.49
 -15   3  -8   10.28    5.44
 -15   3   8    8.60    5.00
 -15  -3  -8    9.39    4.47
 -13   3   8   38.09    6.80
 -13  -3   8   47.74    8.26
 -13   3  -8   48.66    9.18
 -13  -3  -8   57.95   10.08
 -13  -3   8   44.07    8.39
 -13   3   8   42.72    8.44
 -11   3   8    1.37    2.00
 -11  -3   8    2.12    2.45
 -11  -3   8   -0.13    2.21
 -11   3  -8   -0.38    2.74
 -11   3   8   -2.24    3.11
 -11  -3  -8    0.44    1.90
  -9   3   8  217.86   12.30
  -9  -3   8  269.60   16.16
  -9   3  -8  229.17   16.75
  -9   3   8  216.16   16.50
  -9  -3   8  268.69   18.29
  -9  -3  -8  278.82   18.54
  -7   3   8  104.14    7.17
  -7   3  -8   93.21   10.15
  -7   3   8  101.25   10.62
  -7  -3  -8  122.51    6.77
  -7  -3   8  142.50   12.36
  -7   3  -8   91.36    4.64
  -7  -3  -8  117.90   11.20
  -5   3  -8  199.96   13.43
  -5   3   8  170.10   12.29
  -5  -3   8  148.13   11.80
  -5   3  -8  194.04    8.14
  -5  -3  -8  177.47    9.28
  -5   3  -8  194.89   11.14
  -5   3   8  187.93   13.08
  -5   3   8  174.31    6.69
  -5  -3  -8  173.12   12.34
  -3  -3   8  159.35   11.25
  -3   3   8  158.38   10.93
  -3   3  -8  124.59    7.39
  -3   3  -8  138.86    9.86
  -3  -3  -8  142.59    9.05
  -3   3   8  158.77   11.59
  -3  -3   8  153.20    6.94
  -3  -3  -8  142.73   10.07
  -1   3  -8  433.39   15.42
  -1   3   8  418.51   16.03
  -1  -3  -8  388.99   15.95
  -1   3   8  420.71   17.56
  -1   3  -8  445.86   17.93
  -1  -3   8  338.69   12.56
  -1  -3  -8  391.75   14.87
   1   3  -8  352.23   15.31
   1   3   8  393.30   13.66
   1  -3  -8  414.38   17.52
   1  -3  -8  396.89    7.78
   1   3  -8  351.43   16.43
   1   3   8  403.45   16.28
   1  -3   8  435.87   16.21
   1  -3  -8  402.64   12.63
   3   3   8  137.29    6.56
   3   3   8  148.10   10.26
   3   3  -8  158.30   11.27
   3  -3  -8  151.68   11.09
   3   3   8  140.89    8.95
   3   3  -8  149.03   11.10
   3   3  -8  162.12    9.67
   3  -3   8  139.77   10.29
   3  -3  -8  157.49    5.92
   5   3   8  178.33   12.55
   5   3  -8  160.42   12.15
   5  -3  -8  165.00   12.34
   5   3  -8  150.67   11.71
   5  -3   8  211.31   13.77
   5   3  -8  155.49    7.03
   7   3  -8  131.11   11.35
   7   3  -8  129.80    5.69
   9   3  -8  273.49   17.22
   9   3  -8  271.43    8.13
  11   3  -8   -0.54    2.12
 -16  -4   8    1.75    1.93
 -14   4   8    3.10    3.21
 -14  -4   8    5.78    3.33
 -14   4   8    1.12    2.28
 -14   4  -8   -0.64    1.84
 -14  -4  -8    4.63    4.54
 -12   4   8    3.70    2.62
 -12  -4   8    0.48    1.96
 -12  -4   8   -0.36    2.31
 -12   4   8    0.21    2.37
 -12   4  -8    0.68    2.31
 -12  -4  -8   -2.03    3.05
 -10   4   8  191.14   12.30
 -10  -4   8  185.32   14.34
 -10   4  -8  185.05   16.00
 -10   4   8  200.51   16.89
 -10   4  -8  191.50    6.63
 -10  -4   8  183.42   15.89
 -10  -4  -8  181.15   15.63
  -8  -4   8   45.54    7.43
  -8   4  -8  102.49   10.88
  -8   4   8   62.63    8.69
  -8   4   8   69.95    6.26
  -8  -4   8   52.50    7.11
  -8   4   8   63.40    3.17
  -8  -4  -8   79.87    9.79
  -6   4  -8   67.94    8.27
  -6  -4   8   66.44    8.09
  -6   4   8   74.13    8.73
  -6   4   8   67.64    4.90
  -6   4   8   76.13    4.59
  -6  -4  -8   62.74    7.91
  -4  -4  -8   34.46    5.35
  -4  -4  -8   35.06    4.39
  -4   4   8   31.93    5.15
  -4   4  -8   25.80    3.49
  -4   4   8   34.87    5.62
  -4   4  -8   28.66    4.96
  -4  -4   8   37.06    3.16
  -4   4   8   30.98    3.53
  -2   4   8  436.96   17.50
  -2   4   8  419.01   12.04
  -2   4  -8  499.25   16.47
  -2  -4  -8  525.75   17.82
  -2   4  -8  498.22   18.91
  -2   4   8  450.65   19.10
  -2   4  -8  509.99   19.06
  -2  -4   8  442.71   13.98
  -2  -4  -8  505.76   18.09
   0  -4  -8 1092.45   27.41
   0   4   8 1103.25   23.60
   0   4  -8 1063.65   25.93
   0   4   8 1093.23   24.73
   0   4   8 1133.54   28.27
   0   4  -8 1080.66   28.87
   0   4  -8 1105.56   25.23
   0  -4   8 1067.96   24.54
   0  -4  -8 1115.66   23.57
   2  -4  -8  444.69   18.72
   2   4  -8  442.40   18.28
   2   4   8  527.66   18.65
   2   4   8  519.94   14.78
   2   4  -8  449.36   16.87
   2   4   8  519.30   18.00
   2   4  -8  441.63   18.96
   2   4  -8  452.76   13.99
   2  -4   8  512.51   19.08
   2  -4  -8  439.89   12.24
   4   4   8   34.12    2.93
   4   4   8   39.31    5.79
   4   4  -8   39.21    5.95
   4   4   8   35.58    4.50
   4   4  -8   38.63    5.13
   4   4  -8   34.60    5.60
   4  -4   8   26.57    4.87
   6   4  -8   62.41    7.64
   6   4   8   71.44    8.39
   6   4  -8   73.31    5.24
   8   4  -8   50.76    7.38
   8   4  -8   54.02    4.36
  10   4  -8  187.43   14.61
  10   4  -8  179.33    8.14
  12   4  -8    5.28    3.56
 -15  -5   8   14.54    5.32
 -15   5   8   16.93    6.41
 -13  -5   8   26.74    6.37
 -13   5   8   17.73    4.92
 -13   5   8   21.47    5.81
 -13   5  -8   11.96    4.51
 -13  -5  -8   18.61    5.34
 -11  -5   8    8.45    3.86
 -11   5   8   18.56    4.19
 -11   5  -8   11.97    2.12
 -11   5  -8    7.79    3.33
 -11   5   8   16.63    5.01
 -11  -5  -8    7.30    3.00
  -9   5   8   42.54    7.54
  -9   5  -8   45.91    7.98
  -9  -5   8   49.01    7.38
  -9   5   8   37.88    5.01
  -9   5   8   43.80    3.33
  -9  -5  -8   47.30    7.81
  -7   5  -8  359.15   20.00
  -7   5   8  333.09   19.18
  -7   5   8  316.94   11.45
  -7   5  -8  361.39   20.07
  -7   5   8  335.35   10.51
  -7  -5  -8  378.96   20.09
  -5   5   8   10.74    3.39
  -5   5   8    5.72    2.05
  -5   5  -8    0.16    2.57
  -5   5   8    9.22    2.01
  -5  -5  -8    0.99    1.73
  -3   5   8  133.05    6.34
  -3   5   8  144.04   10.81
  -3   5  -8  141.57    8.90
  -3   5   8  138.69   11.10
  -3   5  -8  149.30   11.10
  -3  -5   8  134.41    7.39
  -3  -5  -8  157.86   10.91
  -1   5   8  311.08   11.87
  -1   5   8  330.24   14.80
  -1   5  -8  278.68   13.27
  -1   5   8  353.36   16.59
  -1   5  -8  282.50   14.75
  -1   5  -8  276.90   13.56
  -1  -5   8  253.50   11.84
  -1  -5  -8  211.39   11.36
   1   5   8  208.17   11.28
   1   5   8  221.37   10.74
   1   5  -8  247.04   13.38
   1   5  -8  254.07   14.43
   1   5   8  208.03   12.07
   1   5  -8  244.74   11.41
   1  -5   8  276.41   13.58
   1  -5  -8  319.53   12.00
   3   5   8  150.71   10.71
   3   5   8  148.51    7.53
   3   5  -8  152.20   11.38
   3   5   8  145.99    9.23
   3   5  -8  136.08   10.89
   3   5  -8  146.61   10.26
   3   5  -8  139.19    7.43
   3  -5   8  148.54   10.84
   3  -5  -8  132.24    6.23
   5   5  -8   10.43    3.06
   5   5   8    5.38    1.08
   5   5   8    3.52    2.29
   5   5  -8    9.33    2.93
   5   5   8    4.28    1.39
   5   5  -8   11.02    3.21
   5  -5   8    2.49    1.06
   5   5  -8   10.54    1.60
   5   5  -8   10.13    2.32
   7   5  -8  345.95   18.69
   7   5  -8  344.75   12.33
   9   5  -8   44.73    7.04
   9   5  -8   45.22    4.55
  11   5  -8   10.85    3.53
  13   5  -8   26.43    6.10
 -14  -6   8   20.11    5.82
 -14   6   8   34.19    7.78
 -14   6  -8   35.51    8.02
 -14  -6  -8   34.35    8.03
 -12  -6   8  177.87   16.00
 -12   6  -8  218.22   18.77
 -12   6   8  207.79   18.51
 -12  -6  -8  207.09   18.35
 -10   6  -8  525.39   27.41
 -10   6   8  524.37   27.08
 -10  -6   8  429.88   23.01
 -10   6   8  541.43   13.68
 -10  -6  -8  467.53   25.67
  -8   6   8  387.05   21.83
  -8   6  -8  417.28   22.63
  -8   6   8  401.57   14.23
  -8   6  -8  400.75   22.43
  -8   6   8  402.46   12.49
  -8  -6  -8  356.79   20.79
  -6   6   8  156.68   12.83
  -6   6   8  156.02    6.36
  -6   6  -8  166.75   13.45
  -6   6   8  151.64    8.32
  -6  -6  -8  128.23   11.47
  -4   6   8  213.49    7.58
  -4   6   8  221.21   14.05
  -4   6   8  248.50   15.39
  -4   6  -8  234.31   14.60
  -4  -6   8  212.54    9.22
  -4   6   8  235.39   11.22
  -4  -6  -8  216.07   13.63
  -2   6   8  884.63   19.29
  -2   6  -8  785.70   22.81
  -2   6   8  864.21   25.74
  -2   6   8  937.09   28.26
  -2  -6   8  887.63   21.59
  -2   6  -8  782.62   24.62
  -2  -6  -8  771.34   23.46
   0   6   8 2827.15   40.09
   0   6  -8 2867.83   45.68
   0   6   8 2939.84   46.77
   0   6  -8 2860.16   42.98
   0  -6   8 2866.99   43.54
   0  -6  -8 2826.62   39.81
   2   6   8  774.69   23.67
   2   6  -8  897.85   27.26
   2   6  -8  850.27   27.76
   2   6   8  808.84   23.19
   2   6  -8  894.73   26.05
   2  -6   8  796.03   24.76
   2   6  -8  878.42   21.24
   2  -6  -8  921.32   19.82
   4   6  -8  230.22   14.64
   4   6   8  217.46   13.73
   4   6   8  211.90    8.75
   4   6  -8  216.70   13.23
   4   6   8  215.21   10.94
   4   6  -8  212.98   14.00
   4   6  -8  206.17    8.95
   4  -6   8  225.51   14.32
   6   6   8  134.40    4.51
   6   6   8  122.38    7.17
   6   6  -8  120.71   10.99
   6   6  -8  118.11    5.37
   6   6  -8  123.13    8.17
   8   6  -8  357.42   19.53
   8   6  -8  378.48   14.29
  10   6  -8  456.03   22.99
  10   6  -8  444.80   15.79
  12   6  -8  186.22   15.26
  14   6  -8   22.85    5.32
 -15  -7   8   -0.53    3.11
 -13  -7   8    9.05    4.11
 -13   7  -8   14.44    4.86
 -13   7   8   16.65    6.09
 -13  -7  -8   15.10    5.27
 -11  -7   8   25.05    6.10
 -11   7   8   22.21    6.13
 -11   7  -8   18.23    5.83
 -11  -7  -8   13.87    4.61
  -9   7   8    0.42    2.30
  -9   7  -8    1.59    1.59
  -9   7   8    3.85    1.58
  -9   7  -8    2.80    3.19
  -9  -7  -8    2.42    1.80
  -7   7   8   71.29    9.25
  -7   7   8   70.06    5.09
  -7   7  -8   82.78    9.98
  -7   7   8   75.43    6.28
  -7  -7  -8   67.46    8.85
  -5   7   8  210.54   14.64
  -5   7  -8  235.04   15.50
  -5   7   8  206.47   10.69
  -5  -7  -8  231.40   15.08
  -5   7   8  215.60    7.45
  -3   7   8   22.75    4.89
  -3   7  -8   19.96    4.21
  -3  -7   8   13.89    2.69
  -3   7   8   19.13    3.55
  -3  -7  -8   14.62    3.62
  -3   7   8   20.87    3.05
  -1   7   8   24.88    3.78
  -1   7  -8   12.65    3.12
  -1   7   8   32.88    5.28
  -1  -7  -8   14.83    1.74
  -1   7  -8    7.86    2.57
  -1  -7   8   30.79    4.57
  -1  -7  -8   10.57    2.78
   1   7  -8   35.20    5.45
   1   7   8   17.95    3.60
   1   7   8   12.61    3.34
   1  -7   8   10.76    3.04
   1   7  -8   33.16    4.46
   1  -7  -8   30.51    4.11
   3   7   8   17.87    4.20
   3   7  -8   14.21    3.88
   3   7  -8   15.04    3.62
   3   7  -8    7.81    2.96
   3   7   8   17.01    3.44
   3   7  -8   12.12    2.54
   3  -7   8   22.17    4.52
   5   7  -8  222.65   14.31
   5   7   8  235.37   11.15
   5   7  -8  205.56   14.28
   5   7  -8  200.50    9.00
   5   7  -8  215.67   11.66
   7   7   8   63.08    2.82
   7   7  -8   57.36    7.99
   7   7  -8   60.23    4.07
   7   7  -8   57.23    6.02
   9   7  -8   -3.73    2.52
   9   7  -8    2.61    1.63
  11   7  -8   21.67    5.14
  13   7  -8   10.30    4.05
 -14  -8   8   67.17   10.76
 -14   8  -8   83.97   13.03
 -14   8   8   65.92   11.27
 -12  -8   8  145.28   15.24
 -12   8  -8  165.03   16.74
 -12   8   8  153.80   16.29
 -12  -8  -8  176.76   17.55
 -10   8   8  790.51   34.25
 -10   8  -8  774.75   34.01
 -10   8  -8  793.02   34.80
 -10   8   8  802.35   21.17
 -10  -8  -8  724.08   32.91
  -8   8   8  215.53   16.75
  -8   8  -8  198.38   16.27
  -8   8   8  208.59   11.00
  -8  -8  -8  194.53   15.91
  -6   8   8  796.75   30.20
  -6   8   8  842.73   12.87
  -6   8  -8  857.42   31.11
  -6   8   8  808.86   22.29
  -6  -8  -8  817.04   30.14
  -6   8   8  852.54   15.09
  -4   8  -8  345.28   18.63
  -4   8   8  376.29   15.74
  -4  -8   8  374.55   14.62
  -4  -8  -8  327.76   17.50
  -4   8   8  384.72   12.50
  -2   8   8 1903.28   41.93
  -2  -8  -8 1934.69   25.43
  -2   8  -8 1867.38   39.75
  -2  -8   8 1882.18   34.67
  -2  -8  -8 1898.26   39.02
  -2   8   8 1820.13   31.20
  -2   8   8 1904.20   36.79
   0   8  -8  908.25   27.88
   0   8   8  884.38   26.84
   0   8  -8  852.38   25.04
   0  -8   8  876.05   25.71
   0   8   8  874.90   24.10
   0  -8  -8  826.26   23.01
   2   8  -8 1982.38   42.95
   2   8   8 1912.05   37.33
   2   8  -8 2007.34   42.16
   2  -8   8 1898.37   40.68
   2   8  -8 1912.52   34.76
   2   8   8 1905.16   38.97
   4   8   8  357.61   18.40
   4   8  -8  367.77   19.25
   4   8  -8  395.05   19.16
   4   8   8  334.65   14.45
   4   8  -8  370.74   14.08
   6   8   8  812.48   19.89
   6   8  -8  778.09   28.62
   6   8  -8  773.54   18.22
   6   8  -8  793.14   23.70
   8   8   8  152.97    4.22
   8   8  -8  191.52   14.67
   8   8  -8  185.92    7.60
   8   8  -8  195.00   11.73
  10   8  -8  701.91   28.79
  12   8  -8  148.88   13.76
  14   8  -8   65.04    9.30
 -13  -9   8    3.92    3.01
 -13   9   8    8.66    4.55
 -13   9  -8    5.29    3.47
 -13  -9  -8    5.25    3.54
 -11   9   8    4.39    2.67
 -11   9  -8    9.80    3.62
 -11   9  -8    5.33    3.37
 -11  -9  -8    4.15    3.39
  -9   9   8   29.64    7.37
  -9   9  -8   32.82    7.02
  -9   9   8   33.47    4.67
  -9  -9  -8   38.45    7.63
  -7   9   8    3.71    3.00
  -7   9   8    7.07    2.64
  -7   9  -8    3.15    2.02
  -7   9   8    4.34    1.25
  -7  -9  -8    8.44    3.37
  -5   9  -8  134.27   12.29
  -5   9   8  132.31    9.73
  -5   9   8  134.80    7.42
  -5  -9  -8  143.83   12.50
  -3  -9  -8  118.86    7.47
  -3   9  -8  110.94   10.36
  -3  -9   8   91.47    7.79
  -3  -9  -8  105.95    9.99
  -3   9   8   98.23    8.98
  -3   9   8   85.34    6.84
  -1   9   8    1.30    1.48
  -1   9   8    1.48    1.44
  -1   9  -8    3.52    1.96
  -1  -9   8   13.08    3.29
  -1  -9  -8   16.18    3.79
   1   9  -8   13.27    3.82
   1   9   8   15.38    3.77
   1   9   8   13.47    3.41
   1   9  -8   10.87    3.11
   1  -9   8    4.64    2.25
   1  -9  -8    1.93    1.00
   3   9   8  119.88    9.27
   3   9  -8   85.78    9.43
   3  -9   8  109.77   10.35
   3   9  -8   87.99    7.64
   3   9   8  114.88   10.36
   5   9   8  134.18    9.00
   5   9  -8  129.24   11.89
   5   9  -8  133.78    8.56
   5   9  -8  127.47   10.05
   7   9  -8    3.17    2.12
   7   9   8    7.04    1.85
   7   9  -8    6.63    2.19
   7   9  -8    4.64    2.06
   9   9  -8   22.85    5.56
   9   9  -8   27.39    3.16
   9   9  -8   24.81    4.56
  11   9  -8    0.92    1.59
  13   9  -8    5.69    3.23
 -12  10   8   81.53   12.12
 -12  10  -8   87.23   12.47
 -12  10  -8   76.73   11.91
 -12 -10  -8   61.79   10.67
 -10  10   8  171.20   16.64
 -10  10  -8  186.34   17.45
 -10  10   8  178.31   11.52
 -10 -10  -8  203.82   17.91
  -8  10   8   64.15    9.81
  -8  10  -8   67.03    9.64
  -8  10   8   69.52    7.32
  -8 -10  -8   62.38    9.43
  -6 -10  -8  222.22   13.62
  -6  10  -8  201.25   16.01
  -6  10   8  175.48   11.69
  -6 -10  -8  223.66   16.60
  -6  10   8  178.96    8.90
  -4 -10  -8  232.34   11.77
  -4  10  -8  245.43   16.35
  -4  10   8  284.61   15.23
  -4 -10   8  257.55   13.39
  -4  10   8  281.19   12.37
  -4 -10  -8  223.97   15.56
  -2  10  -8  321.40   17.64
  -2 -10   8  328.61   15.85
  -2  10   8  342.92   17.19
  -2  10   8  321.40   14.49
  -2 -10  -8  324.84   16.94
   0  10   8  152.85   11.90
   0 -10   8  150.66   11.41
   0  10  -8  150.33   11.40
   0 -10  -8  147.00   10.77
   0  10   8  154.25   11.04
   2  10   8  335.10   16.61
   2  10  -8  338.77   16.20
   2 -10   8  324.68   17.98
   2  10   8  350.74   17.85
   4  10  -8  252.66   16.51
   4  10   8  216.56   12.41
   4  10  -8  244.78   12.78
   6  10   8  218.12   11.17
   6  10  -8  212.95   15.60
   6  10  -8  210.96   11.20
   6  10  -8  205.18   13.45
   8  10  -8   68.55    9.04
   8  10   8   65.67    4.79
   8  10  -8   54.69    5.28
   8  10  -8   54.70    6.97
  10  10  -8  185.71   15.51
  12  10  -8   80.48   10.29
 -13 -11  -8    0.19    2.73
 -13  11  -8   -0.28    1.82
 -11  11   8   18.65    6.29
 -11 -11  -8   10.10    3.98
 -11  11  -8   24.07    7.24
 -11 -11  -8   11.26    4.50
  -9  11   8   42.58    8.31
  -9 -11  -8   49.62    8.00
  -9  11   8   47.49    6.37
  -9  11  -8   67.11   10.47
  -9 -11  -8   53.87    9.44
  -7 -11  -8   32.83    5.76
  -7  11   8   26.49    4.84
  -7  11  -8   34.66    6.96
  -7  11   8   33.47    4.17
  -7 -11  -8   30.20    6.90
  -5 -11  -8   21.35    4.03
  -5  11  -8   16.02    4.48
  -5  11   8    8.85    2.39
  -5  11   8    8.04    3.00
  -5 -11  -8   15.35    4.25
  -3 -11  -8   17.35    2.96
  -3  11  -8   15.23    4.16
  -3 -11  -8   17.24    4.36
  -3  11   8    9.28    3.32
  -3 -11   8   10.79    3.30
  -3  11   8    9.72    2.50
  -1  11  -8   28.78    5.43
  -1 -11  -8   40.94    6.12
  -1 -11   8   26.04    4.91
  -1  11   8   18.26    3.92
  -1  11   8   17.29    4.14
   1  11   8   42.09    6.43
   1  11  -8   21.09    4.33
   1 -11   8   33.58    5.89
   1  11   8   41.45    6.10
   3  11   8   16.08    3.69
   3  11  -8    9.90    2.83
   5  11  -8    5.98    3.22
   5  11   8   20.16    3.78
   5  11  -8    9.31    2.63
   5  11  -8    7.58    2.76
   7  11  -8   29.03    5.85
   7  11   8   33.89    4.28
   7  11  -8   28.63    4.41
   7  11  -8   29.89    5.37
   9  11  -8   33.92    6.75
   9  11  -8   31.13    4.26
  11  11  -8   15.45    4.29
  13  11  -8   -0.41    1.41
 -12  12   8    6.88    3.76
 -12 -12  -8    4.90    3.23
 -12  12  -8    4.80    3.89
 -12 -12  -8    9.73    4.40
 -10  12   8   25.56    6.76
 -10 -12  -8   10.33    3.56
 -10  12  -8   25.19    6.57
 -10  12   8   30.67    5.39
 -10 -12  -8   12.74    4.82
  -8 -12  -8   11.55    3.79
  -8  12   8    2.23    1.85
  -8  12  -8    8.53    4.46
  -8 -12  -8   13.26    4.15
  -6 -12  -8   13.22    3.59
  -6  12  -8   19.88    5.69
  -6  12   8   20.95    4.54
  -6 -12  -8   10.66    4.06
  -6  12   8   23.61    3.74
  -4 -12  -8    3.92    2.05
  -4  12  -8    2.81    2.02
  -4  12   8    2.35    1.12
  -4  12   8    4.84    2.28
  -4 -12  -8    1.53    1.39
  -4 -12   8    3.92    2.09
  -2  12  -8    2.17    1.37
  -2  12   8    6.55    2.36
  -2 -12  -8    1.82    1.99
  -2 -12   8    2.09    1.45
  -2  12   8   11.31    3.87
   0  12  -8  167.44   13.03
   0  12   8  164.72   12.12
   0  12   8  165.84   13.28
   2  12   8    3.27    1.97
   2  12  -8    4.39    2.34
   4  12   8    2.54    1.53
   4  12  -8    4.55    2.13
   6  12  -8   18.47    5.36
   6  12   8   11.31    3.01
   6  12  -8   12.50    3.52
   8  12  -8    8.35    3.47
   8  12  -8   10.40    2.87
  10  12  -8   15.92    4.84
  12  12  -8    1.64    1.89
 -13 -13  -8    0.25    1.93
 -11  13   8    0.53    3.06
 -11 -13  -8    0.48    2.21
 -11  13  -8   -0.30    2.89
 -11 -13  -8    2.40    3.19
  -9 -13  -8   28.16    5.96
  -9  13  -8   26.32    6.56
  -9  13   8   21.30    4.74
  -9 -13  -8   21.57    6.21
  -7 -13  -8   51.17    7.23
  -7  13   8   41.29    6.53
  -7  13  -8   44.10    8.28
  -7 -13  -8   51.45    8.66
  -5 -13  -8   -0.36    1.24
  -5  13  -8    1.51    2.45
  -5  13   8   -0.09    2.14
  -5 -13  -8    1.62    1.70
  -5  13   8   -0.15    1.43
  -3  13  -8    0.78    1.85
  -3 -13  -8    7.33    3.42
  -3  13   8    1.59    1.62
  -3  13   8   -0.75    1.34
  -3 -13   8    0.93    1.38
  -1  13  -8   53.35    7.82
  -1  13   8   54.21    8.21
  -1 -13  -8   50.49    7.19
  -1  13   8   48.85    6.67
   1  13  -8   56.85    7.49
   1  13   8   50.32    7.68
   3  13   8    1.94    2.05
   3  13  -8    1.71    1.69
   5  13   8    0.22    1.12
   5  13  -8    2.61    2.24
   7  13  -8   54.40    8.66
   7  13  -8   50.20    6.48
   9  13  -8   20.47    5.72
   9  13  -8   25.04    4.56
  11  13  -8    1.07    1.90
 -12 -14  -8   64.68   10.38
 -10 -14  -8  146.94   14.59
 -10  14  -8  167.17   17.60
 -10  14   8  153.54   13.10
 -10 -14  -8  179.83   18.02
  -8 -14  -8  145.14   13.26
  -8  14  -8  175.84   17.25
  -8  14   8  173.89   14.11
  -8 -14  -8  143.24   15.30
  -6 -14  -8  135.64   11.53
  -6  14   8  109.96   11.29
  -6  14  -8  134.48   14.30
  -6 -14  -8  142.51   14.45
  -4  14  -8  114.63   12.74
  -4  14   8   97.22   10.60
  -4  14   8  101.64    9.52
  -4 -14  -8   91.97   11.01
  -2  14  -8  205.61   16.20
  -2  14   8  221.73   16.31
  -2 -14  -8  243.00   16.86
  -2  14   8  224.91   14.66
   0  14  -8  569.38   25.49
   0  14   8  612.33   27.95
   2  14  -8  253.31   16.44
   4  14   8   96.07    9.41
   4  14  -8   83.44    9.24
   6  14  -8  129.56   13.27
   6  14  -8  132.30   11.20
   8  14  -8  155.23   14.84
   8  14  -8  159.44   11.98
  10  14  -8  148.31   14.86
  12  14  -8   69.92   10.38
 -11 -15  -8   17.82    5.81
  -9 -15  -8   36.47    7.28
  -9  15   8   33.35    6.46
  -9  15  -8   49.70    9.84
  -9 -15  -8   40.59    8.74
  -7 -15  -8   17.04    4.51
  -7  15   8   16.07    4.51
  -7  15  -8   23.05    6.05
  -7 -15  -8   18.07    5.51
  -5 -15  -8   -2.20    3.14
  -5  15   8    0.58    1.73
  -3  15  -8    1.19    2.15
  -3  15   8    0.72    1.69
  -3 -15  -8    2.55    2.15
  -1  15  -8  105.34   11.79
  -1  15   8  101.13   11.78
   1  15  -8   81.79    9.72
   1  15   8   92.55   11.25
   3  15  -8    3.95    2.77
   5  15  -8    0.96    1.63
   7  15  -8    9.43    3.67
   7  15  -8   12.63    3.89
   9  15  -8   35.74    7.55
  11  15  -8   21.16    5.84
 -12 -16  -8  104.46   13.86
 -10 -16  -8   91.20   11.99
  -8 -16  -8  438.59   23.71
  -8  16  -8  479.70   29.68
  -8  16   8  481.78   25.33
  -8 -16  -8  448.77   28.68
  -6  16   8  172.03   15.24
  -6  16  -8  194.35   17.98
  -6 -16  -8  189.50   17.99
  -4  16   8  431.99   24.06
  -4  16  -8  437.04   25.91
  -4 -16  -8  437.63   25.61
  -2  16  -8  698.23   31.83
  -2  16   8  688.81   30.81
   0  16  -8  475.41   24.79
   0  16   8  497.85   27.21
   2  16  -8  723.08   29.94
   2  16   8  716.01   32.70
   4  16  -8  428.82   22.60
   6  16  -8  178.72   14.32
   8  16  -8  442.23   26.17
   8  16  -8  477.44   22.80
  10  16  -8   95.62   12.26
 -11 -17  -8   11.38    3.64
  -9 -17  -8    0.63    1.71
  -9  17   8    1.91    2.05
  -7  17   8    3.44    3.21
  -7  17  -8   -1.68    2.03
  -7 -17  -8    2.71    3.27
  -5  17  -8    2.67    2.49
  -5  17   8    4.00    1.67
  -5 -17  -8    4.96    3.92
  -3  17  -8    6.85    3.77
  -3  17   8    9.48    3.88
  -1  17  -8   32.05    6.81
  -1  17   8   30.97    6.73
   1  17  -8   36.39    6.84
   1  17   8   34.73    7.62
   3  17  -8    9.30    4.03
   3  17   8    2.07    2.66
   5  17  -8    3.11    2.85
   5  17   8    7.33    4.84
   7  17  -8    2.78    3.05
   7  17  -8    0.42    1.53
   9  17  -8   -0.19    1.75
  11  17  -8   12.63    4.76
 -10 -18  -8   15.67    5.00
  -8  18   8   69.58   10.37
  -6  18   8   34.89    7.39
  -6  18  -8   31.12    7.83
  -4  18  -8  109.94   13.81
  -4  18   8  108.74   12.89
  -2  18  -8   12.44    4.35
  -2  18   8   11.98    4.33
   0  18  -8   11.69    4.65
   0  18   8   17.40    5.35
   2  18  -8   19.55    5.62
   2  18   8   22.14    6.41
   4  18  -8  123.94   13.25
   4  18   8  133.73   15.46
   6  18  -8   24.46    5.60
   6  18   8   34.28    8.10
   8  18  -8   75.12   11.39
  10  18  -8   18.04    5.96
  -9  19   8   49.40    9.23
  -7  19   8   14.30    5.30
  -5  19  -8   21.34    6.44
  -5  19   8   16.89    5.42
  -3  19  -8    6.85    4.46
  -3  19   8   -0.18    2.73
  -1  19  -8   32.60    7.28
  -1  19   8   29.78    7.17
   1  19  -8   23.87    6.33
   1  19   8   29.52    7.49
   3  19  -8    0.89    1.61
   3  19   8    8.60    4.78
   5  19  -8   10.08    4.09
   5  19   8   13.71    5.86
   7  19  -8    7.32    4.11
   7  19  -8   11.78    4.61
   9  19  -8   51.04    9.71
  -8  20   8   21.34    6.30
  -6  20   8    5.56    3.56
  -4  20  -8    5.04    3.48
  -4  20   8    3.90    2.50
  -2  20  -8    6.44    3.71
  -2  20   8   15.09    5.66
   0  20  -8   23.51    6.38
   0  20   8   20.60    6.39
   2  20  -8    6.73    3.57
   2  20   8    6.54    3.99
   4  20  -8    1.21    1.96
   6  20  -8   20.41    5.99
   8  20  -8   15.96    5.45
  -7  21   8    9.79    5.16
  -5  21   8   -0.06    2.06
  -3  21   8    3.95    2.99
  -1  21  -8   -0.01    1.61
  -1  21   8    2.61    1.57
   1  21  -8    1.41    2.39
   1  21   8    5.65    4.54
   3  21  -8    2.95    2.83
   5  21  -8    7.65    4.44
   0  22  -8  119.49   14.97
   2  22  -8   15.57    5.53
   4  22  -8   92.24   12.87
   6  22  -8   46.72    9.35
 -16   0   9   -1.27    2.73
 -14   0  -9    1.49    2.58
 -14   0   9    0.68    3.15
 -14   0   9   -2.42    2.72
 -12   0  -9    1.41    2.72
 -12   0   9   -2.32    2.73
 -12   0   9    0.37    1.51
 -10   0  -9    2.22    1.85
 -10   0   9   -0.06    1.61
 -10   0   9    2.14    1.87
 -10   0  -9    1.16    0.83
  -8   0  -9   -1.38    2.22
  -8   0   9    2.41    2.45
  -8   0   9    2.05    1.76
  -8   0  -9    3.08    1.48
  -6   0  -9   -1.56    2.02
  -6   0   9    0.09    1.36
  -6   0  -9    0.90    1.14
  -4   0  -9   -1.01    1.66
  -4   0   9   -1.54    2.10
  -4   0   9    0.42    0.40
  -4   0   9   -0.99    1.97
  -4   0  -9    0.12    0.89
  -2   0  -9    0.09    2.63
  -2   0   9    1.83    2.03
  -2   0   9    0.40    0.93
  -2   0   9    1.15    1.62
  -2   0  -9   -0.58    1.48
   0   0  -9    0.70    1.46
   0   0   9    0.50    1.01
   0   0  -9    2.23    1.55
   0   0   9    0.67    0.98
   0   0  -9   -1.08    1.95
   2   0  -9    2.84    2.19
   2   0  -9    0.21    0.65
   2   0   9    0.91    1.47
   2   0  -9   -0.27    0.65
   2   0  -9    0.51    1.41
   4   0  -9    0.85    0.65
   4   0  -9    0.25    1.93
   4   0  -9    1.74    1.67
   4   0   9   -0.54    0.99
   6   0  -9    3.59    2.55
   8   0  -9    1.75    2.11
  10   0  -9    3.84    3.03
 -15   1   9   61.07    9.48
 -15  -1   9   64.07   10.04
 -13   1   9  143.38   13.24
 -13  -1   9  143.87   13.76
 -13  -1   9  154.87   16.17
 -13   1   9  144.29   15.79
 -13  -1  -9  140.05   15.69
 -13   1  -9  133.45   15.33
 -11   1  -9  421.80   13.64
 -11  -1   9  421.69   21.48
 -11   1   9  416.08   19.96
 -11  -1   9  440.32   25.80
 -11   1   9  402.38   24.57
 -11   1  -9  430.84   25.32
 -11  -1  -9  470.94   26.75
  -9  -1  -9  247.72   10.27
  -9   1  -9  226.96   11.21
  -9  -1   9  205.39   13.50
  -9   1   9  197.37   12.40
  -9   1   9  213.38   16.68
  -9   1  -9  239.48   17.58
  -9  -1   9  208.23   16.45
  -9  -1  -9  242.31   17.78
  -7  -1  -9   78.93    6.49
  -7   1  -9   76.56    6.95
  -7   1   9   91.86   10.22
  -7   1  -9   70.91    8.99
  -7  -1   9   84.34    9.67
  -7  -1  -9   68.40    8.65
  -5  -1  -9  558.64   22.57
  -5   1   9  543.97   22.77
  -5   1  -9  567.39   23.16
  -5   1  -9  572.93   11.89
  -5  -1   9  546.35   22.87
  -5  -1  -9  569.67   18.42
  -5   1  -9  568.97   19.41
  -5   1   9  545.40    8.69
  -5   1   9  558.35    8.81
  -3  -1  -9  920.50   26.47
  -3   1   9 1000.52   28.43
  -3   1  -9  902.28   19.30
  -3   1  -9  935.86   27.10
  -3  -1   9  991.98   28.53
  -3   1   9  968.58   18.74
  -3  -1   9  993.01   18.30
  -3  -1   9  975.65   29.52
  -3  -1  -9  925.78   24.75
  -3   1  -9  929.37   25.57
  -3   1   9 1031.50   30.37
  -1   1  -9 1119.48   24.90
  -1  -1  -9 1141.94   26.37
  -1   1  -9 1162.11   27.27
  -1  -1   9 1210.84   28.85
  -1   1   9 1182.22   27.97
  -1  -1  -9 1168.68   29.26
  -1   1  -9 1128.88   29.16
  -1   1   9 1238.10   31.69
  -1   1   9 1161.41   24.64
  -1  -1   9 1158.65   24.09
   1   1  -9 1191.25   28.51
   1   1  -9 1219.63   24.44
   1   1   9 1176.88   24.88
   1   1   9 1155.97   29.07
   1  -1  -9 1204.63   31.28
   1   1  -9 1200.23   31.56
   1   1   9 1196.46   28.40
   1  -1   9 1170.77   27.60
   1  -1  -9 1208.30   23.15
   3   1  -9 1021.72   29.01
   3   1  -9  988.71   18.35
   3  -1  -9  972.01   29.35
   3   1  -9  991.80   21.88
   3   1  -9  954.07   29.12
   3  -1  -9  970.20   18.60
   3   1   9  958.71   28.01
   3  -1   9  964.77   27.90
   3  -1  -9 1005.25   16.50
   5   1  -9  536.52    8.94
   5   1  -9  554.39   23.03
   5   1  -9  552.09   23.14
   5  -1  -9  547.07   23.18
   5   1   9  607.01   24.05
   5  -1   9  586.60   23.66
   5   1  -9  550.16    9.17
   7  -1  -9   83.75    9.53
   7   1  -9   92.63   10.06
   9   1  -9  207.72   15.71
   9  -1  -9  202.89   15.70
  11   1  -9  423.66   23.50
 -16  -2   9    1.89    2.86
 -14   2   9    3.88    2.70
 -14  -2   9    0.84    3.16
 -14  -2  -9    1.09    2.64
 -14  -2   9   -4.93    4.34
 -14   2  -9    6.00    4.33
 -14   2   9    3.90    2.69
 -12  -2   9    1.82    1.93
 -12   2   9   -0.49    1.40
 -12  -2  -9    2.05    1.99
 -12  -2   9    1.25    1.94
 -12   2  -9    2.06    2.67
 -12   2   9    1.68    2.67
 -10  -2   9    2.21    2.08
 -10   2  -9    4.07    1.79
 -10   2   9    1.68    1.55
 -10  -2  -9    4.00    1.90
 -10  -2   9    3.07    2.56
 -10   2  -9    3.45    2.27
 -10   2   9    2.09    2.35
  -8  -2  -9  379.50   13.01
  -8   2   9  413.44   16.19
  -8   2  -9  343.94   14.84
  -8   2  -9  328.17   20.07
  -8   2   9  415.34   22.31
  -8  -2   9  441.36   23.24
  -8  -2  -9  368.63   21.24
  -6  -2  -9  122.89    8.14
  -6   2  -9  102.55    8.46
  -6   2  -9   98.39   10.25
  -6   2   9  108.41   10.76
  -6  -2   9  129.80   11.67
  -6   2  -9  105.32    4.83
  -6  -2  -9  119.01   11.05
  -4   2   9   52.74    6.95
  -4   2  -9   47.06    6.63
  -4   2  -9   48.84    4.39
  -4  -2   9   45.36    6.53
  -4  -2  -9   47.48    5.50
  -4   2   9   53.60    7.36
  -4   2  -9   51.93    6.20
  -4   2   9   52.25    4.12
  -4  -2   9   48.97    3.42
  -4  -2  -9   45.27    6.33
  -2  -2   9    7.59    2.48
  -2   2   9    7.94    2.44
  -2   2  -9    8.82    2.68
  -2  -2  -9   10.57    2.78
  -2   2  -9   10.00    2.37
  -2   2  -9   11.67    3.26
  -2   2   9    6.04    2.65
  -2  -2  -9   10.58    2.88
  -2   2   9    7.63    2.06
  -2  -2   9    8.41    1.93
   0   2   9  328.84   14.02
   0   2  -9  330.69   14.48
   0  -2  -9  316.83   15.61
   0   2  -9  314.02   15.88
   0   2   9  331.17   16.02
   0  -2   9  325.63   13.88
   0  -2  -9  331.77   13.26
   2  -2  -9    8.47    1.94
   2   2  -9    5.85    2.74
   2   2   9   10.34    2.28
   2  -2  -9   10.75    3.18
   2   2   9   10.11    2.51
   2  -2  -9    7.29    1.44
   2   2  -9    6.48    2.30
   2   2  -9    7.10    2.10
   2   2   9   12.56    3.16
   2  -2   9   10.42    2.90
   4   2  -9   46.92    6.43
   4  -2  -9   53.94    7.25
   4   2  -9   49.03    5.37
   4   2  -9   38.08    6.01
   4   2   9   44.67    6.37
   4  -2   9   50.93    6.87
   4  -2  -9   46.19    2.26
   6   2  -9  133.02   11.85
   6  -2  -9  115.89   11.00
   6   2  -9  129.38    4.56
   8   2  -9  441.61   22.59
   8  -2  -9  418.20   22.04
  10   2  -9    1.21    1.66
  12   2  -9    2.54    2.95
 -15  -3   9    8.56    4.09
 -13   3   9  120.66   11.50
 -13  -3   9  131.87   13.65
 -13   3  -9  135.89   15.38
 -13   3   9  131.30   15.13
 -13  -3   9  148.32   16.00
 -13  -3  -9  149.76   16.60
 -11   3   9  135.83   11.05
 -11  -3   9  141.82   12.93
 -11   3  -9  127.27    8.96
 -11   3  -9  129.68   14.10
 -11   3   9  137.94   14.48
 -11  -3   9  145.78   14.93
 -11  -3  -9  131.74   14.25
  -9   3  -9  106.82    8.71
  -9  -3   9   92.36    9.59
  -9   3   9   95.77    8.13
  -9   3  -9  114.87   12.37
  -9   3   9   97.32   11.38
  -9  -3   9   97.56   11.59
  -9  -3  -9  105.96   12.09
  -7  -3  -9  104.18    7.08
  -7   3  -9  103.26    8.74
  -7   3   9   88.93    6.62
  -7   3  -9  105.08    4.91
  -7   3  -9   98.81   10.53
  -7   3   9   86.26    9.99
  -7  -3   9   92.06   10.45
  -7  -3  -9  108.35   11.18
  -5  -3  -9   86.54    7.11
  -5   3  -9   73.53    7.41
  -5   3  -9   79.07    5.46
  -5   3  -9   81.15    8.85
  -5   3   9  110.45   10.56
  -5  -3   9  114.71   10.80
  -5   3   9  107.31    5.52
  -5  -3   9  106.96    3.59
  -5  -3  -9   87.54    9.17
  -3   3  -9  245.74   11.02
  -3   3   9  249.87   14.45
  -3   3  -9  252.89   14.39
  -3  -3  -9  281.89   13.71
  -3   3   9  252.89   15.13
  -3   3  -9  254.27   13.97
  -3  -3   9  278.63   10.24
  -3  -3  -9  278.39   14.71
  -1   3  -9   10.14    2.42
  -1  -3  -9   13.01    3.00
  -1   3   9   11.26    3.02
  -1   3   9   13.84    3.56
  -1   3  -9   10.23    2.93
  -1  -3  -9   11.47    3.18
  -1  -3   9   13.77    2.64
   1   3   9   10.57    2.32
   1   3  -9   15.10    3.46
   1  -3  -9   10.67    1.41
   1   3  -9   11.93    3.37
   1  -3  -9   12.00    3.26
   1   3   9    9.73    2.81
   1  -3   9   14.83    3.37
   1  -3  -9   12.77    2.54
   3   3  -9  281.27   15.63
   3   3   9  277.70   10.25
   3  -3  -9  242.08   14.94
   3   3   9  276.90   13.42
   3   3  -9  275.31   15.94
   3   3  -9  275.59   13.03
   3  -3   9  249.38   14.46
   3  -3  -9  250.43    8.09
   5  -3  -9  101.99   10.15
   5   3  -9  105.18   10.36
   5  -3   9   79.49    8.77
   5   3  -9  111.69    6.10
   7   3  -9   92.58    9.97
   7   3  -9   98.25    4.69
   9   3  -9   86.54   10.20
   9   3  -9   85.90    3.24
  11   3  -9  148.11   13.88
 -16  -4   9    1.16    1.74
 -14  -4   9    9.54    4.18
 -14   4  -9   17.33    5.86
 -14   4   9   14.28    5.51
 -14  -4  -9   10.32    4.86
 -12  -4   9    2.90    1.76
 -12   4   9    2.22    1.65
 -12   4   9   -1.35    2.60
 -12   4  -9    0.79    2.24
 -12  -4  -9   10.60    4.93
 -10   4   9    3.43    1.45
 -10  -4   9    1.26    1.83
 -10  -4   9    1.11    1.81
 -10   4   9   -0.16    1.89
 -10   4  -9    7.43    3.99
 -10  -4  -9   -1.54    3.32
  -8   4   9  179.09    9.86
  -8   4  -9  197.52   15.91
  -8   4   9  178.31   14.97
  -8  -4   9  237.52   17.50
  -8   4  -9  187.56    7.24
  -8  -4  -9  251.58   17.68
  -6  -4  -9    2.93    2.49
  -6   4  -9    2.91    1.12
  -6   4   9    5.53    3.07
  -6   4  -9    5.29    2.92
  -6  -4  -9    1.83    1.36
  -6   4   9    1.97    0.88
  -4  -4  -9   35.75    5.71
  -4   4   9   34.09    5.63
  -4   4  -9   28.77    3.79
  -4  -4  -9   32.48    4.57
  -4   4  -9   32.39    5.13
  -4  -4   9   28.66    2.96
  -4   4   9   34.29    3.85
  -2   4   9    8.41    2.91
  -2  -4  -9    9.02    2.83
  -2   4  -9   12.12    2.67
  -2   4   9    8.25    3.12
  -2  -4  -9   11.79    2.93
  -2   4  -9   15.12    3.67
  -2  -4   9    5.83    1.85
  -2   4  -9   11.88    3.25
   0   4   9   79.83    7.10
   0   4  -9   80.87    7.60
   0  -4  -9   80.07    8.00
   0   4   9   74.36    7.76
   0   4  -9   74.88    8.24
   0   4  -9   85.77    7.44
   0  -4   9   72.80    6.69
   0  -4  -9   82.74    6.87
   2   4  -9    4.17    1.65
   2   4   9   10.19    2.27
   2   4   9    8.16    2.53
   2   4  -9    7.19    2.75
   2  -4  -9    9.66    3.23
   2   4   9   10.27    2.94
   2   4  -9    5.76    1.99
   2  -4   9   14.57    3.42
   2  -4  -9    7.90    1.91
   4   4   9   36.53    5.66
   4   4  -9   28.65    5.19
   4   4   9   27.71    2.88
   4   4  -9   27.16    5.25
   4  -4  -9   32.12    5.87
   4   4  -9   25.85    4.40
   4   4   9   26.43    3.90
   4  -4   9   30.69    5.33
   6   4  -9    1.73    1.63
   6   4  -9    1.14    0.86
   8   4  -9  232.61   16.28
   8   4  -9  236.13    8.57
  10   4  -9    0.17    1.93
  12   4  -9    2.72    2.21
 -15  -5   9   46.41    9.12
 -13  -5   9    1.37    2.74
 -13   5   9    4.72    2.34
 -13   5   9    1.16    3.00
 -13   5  -9   -0.59    1.94
 -13  -5  -9   -1.60    3.07
 -11   5   9  124.56   10.21
 -11  -5   9   85.31   10.59
 -11   5  -9  122.54   13.94
 -11   5   9  118.66   13.85
 -11  -5  -9   89.44   11.75
  -9   5  -9  117.13   12.76
  -9   5   9  127.99   13.28
  -9   5   9  129.19    8.73
  -9   5   9  111.71    3.94
  -9  -5  -9  108.57   12.28
  -7   5  -9   90.08   10.38
  -7   5  -9   78.79    5.93
  -7   5   9   87.99   10.20
  -7   5   9   89.11    5.80
  -7   5   9  100.03    5.64
  -7  -5  -9   61.92    8.68
  -5   5   9   37.93    6.29
  -5   5  -9   39.69    4.56
  -5   5  -9   38.47    6.43
  -5   5   9   37.35    4.03
  -5  -5   9   34.68    3.01
  -5  -5  -9   35.14    5.65
  -3   5  -9   34.50    4.55
  -3   5   9   57.03    7.08
  -3   5   9   49.37    7.12
  -3   5  -9   38.82    5.63
  -3  -5   9   59.36    5.21
  -3   5  -9   35.37    5.73
  -3  -5  -9   35.53    5.40
  -1   5   9  168.70   11.05
  -1   5   9  171.00    9.35
  -1   5  -9  198.81   11.74
  -1  -5  -9  202.16   12.43
  -1   5  -9  205.11   13.43
  -1   5   9  183.06   12.55
  -1   5  -9  204.84   12.38
  -1  -5   9  183.66   10.49
  -1  -5  -9  210.18   11.76
   1   5  -9  184.98   12.15
   1   5   9  211.65   11.92
   1   5   9  207.08   10.98
   1   5   9  211.13   12.83
   1   5  -9  171.07   12.55
   1   5  -9  183.26   10.47
   1  -5   9  207.53   12.27
   1  -5  -9  182.01    9.48
   3   5   9   36.11    5.57
   3   5   9   37.60    4.08
   3   5  -9   56.58    7.14
   3   5   9   29.60    4.52
   3   5  -9   53.52    7.39
   3   5  -9   57.69    6.65
   3   5  -9   56.42    5.11
   3  -5   9   32.94    5.35
   3  -5  -9   57.30    4.35
   5   5   9   34.70    4.42
   5   5  -9   32.93    5.98
   5   5  -9   35.08    5.40
   5   5   9   36.46    2.88
   7   5  -9   65.19    8.56
   7   5  -9   67.94    5.49
   9   5  -9  109.41   11.63
   9   5  -9  108.05    6.71
  11   5  -9   93.09   11.07
  13   5  -9    3.90    3.34
 -14  -6   9    8.22    4.06
 -14   6   9   10.31    4.62
 -14   6  -9   12.06    5.00
 -12   6   9    3.16    2.11
 -12  -6   9    5.87    3.57
 -12   6  -9   11.89    4.97
 -12   6   9    6.79    4.13
 -12  -6  -9    9.75    4.24
 -10   6   9   64.17    6.55
 -10   6  -9   68.42   10.28
 -10   6   9   66.47   10.06
 -10  -6  -9   48.70    8.53
  -8   6   9   56.67    8.70
  -8   6  -9   54.78    8.51
  -8   6   9   49.97    4.67
  -8   6   9   52.53    4.34
  -8  -6  -9   53.13    8.41
  -6   6   9   49.43    7.61
  -6   6  -9   40.25    6.88
  -6   6   9   50.47    4.74
  -6  -6  -9   39.41    6.87
  -4   6   9   30.38    2.94
  -4   6  -9   37.31    4.94
  -4   6   9   29.28    5.42
  -4  -6   9   27.45    3.41
  -4   6  -9   42.89    6.51
  -4   6   9   28.87    4.20
  -4  -6  -9   36.70    5.97
  -2   6   9  148.49    8.28
  -2   6   9  165.39   11.72
  -2   6  -9  144.27   10.11
  -2   6   9  156.84   12.29
  -2   6  -9  146.84   10.99
  -2  -6   9  136.11    8.85
  -2  -6  -9  133.69   10.18
   0   6   9   26.56    4.41
   0   6   9   27.74    4.25
   0   6  -9   25.12    4.71
   0   6  -9   30.18    5.63
   0   6   9   29.27    5.15
   0  -6   9   29.90    4.61
   0   6  -9   26.99    4.27
   0  -6  -9   26.19    4.11
   2   6   9  137.71   10.36
   2   6   9  140.13    8.80
   2   6  -9  147.04   11.46
   2   6  -9  152.35   11.16
   2   6   9  137.07   10.07
   2   6  -9  130.78   11.19
   2   6  -9  136.84    8.79
   2  -6   9  151.57   11.21
   2  -6  -9  155.16    8.40
   4   6   9   37.19    6.05
   4   6   9   39.35    3.85
   4   6  -9   34.15    5.84
   4   6   9   39.92    5.13
   4   6  -9   27.82    4.99
   4   6  -9   26.55    3.35
   4  -6   9   39.12    6.29
   6   6   9   35.72    2.25
   6   6  -9   50.89    7.47
   6   6  -9   43.96    6.91
   6   6  -9   53.75    3.56
   6   6  -9   52.53    5.47
   8   6  -9   41.62    6.98
   8   6  -9   50.30    5.21
  10   6  -9   52.65    8.31
  12   6  -9    6.79    2.98
  14   6  -9    9.52    4.54
 -15  -7   9   44.96    9.27
 -13  -7   9  186.47   17.56
 -13   7  -9  228.52   20.64
 -13   7   9  244.56   21.47
 -13  -7  -9  194.86   19.39
 -11   7   9  509.92   19.69
 -11   7  -9  471.84   28.03
 -11   7   9  490.62   28.34
 -11  -7  -9  445.06   27.01
  -9   7  -9  714.64   32.09
  -9   7   9  705.46   31.99
  -9   7   9  696.11   18.97
  -9   7  -9  710.85   32.32
  -9   7   9  719.75   17.59
  -9  -7  -9  705.46   31.60
  -7   7   9  497.50   24.88
  -7   7   9  496.44   11.44
  -7   7  -9  515.88   25.78
  -7   7   9  520.70   16.36
  -7  -7  -9  508.95   24.95
  -5   7   9  534.64   11.00
  -5   7   9  546.01   24.45
  -5   7   9  524.53   17.48
  -5   7  -9  549.89   24.50
  -5  -7   9  522.88   14.80
  -5  -7  -9  512.73   23.27
  -3   7   9  965.00   20.31
  -3   7   9  951.93   29.84
  -3   7  -9  977.13   26.92
  -3   7  -9  931.07   29.67
  -3  -7   9  978.09   23.24
  -3   7   9  988.11   25.52
  -3  -7  -9  978.16   29.48
  -1   7   9 1471.98   29.29
  -1   7  -9 1478.67   34.60
  -1   7   9 1501.16   34.40
  -1   7   9 1601.40   38.12
  -1  -7  -9 1485.32   16.22
  -1   7  -9 1447.43   34.04
  -1  -7   9 1505.50   32.24
  -1  -7  -9 1453.45   32.37
   1   7   9 1415.26   32.26
   1   7  -9 1536.09   37.05
   1   7   9 1436.32   30.75
   1   7  -9 1527.81   38.93
   1   7   9 1508.59   35.21
   1   7  -9 1470.38   31.62
   1  -7   9 1532.39   35.62
   1  -7  -9 1447.30   28.68
   3   7   9  991.07   29.56
   3   7   9  985.97   22.62
   3   7   9  960.30   26.23
   3   7  -9 1010.82   29.99
   3   7  -9  963.33   31.42
   3  -7   9 1013.88   31.22
   3   7  -9  983.63   23.28
   5   7   9  546.38   13.94
   5   7  -9  580.25   23.68
   5   7  -9  525.61   24.03
   5   7   9  515.52   17.73
   5   7  -9  550.54   15.02
   5   7  -9  527.07   18.52
   7   7  -9  447.38   22.69
   7   7  -9  471.46   10.17
   7   7  -9  460.51   17.01
   9   7  -9  645.63   28.37
   9   7  -9  655.33   19.86
  11   7  -9  431.39   23.84
  13   7  -9  200.53   17.01
 -12   8   9    6.86    4.48
 -12   8  -9    7.17    3.91
 -12  -8  -9    7.25    4.04
 -10   8   9   24.96    6.38
 -10   8  -9   18.17    5.28
 -10   8   9   17.83    3.43
 -10   8  -9   20.20    5.25
 -10  -8  -9   15.47    5.10
  -8   8   9    9.06    3.61
  -8   8   9    7.33    1.69
  -8   8   9    5.42    1.99
  -8   8  -9   10.23    4.31
  -8  -8  -9    0.52    1.68
  -6   8   9   23.09    5.36
  -6   8   9   22.58    2.10
  -6   8  -9   19.33    5.06
  -6   8   9   24.13    3.84
  -6  -8  -9   35.11    6.61
  -4   8   9   30.77    3.61
  -4   8   9   37.71    6.49
  -4   8  -9   40.93    6.81
  -4  -8  -9   29.79    5.48
  -4  -8   9   19.29    3.35
  -4   8   9   32.06    4.86
  -2   8   9    0.59    0.87
  -2  -8  -9    2.00    0.75
  -2   8  -9   -0.88    1.13
  -2  -8   9    0.97    0.97
  -2  -8  -9    2.59    2.04
   0   8   9  174.20   11.05
   0   8  -9  179.12   12.73
   0   8   9  193.99   13.32
   0   8  -9  167.31   11.50
   0  -8   9  173.31   11.89
   0  -8  -9  167.29   10.84
   2   8   9    2.59    1.89
   2   8  -9    0.96    1.35
   2   8   9    1.23    1.54
   2   8  -9   -0.02    1.47
   2  -8   9   -0.70    0.95
   2   8  -9    0.66    1.13
   2  -8  -9    0.26    0.86
   4   8   9   26.29    4.37
   4   8  -9   24.30    5.13
   4   8  -9   19.26    3.14
   6   8   9   32.99    3.38
   6   8  -9   36.67    6.49
   6   8   9   30.48    4.18
   6   8  -9   28.21    3.38
   6   8  -9   29.20    4.72
   8   8  -9    8.41    3.49
   8   8  -9    8.03    1.52
   8   8  -9    3.44    1.96
  10   8  -9   10.83    3.85
  12   8  -9   -0.83    2.91
  14   8  -9    3.35    2.14
 -13   9  -9  156.95   17.55
 -13   9   9  169.51   18.25
 -11   9  -9  219.11   19.55
 -11   9   9  241.25   20.48
 -11   9  -9  230.83   20.11
 -11  -9  -9  225.75   19.67
  -9   9   9  233.17   18.86
  -9   9   9  248.20   10.65
  -9   9  -9  230.67   19.15
  -9   9   9  244.74   12.38
  -9  -9  -9  252.31   19.47
  -7   9   9  133.23    5.00
  -7   9   9  135.27   13.66
  -7   9   9  126.17    4.38
  -7   9  -9  124.63   12.89
  -7   9   9  141.94    9.94
  -7  -9  -9  133.28   13.22
  -5   9   9  354.53   20.38
  -5   9   9  363.04   16.37
  -5   9  -9  330.48   19.65
  -5  -9  -9  340.23   19.51
  -5  -9   9  356.55   14.16
  -5   9   9  380.37   12.29
  -3  -9  -9  367.86   12.86
  -3   9  -9  358.94   19.39
  -3  -9   9  328.65   15.02
  -3  -9  -9  356.16   18.69
  -3   9   9  345.21   13.89
  -3   9   9  363.68   17.26
  -1   9  -9  389.33   18.75
  -1  -9   9  445.55   18.82
  -1   9   9  461.44   17.88
  -1  -9  -9  400.10   18.19
   1   9   9  415.80   19.37
   1   9  -9  444.95   18.71
   1  -9   9  425.29   19.88
   1  -9  -9  473.44   18.12
   1   9   9  378.89   17.68
   3   9   9  366.56   18.85
   3   9  -9  346.94   19.90
   3   9   9  352.34   16.62
   3   9  -9  352.66   15.48
   5   9   9  325.70   14.71
   5   9  -9  358.56   20.61
   5   9  -9  371.20   14.48
   5   9  -9  377.03   17.49
   7   9  -9  148.08   13.57
   7   9   9  132.16    8.17
   7   9  -9  148.57    8.03
   7   9  -9  141.21   10.68
   9   9  -9  237.07   17.72
  11   9  -9  236.89   18.00
  13   9  -9  158.89   15.12
 -12  10   9    2.30    2.43
 -12  10  -9    5.57    3.72
 -12  10  -9   14.94    5.79
 -12 -10  -9    7.67    3.89
 -10  10   9    6.99    4.18
 -10  10  -9    5.69    3.27
 -10 -10  -9   13.01    5.17
  -8  10   9   17.39    5.49
  -8  10  -9   37.06    7.55
  -8  10   9   26.54    4.56
  -8 -10  -9   30.13    6.67
  -6  10   9   12.16    2.28
  -6 -10  -9   18.60    4.02
  -6  10  -9   12.13    3.80
  -6  10   9   12.62    3.36
  -6 -10  -9   21.93    5.44
  -4 -10  -9  138.83    9.00
  -4  10  -9  170.87   14.15
  -4 -10  -9  133.62   12.32
  -4  10   9  176.31   12.26
  -4 -10   9  144.75   10.39
  -4  10   9  184.49   10.13
  -2  10  -9  128.08   11.44
  -2 -10   9  153.52   11.15
  -2  10   9  136.90   11.14
  -2  10   9  140.00    9.70
  -2 -10  -9  136.45   11.37
   0  10   9    2.36    1.37
   0  10  -9    2.60    2.43
   0 -10   9    3.27    1.85
   0 -10  -9    2.32    2.27
   2  10   9  154.20   11.72
   2  10  -9  160.23   11.36
   2  10   9  148.99   11.93
   4  10  -9  155.51   13.85
   4  10   9  125.55    9.83
   4  10  -9  150.52   10.25
   6  10   9   21.66    3.69
   6  10  -9   22.56    5.73
   6  10  -9   20.90    3.57
   6  10  -9   17.75    3.96
   8  10  -9   19.87    5.47
   8  10  -9   20.12    3.03
   8  10  -9   20.25    4.35
  10  10  -9    6.22    2.73
  12  10  -9   10.87    4.01
  14  10  -9   20.27    5.36
 -13 -11  -9   16.43    6.07
 -11  11   9   27.85    7.26
 -11 -11  -9   29.74    6.93
 -11  11  -9   34.58    8.29
 -11 -11  -9   33.32    8.08
  -9  11   9    4.24    3.71
  -9 -11  -9    6.94    2.97
  -9  11  -9    6.84    3.94
  -9  11   9    3.50    2.09
  -9 -11  -9   12.69    4.52
  -7 -11  -9  113.64   10.57
  -7  11  -9   90.24   11.44
  -7  11   9   86.06    8.64
  -7 -11  -9  109.34   12.70
  -5 -11  -9  273.34   13.99
  -5  11  -9  262.27   18.50
  -5  11   9  263.20   15.39
  -5  11   9  280.99   12.53
  -5 -11  -9  284.88   18.99
  -3 -11  -9  328.90   12.80
  -3  11  -9  336.05   19.58
  -3 -11   9  296.74   15.80
  -3  11   9  327.22   17.86
  -3  11   9  333.32   15.13
  -3 -11  -9  313.39   18.38
  -1  11   9   21.40    4.42
  -1  11  -9   28.53    5.36
  -1 -11  -9   33.44    5.69
  -1 -11   9   20.43    4.52
  -1  11   9   18.48    4.54
   1  11   9   28.02    5.15
   1  11  -9   20.43    4.47
   3  11   9  312.60   16.53
   3  11  -9  287.84   15.48
   5  11  -9  301.20   19.65
   5  11   9  275.21   14.39
   5  11  -9  289.39   14.48
   7  11  -9  101.56   11.66
   7  11  -9  104.20    7.99
   9  11  -9    5.54    3.33
  11  11  -9   27.34    6.14
  13  11  -9   14.14    4.46
 -12 -12  -9    5.50    2.45
 -10  12   9   14.60    5.21
 -10 -12  -9   17.65    5.18
 -10  12  -9   12.67    5.02
 -10 -12  -9   21.48    6.20
  -8 -12  -9   26.80    5.47
  -8  12   9   49.18    6.86
  -8  12  -9   41.72    8.23
  -8 -12  -9   33.82    7.62
  -6 -12  -9   12.55    3.52
  -6  12  -9   11.88    4.63
  -6  12   9    7.40    3.12
  -6 -12  -9   12.66    4.64
  -4 -12  -9  167.49   10.39
  -4  12   9  139.77   11.90
  -4  12  -9  152.77   13.99
  -4  12   9  143.24    9.95
  -4 -12   9  152.30   11.60
  -4 -12  -9  166.00   14.12
  -2  12  -9   92.15   10.48
  -2 -12   9  125.39   10.86
  -2  12   9   87.78    9.84
  -2  12   9   87.17    8.54
  -2 -12  -9  127.09   11.86
   0  12  -9   31.43    5.83
   0 -12  -9   32.29    5.55
   0  12   9   38.74    6.09
   2  12  -9  106.24   10.12
   4  12   9  170.22   12.15
   4  12  -9  142.93   13.49
   4  12  -9  150.07   11.27
   6  12  -9    4.56    2.31
   6  12   9    8.89    2.50
   6  12  -9    9.12    2.56
   8  12  -9   32.05    6.98
   8  12  -9   34.57    4.81
  10  12  -9   15.45    5.16
  12  12  -9    3.52    1.58
 -13 -13  -9    8.30    4.28
 -11 -13  -9   42.50    8.36
 -11 -13  -9   48.69    9.98
  -9  13   9  131.25   15.18
  -9 -13  -9  125.17   12.56
  -9  13  -9  131.21   15.31
  -9  13   9  139.22   11.99
  -9 -13  -9  140.93   15.50
  -7 -13  -9   56.34    7.67
  -7  13  -9   73.25   10.92
  -7  13   9   73.14    8.83
  -7 -13  -9   65.90   10.18
  -5 -13  -9  107.03    9.19
  -5  13   9  134.31   12.02
  -5  13  -9  127.95   13.48
  -5 -13  -9  111.87   12.33
  -3  13  -9   42.89    7.46
  -3  13   9   49.57    7.66
  -3 -13  -9   38.25    6.81
  -3  13   9   34.69    5.40
  -3 -13   9   51.16    7.34
  -1  13  -9  361.14   20.73
  -1  13   9  438.57   22.96
  -1  13   9  434.31   20.23
  -1 -13  -9  400.94   20.83
   1  13  -9  442.59   21.81
   3  13  -9   49.96    7.27
   5  13  -9  104.87   12.03
   5  13   9  110.34    9.88
   5  13  -9  115.98   10.21
   7  13  -9   43.86    8.07
   7  13  -9   53.43    6.48
   9  13  -9  120.23   13.49
  11  13  -9   43.39    8.94
  13  13  -9   10.00    3.58
 -12 -14  -9   -0.86    2.46
 -10  14   9   18.14    6.84
 -10 -14  -9   16.04    4.65
 -10  14  -9   15.67    5.78
 -10 -14  -9   25.42    7.31
  -8 -14  -9   12.25    3.69
  -8  14  -9   18.97    5.94
  -8  14   9   19.49    4.78
  -8 -14  -9   16.22    6.08
  -6 -14  -9   37.31    5.91
  -6  14   9   51.64    7.79
  -6  14  -9   45.86    9.03
  -6 -14  -9   37.25    7.70
  -4  14  -9   -0.89    1.89
  -4  14   9    2.13    1.83
  -4 -14  -9   -0.62    2.48
  -4  14   9   -0.66    2.17
  -2  14  -9   49.64    8.26
  -2  14   9   67.88    9.32
  -2  14   9   58.22    7.61
  -2 -14  -9   35.08    6.43
   0  14  -9  504.62   24.80
   0  14   9  492.47   25.32
   2  14  -9   49.97    7.47
   4  14  -9    0.68    1.69
   6  14  -9   47.81    8.62
   6  14  -9   44.33    6.57
   8  14  -9   19.00    5.54
  10  14  -9   10.19    4.79
  12  14  -9   -0.34    2.70
 -11 -15  -9  194.20   17.55
  -9 -15  -9  166.67   14.88
  -9  15  -9  165.39   17.61
  -9  15   9  166.87   14.38
  -9 -15  -9  173.52   18.01
  -7 -15  -9  314.38   18.53
  -7  15  -9  324.77   23.96
  -7  15   9  321.13   20.14
  -7 -15  -9  325.35   23.78
  -5  15  -9  401.58   25.19
  -5  15   9  407.27   22.71
  -5 -15  -9  388.97   24.50
  -3  15  -9  392.21   23.96
  -3  15   9  384.46   22.21
  -3 -15  -9  394.73   23.29
  -1  15  -9  443.67   24.25
  -1  15   9  421.36   24.28
   1  15  -9  446.85   23.63
   1  15   9  508.46   27.01
   3  15  -9  404.20   21.40
   5  15  -9  407.09   20.77
   7  15  -9  300.92   21.94
   7  15  -9  288.64   16.77
   9  15  -9  164.67   16.21
  11  15  -9  183.65   17.22
 -12 -16  -9    4.00    3.77
 -10 -16  -9   14.86    5.39
  -8 -16  -9    5.24    3.54
  -8  16  -9   11.46    6.02
  -8  16   9    9.50    4.11
  -8 -16  -9    3.55    4.12
  -6  16  -9    7.47    3.78
  -6  16   9   14.63    4.73
  -6 -16  -9   18.07    5.74
  -4  16  -9    4.69    3.33
  -4  16   9    3.87    2.42
  -4 -16  -9    4.14    2.63
  -2  16  -9   19.96    5.44
  -2  16   9   13.83    4.52
   0  16  -9   77.19   10.46
   0  16   9   87.35   11.82
   2  16  -9   16.11    4.51
   2  16   9   15.78    4.85
   4  16  -9    4.66    3.10
   6  16  -9   16.51    5.12
   6  16  -9   19.67    4.80
   8  16  -9    7.90    4.06
  10  16  -9   14.82    5.05
  -9 -17  -9   73.67   10.31
  -7  17  -9  207.73   19.70
  -7  17   9  200.04   16.86
  -7 -17  -9  198.49   19.34
  -5  17  -9  172.81   17.24
  -5  17   9  175.92   16.00
  -5 -17  -9  174.24   17.42
  -3  17   9  331.54   22.02
  -3  17  -9  318.37   22.70
  -1  17  -9  246.31   19.22
  -1  17   9  243.49   19.38
   1  17  -9  218.30   17.53
   1  17   9  269.42   21.00
   3  17  -9  315.84   20.39
   3  17   9  326.61   23.67
   5  17  -9  175.23   14.82
   7  17  -9  188.64   18.06
   9  17  -9   67.42   11.12
  11  17  -9  109.75   13.80
  -8  18   9    2.52    3.00
  -6  18   9    3.08    2.62
  -6  18  -9    1.84    2.00
  -6 -18  -9    1.66    2.17
  -4  18  -9    8.72    4.30
  -4  18   9   17.55    5.52
  -2  18  -9   11.79    4.35
  -2  18   9   17.17    5.43
   0  18  -9   11.34    4.67
   0  18   9    9.79    3.65
   2  18  -9   13.22    4.21
   2  18   9   10.93    4.57
   4  18  -9    2.88    1.66
   4  18   9   10.49    4.58
   6  18  -9    0.94    2.03
   6  18  -9    0.69    2.98
   6  18   9    5.51    4.23
   8  18  -9   -1.15    2.62
  10  18  -9    8.22    4.01
  -7  19   9    2.23    2.40
  -5  19  -9    8.73    3.10
  -5  19   9   10.38    4.12
  -3  19  -9   17.07    6.32
  -3  19   9    9.78    4.13
  -1  19  -9    0.12    2.73
  -1  19   9    2.97    2.49
   1  19  -9   -1.26    1.65
   1  19   9    2.35    2.52
   3  19  -9   11.24    4.10
   3  19   9   14.02    5.97
   5  19  -9    6.79    3.59
   7  19  -9   -2.21    3.43
  -6  20   9   12.72    4.23
  -4  20   9   22.08    7.16
  -2  20  -9    2.55    1.78
  -2  20   9    6.50    2.65
   0  20  -9    2.81    3.60
   0  20   9    2.03    1.58
   2  20  -9   10.79    4.73
   2  20   9   11.46    5.49
   4  20  -9   15.64    5.36
  -5  21   9   15.61    6.23
  -3  21   9   10.19    4.22
  -1  21  -9   66.08   11.43
   1  21  -9   57.12   10.01
   3  21  -9   18.74    5.41
   5  21  -9    8.29    3.53
   2  22  -9    8.00    4.24
   4  22  -9    0.04    2.39
 -14   0  10    8.87    3.49
 -14   0  10   11.73    5.77
 -12   0  10  504.41   23.96
 -12   0  10  515.21   29.66
 -12   0 -10  539.80   30.47
 -10   0 -10  347.43   13.29
 -10   0  10  403.25   19.45
 -10   0  10  417.89   25.03
 -10   0 -10  349.74   23.06
  -8   0 -10 1190.19   38.70
  -8   0  10 1167.90   39.01
  -8   0 -10 1220.26   27.72
  -6   0 -10   46.09    7.25
  -6   0  10   46.62    7.30
  -6   0 -10   45.44    5.67
  -4   0 -10  277.48   15.95
  -4   0  10  293.94   16.83
  -4   0  10  321.50    9.76
  -4   0 -10  280.73   14.63
  -2   0 -10  593.14   21.35
  -2   0  10  605.20   22.39
  -2   0  10  593.47   17.03
  -2   0  10  638.80   24.52
  -2   0 -10  605.54   22.16
   0   0 -10 1279.32   27.86
   0   0  10 1283.08   29.39
   0   0 -10 1272.69   29.42
   0   0  10 1276.47   28.89
   0   0 -10 1276.92   33.21
   2   0 -10  626.53   16.60
   2   0 -10  633.89   22.75
   2   0 -10  636.10   24.64
   2   0 -10  629.49   16.88
   2   0  10  602.66   21.96
   4   0 -10  319.73   18.04
   4   0  10  276.60   16.26
   4   0 -10  321.33    8.78
   6   0 -10   48.65    7.59
   8   0 -10 1172.15   38.03
  10   0 -10  399.87   23.33
 -15  -1  10    1.30    2.04
 -13  -1  10    2.89    2.44
 -13   1  10    4.09    3.01
 -13  -1 -10    2.68    3.94
 -13   1 -10    6.72    2.66
 -13   1  10    8.66    4.60
 -13  -1  10    2.50    2.85
 -11   1  10   -1.30    1.71
 -11  -1  10    1.03    1.37
 -11  -1 -10   -3.58    3.14
 -11   1 -10    4.55    4.03
 -11  -1  10   -0.22    2.38
 -11   1  10   -0.13    1.55
  -9  -1 -10   63.07    5.67
  -9   1 -10   56.99    5.91
  -9  -1  10   62.43    9.25
  -9   1  10   53.38    8.69
  -9   1 -10   56.10    9.13
  -9  -1 -10   64.98    9.63
  -7  -1 -10  152.14    9.99
  -7   1 -10  129.07    9.49
  -7   1 -10  125.90   12.34
  -7  -1  10  104.13   11.34
  -7   1  10   99.80   10.96
  -7  -1 -10  132.84   12.68
  -5  -1 -10   64.95    8.10
  -5   1 -10   47.17    7.16
  -5   1  10   39.70    6.44
  -5  -1  10   57.26    7.99
  -5  -1 -10   58.05    6.37
  -5   1 -10   42.02    5.67
  -5  -1  10   51.18    2.40
  -5   1  10   38.77    2.71
  -5   1  10   42.47    2.87
  -3  -1 -10  125.93   10.29
  -3   1 -10  137.84   10.86
  -3   1 -10  141.11    8.27
  -3  -1  10  131.18   10.81
  -3   1  10  141.99   11.19
  -3   1  10  147.02    7.88
  -3  -1  10  136.54    7.42
  -3  -1 -10  129.00    9.95
  -3   1 -10  142.61   10.69
  -1  -1  10   18.25    3.96
  -1  -1 -10   17.63    3.62
  -1   1 -10   27.54    4.54
  -1   1  10   26.68    4.59
  -1   1 -10   21.36    3.78
  -1   1  10   25.88    3.95
  -1  -1  10   16.81    3.15
  -1   1  10   28.95    5.25
  -1  -1 -10   21.97    4.49
  -1   1 -10   28.19    5.05
   1   1  10   16.66    3.23
   1  -1 -10   22.55    3.43
   1   1 -10   19.69    3.29
   1   1 -10   16.14    3.61
   1  -1 -10   23.94    4.77
   1   1 -10   16.83    4.04
   1   1  10   18.77    3.75
   1  -1  10   25.83    4.32
   3   1 -10  130.61    7.16
   3   1 -10  142.48   11.41
   3  -1 -10  138.85   11.79
   3   1 -10  133.99    8.32
   3   1 -10  134.99   11.63
   3  -1 -10  138.89    7.32
   3   1  10  135.06   10.94
   3  -1  10  147.24   11.41
   3  -1 -10  152.98    7.07
   5   1 -10   58.71    7.90
   5  -1 -10   38.08    6.64
   5   1 -10   53.76    3.09
   5   1 -10   52.61    3.07
   7   1 -10  107.91   11.42
   7  -1 -10  109.36   11.37
   9   1 -10   64.22    9.34
   9  -1 -10   52.00    8.17
  11   1 -10    0.24    2.09
 -14  -2  10   10.76    4.22
 -14  -2  10   10.09    4.92
 -12  -2  10  167.97   14.50
 -12   2  10  156.17   12.91
 -12   2 -10  151.86   15.99
 -12  -2  10  182.54   17.62
 -12   2  10  157.73   16.46
 -12  -2 -10  197.22   18.46
 -10   2 -10  313.35   14.32
 -10   2  10  322.72   16.34
 -10   2  10  327.05   22.11
 -10   2 -10  290.40   20.98
 -10  -2  10  369.61   23.61
 -10  -2 -10  341.29   22.80
  -8  -2 -10  435.09   15.32
  -8   2 -10  389.60   16.89
  -8   2  10  406.10   23.01
  -8   2 -10  375.37   22.17
  -8  -2  10  454.91   24.38
  -8  -2 -10  455.91   24.39
  -6  -2 -10  323.36   14.41
  -6   2 -10  278.03   14.71
  -6   2  10  251.61   16.94
  -6   2 -10  265.23   17.21
  -6   2 -10  281.89    8.51
  -6  -2  10  311.61   18.95
  -6  -2 -10  333.43   19.13
  -4   2  10  460.73   21.02
  -4   2 -10  448.01   20.81
  -4  -2  10  456.75   21.31
  -4   2 -10  439.61   13.96
  -4  -2 -10  443.30   17.73
  -4   2 -10  433.35   18.81
  -4   2  10  451.99   12.72
  -4  -2  10  474.20   11.76
  -4  -2 -10  449.34   20.40
  -2   2  10  889.50   26.91
  -2   2 -10  863.46   26.35
  -2  -2  10  930.69   28.21
  -2   2 -10  832.57   22.06
  -2  -2 -10  881.64   26.30
  -2   2 -10  845.28   26.83
  -2   2  10  937.39   29.84
  -2   2  10  876.69   21.73
  -2  -2  10  916.96   21.36
  -2  -2 -10  892.36   25.99
   0   2 -10 1588.34   32.27
   0   2 -10 1608.36   33.98
   0   2  10 1585.26   32.45
   0   2  10 1624.71   37.76
   0  -2 -10 1578.37   37.16
   0   2 -10 1609.56   37.88
   0   2  10 1592.34   32.90
   0  -2  10 1572.01   32.19
   0  -2 -10 1603.49   30.76
   2   2 -10  941.46   21.88
   2   2  10  890.83   21.43
   2   2 -10  966.99   28.75
   2  -2 -10  895.00   29.43
   2  -2 -10  910.11   16.04
   2   2 -10  920.49   30.09
   2   2 -10  935.23   23.47
   2   2  10  898.75   27.28
   2  -2  10  847.81   26.12
   2  -2 -10  901.35   19.32
   4   2 -10  469.10   12.99
   4  -2 -10  463.28   22.13
   4   2 -10  472.58   21.97
   4   2 -10  442.42   16.71
   4   2  10  464.99   21.59
   4  -2  10  441.66   20.60
   4  -2 -10  450.48    8.67
   6  -2 -10  250.74   16.76
   6   2 -10  291.10   18.30
   6   2 -10  319.78    7.06
   6   2 -10  309.29    6.90
   8   2 -10  439.21   23.45
   8  -2 -10  392.39   22.43
  10   2 -10  352.75   21.83
  12   2 -10  186.38   16.59
 -15  -3  10   47.37    8.69
 -13  -3  10   33.58    7.25
 -13  -3 -10   35.50    8.47
 -13  -3  10   36.87    8.57
 -13   3 -10   37.02    8.53
 -13   3  10   35.70    8.12
 -11   3 -10   87.42    7.77
 -11   3  10   69.13    7.86
 -11   3 -10   87.33   11.94
 -11   3  10   66.98   10.50
 -11  -3  10   71.51   11.09
 -11  -3 -10   90.07   12.17
  -9   3  10   58.02    6.25
  -9   3 -10   66.92    7.24
  -9  -3  10   51.35    8.68
  -9  -3 -10   55.55    8.82
  -9   3 -10   64.10    9.79
  -9   3  10   64.41   10.00
  -7  -3 -10  665.83   19.42
  -7   3 -10  660.73   23.01
  -7   3 -10  673.84   28.83
  -7   3  10  600.19   27.27
  -7  -3  10  569.78   26.70
  -7   3 -10  666.82   12.72
  -7  -3 -10  671.69   28.52
  -5   3  10   70.42    8.69
  -5   3 -10   71.01    8.51
  -5   3 -10   68.07    5.39
  -5  -3  10   78.50    9.31
  -5  -3 -10   76.25    7.25
  -5   3 -10   63.53    7.38
  -5   3  10   70.47    4.76
  -5  -3  10   76.17    3.51
  -5   3  10   71.96    4.94
  -5  -3 -10   81.37    9.11
  -3   3  10  521.60   21.65
  -3   3 -10  483.30   16.46
  -3   3 -10  513.23   21.45
  -3  -3 -10  506.31   19.62
  -3   3 -10  507.55   20.92
  -3  -3  10  522.75   14.97
  -3  -3 -10  498.83   20.49
  -1   3  10  127.96    9.84
  -1   3 -10  124.38    9.31
  -1  -3 -10  119.13   10.00
  -1   3 -10  123.39   10.62
  -1   3  10  144.79   11.71
  -1  -3  10  128.63    8.74
  -1  -3 -10  119.26    9.12
   1   3  10  116.14    8.40
   1   3 -10  133.25   10.44
   1  -3 -10  134.54   11.22
   1   3 -10  135.97   11.44
   1  -3 -10  138.44    5.55
   1   3  10  117.27    9.89
   1  -3  10  114.13    9.25
   1  -3 -10  130.55    8.19
   3   3 -10  533.43   22.30
   3   3  10  493.54   14.82
   3  -3 -10  517.53   22.78
   3   3 -10  520.67   23.16
   3   3 -10  530.25   18.72
   3   3  10  526.94   22.08
   3  -3  10  524.94   21.84
   3  -3 -10  522.30   12.71
   5   3 -10   78.02    9.30
   5   3 -10   68.64    7.44
   5  -3 -10   75.81    9.12
   7   3 -10  566.80   26.11
   7   3 -10  588.48   10.55
   9   3 -10   50.94    8.22
  11   3 -10   76.57   10.46
  13   3 -10   33.33    7.16
 -14  -4  10    0.77    1.78
 -12  -4  10    3.78    4.52
 -12   4  10    2.89    3.57
 -12   4 -10    6.39    2.97
 -12  -4 -10    1.94    2.78
 -10   4  10   10.67    2.84
 -10   4 -10   14.13    3.26
 -10  -4 -10   23.61    6.20
 -10   4  10    3.71    2.17
 -10   4 -10   19.20    5.64
 -10  -4  10    9.59    3.84
  -8   4 -10   12.25    3.57
  -8  -4 -10    9.10    3.31
  -8   4 -10   11.00    1.72
  -8   4  10    9.30    3.84
  -8   4 -10   11.88    4.12
  -8  -4  10    5.09    1.99
  -6  -4 -10    4.64    1.77
  -6   4 -10    4.59    2.34
  -6  -4 -10    3.08    1.87
  -6   4 -10    2.84    1.39
  -6   4  10    3.83    2.76
  -6   4 -10    4.33    1.68
  -6   4  10    1.15    0.62
  -4  -4 -10   16.53    3.53
  -4   4 -10   19.45    4.18
  -4  -4 -10   17.08    4.04
  -4   4 -10   20.39    4.86
  -4   4  10   19.56    4.48
  -4   4 -10   18.63    3.22
  -4  -4  10   18.85    2.55
  -2   4 -10   55.56    6.17
  -2   4  10   73.81    8.01
  -2  -4 -10   57.81    6.84
  -2   4 -10   61.71    7.49
  -2  -4  10   62.54    5.87
  -2  -4 -10   52.07    6.45
   0   4 -10   35.37    5.24
   0   4  10   38.98    5.26
   0   4 -10   40.80    6.28
   0   4  10   43.72    6.37
   0  -4 -10   46.36    6.57
   0  -4  10   38.77    5.26
   0  -4 -10   42.67    5.29
   2   4  10   50.97    5.34
   2  -4 -10   59.45    7.50
   2   4 -10   65.72    7.67
   2   4 -10   67.47    7.06
   2   4 -10   67.43    8.10
   2   4  10   59.64    6.98
   2  -4  10   51.57    6.68
   2  -4 -10   67.44    5.41
   4  -4 -10   20.60    5.06
   4   4 -10   16.75    3.81
   4   4 -10   15.35    4.20
   4   4  10   20.13    2.72
   6   4 -10    2.06    1.84
   6   4 -10    1.75    0.94
   8   4 -10    2.09    2.45
   8   4 -10    6.65    1.36
  10   4 -10    5.43    2.43
  12   4 -10    5.39    3.20
 -15  -5  10   52.64    9.82
 -13   5  10   19.54    6.47
 -13   5 -10   15.85    5.53
 -13  -5 -10   18.46    6.53
 -11   5 -10    2.20    1.28
 -11   5  10    4.46    2.04
 -11   5  10    4.56    3.05
 -11   5 -10    2.66    3.01
 -11  -5 -10    0.57    2.13
  -9   5 -10  134.15   10.85
  -9   5  10  154.17    9.20
  -9   5 -10  156.42   15.41
  -9   5  10  154.26   15.11
  -9  -5 -10  139.29   13.99
  -7   5 -10   24.22    5.26
  -7   5 -10   27.81    3.69
  -7   5  10   30.99    6.45
  -7   5 -10   21.67    4.59
  -7   5  10   33.59    3.13
  -7  -5 -10   24.25    5.66
  -5   5 -10  343.66   17.75
  -5   5  10  329.70   18.99
  -5   5 -10  351.65   14.02
  -5   5  10  346.85   12.68
  -5  -5  10  364.79   10.52
  -5  -5 -10  377.72   19.77
  -3   5  10   52.93    7.13
  -3   5 -10   43.99    5.45
  -3  -5 -10   51.31    6.30
  -3   5 -10   44.38    6.58
  -3   5 -10   55.31    7.38
  -3  -5  10   56.25    5.30
  -3  -5 -10   52.13    6.70
  -1   5 -10  183.62   11.87
  -1  -5 -10  214.67   13.60
  -1   5  10  196.52   12.48
  -1   5  10  202.93   13.85
  -1   5 -10  170.21   13.03
  -1   5 -10  186.73   12.25
  -1  -5  10  211.07   11.77
  -1  -5 -10  208.53   12.27
   1   5 -10  223.61   14.01
   1   5  10  208.62   12.30
   1   5  10  203.31   11.49
   1  -5 -10  190.90   13.49
   1   5  10  212.46   13.71
   1   5 -10  215.77   14.88
   1   5 -10  223.30   12.12
   1  -5  10  181.38   11.97
   1  -5 -10  192.49   10.32
   3   5  10   51.48    5.10
   3   5  10   53.65    6.93
   3   5 -10   50.28    7.39
   3   5 -10   58.31    7.07
   3   5  10   53.11    6.44
   3  -5  10   49.38    6.81
   3  -5 -10   55.54    4.50
   5   5 -10  356.06   17.70
   5   5 -10  336.10   19.60
   5   5  10  374.29    9.86
   7   5 -10   30.01    6.11
   7   5 -10   28.19    3.56
   9   5 -10  145.99   13.89
  11   5 -10    4.69    3.53
  13   5 -10   13.06    5.38
 -12   6 -10  191.12   18.89
 -12   6  10  175.08   17.82
 -12  -6 -10  162.03   17.06
 -10   6 -10  143.42   15.31
 -10   6  10  140.83   15.07
 -10  -6 -10  148.72   15.36
  -8   6 -10  218.73   17.50
  -8   6  10  222.84   17.64
  -8   6 -10  221.93   10.44
  -8   6  10  225.95    8.51
  -8  -6 -10  187.59   16.00
  -6   6 -10  280.36   12.83
  -6   6  10  314.40   19.36
  -6   6 -10  301.06   19.43
  -6   6  10  310.99   12.16
  -6  -6 -10  306.94   18.97
  -4   6 -10  319.85   14.65
  -4   6  10  323.73   18.47
  -4   6 -10  336.58   18.87
  -4  -6  10  297.98   11.65
  -4   6  10  332.14   14.10
  -4  -6 -10  299.45   17.28
  -2   6  10  735.53   25.62
  -2   6  10  751.95   19.28
  -2   6 -10  714.83   23.38
  -2   6 -10  723.87   26.97
  -2   6 -10  725.94   25.79
  -2  -6  10  805.56   22.50
  -2  -6 -10  736.57   24.95
   0   6  10  752.99   23.79
   0   6  10  737.91   22.28
   0   6 -10  752.63   25.44
   0   6  10  763.62   26.63
   0   6 -10  746.87   27.88
   0   6 -10  760.02   24.19
   0  -6  10  752.71   23.99
   0  -6 -10  744.18   22.11
   2   6  10  742.70   24.96
   2   6  10  756.69   21.41
   2   6 -10  798.29   26.25
   2   6  10  751.42   25.18
   2   6 -10  797.13   29.47
   2   6 -10  805.98   22.56
   2  -6  10  726.62   25.58
   2  -6 -10  723.31   18.64
   4   6  10  308.47   11.57
   4   6 -10  297.87   16.30
   4   6 -10  296.86   18.44
   4   6  10  305.51   14.95
   4   6 -10  299.34   11.76
   6   6 -10  312.70   19.63
   6   6  10  274.00    6.05
   6   6 -10  308.85   13.22
   8   6 -10  184.93   15.47
   8   6 -10  204.88   10.13
  10   6 -10  143.47   14.05
  12   6 -10  164.82   15.87
  14   6 -10   63.71   10.16
 -11   7 -10    0.85    3.05
 -11   7  10    6.29    4.91
 -11  -7 -10    3.73    2.78
  -9   7  10   24.86    6.22
  -9   7 -10   26.73    6.73
  -9  -7 -10   37.57    7.54
  -7   7  10   -0.35    2.15
  -7   7 -10   -0.88    2.19
  -7   7  10   -0.62    0.82
  -7  -7 -10   -1.70    2.20
  -5   7  10   89.71   10.32
  -5   7 -10   90.06    8.06
  -5   7 -10  100.04   10.93
  -5   7  10   90.49    7.37
  -5  -7  10   94.37    6.39
  -5  -7 -10  104.22   10.91
  -3   7 -10   30.38    4.97
  -3   7  10   27.35    3.53
  -3   7  10   25.63    5.11
  -3   7 -10   28.59    5.44
  -3  -7  10   23.30    3.90
  -3   7  10   24.68    4.23
  -3  -7 -10   27.50    5.62
  -1   7  10   28.48    4.44
  -1   7 -10   39.43    5.86
  -1   7  10   30.22    5.23
  -1   7 -10   33.34    6.10
  -1  -7 -10   33.13    2.21
  -1  -7  10   24.84    4.29
  -1   7 -10   34.44    5.46
  -1  -7 -10   31.10    4.96
   1   7  10   26.84    4.55
   1   7 -10   35.14    5.87
   1   7  10   32.88    5.04
   1   7 -10   24.04    5.39
   1   7  10   34.80    5.80
   1  -7  10   34.19    5.44
   1   7 -10   27.34    4.56
   1  -7 -10   31.54    4.41
   3   7  10   22.55    4.85
   3   7  10   23.65    3.77
   3   7 -10   22.10    3.67
   3   7  10   19.74    4.11
   3   7 -10   21.02    4.54
   3   7 -10   21.09    5.18
   5   7  10  112.87    6.48
   5   7 -10   89.62   10.57
   5   7  10   99.37    8.32
   5   7 -10   95.67    6.40
   7   7 -10    2.51    2.89
   7   7 -10    1.12    1.66
   9   7 -10   35.58    6.91
  11   7 -10    4.55    3.26
  13   7 -10   30.04    6.81
 -12   8 -10  146.36   16.85
 -12   8  10  151.93   17.07
 -12  -8 -10  145.38   16.53
 -10   8 -10  141.21   15.42
 -10   8  10  129.66   14.77
 -10  -8 -10  136.55   15.09
  -8   8  10  278.71   20.16
  -8   8 -10  257.57   19.59
  -8   8  10  273.49   12.31
  -8  -8 -10  231.55   18.29
  -6   8  10  261.21   18.22
  -6   8 -10  279.74   19.25
  -6   8  10  263.87   13.03
  -6  -8 -10  271.71   18.44
  -4   8  10  848.88   18.59
  -4   8  10  876.43   31.45
  -4   8 -10  796.43   25.59
  -4   8 -10  794.03   29.97
  -4  -8  10  817.44   21.81
  -4   8  10  926.85   26.66
  -4  -8 -10  773.23   28.67
  -2   8  10  355.47   14.46
  -2   8  10  378.42   19.11
  -2   8 -10  403.82   18.94
  -2  -8 -10  441.33   11.44
  -2   8 -10  381.05   19.36
  -2  -8  10  403.27   17.03
  -2  -8 -10  423.40   19.55
   0   8  10  693.66   22.74
   0   8  10  723.83   24.53
   0   8 -10  744.07   26.85
   0   8 -10  683.76   27.25
   0   8 -10  720.96   24.60
   0  -8  10  733.39   25.19
   0  -8 -10  720.69   23.45
   2   8  10  433.24   19.78
   2   8  10  437.54   17.38
   2   8  10  439.43   19.80
   2   8 -10  405.35   21.69
   2   8 -10  408.52   17.12
   2  -8 -10  394.40   15.34
   4   8  10  788.65   20.58
   4   8  10  748.32   24.17
   4   8 -10  836.60   31.66
   4   8 -10  850.44   22.11
   6   8  10  286.26    9.52
   6   8 -10  251.71   18.00
   6   8  10  271.50   13.22
   6   8 -10  263.49   10.32
   6   8 -10  248.09   13.57
   8   8 -10  252.69   18.51
  10   8 -10  113.24   12.97
  12   8 -10  136.81   14.32
  14   8 -10  145.98   15.16
 -11   9  10    2.06    3.51
 -11   9 -10    3.56    4.06
 -11  -9 -10    2.59    1.92
  -9   9  10   61.19    9.84
  -9   9 -10   75.46   11.27
  -9  -9 -10   69.38   10.55
  -7   9  10   15.63    4.72
  -7   9  10   19.25    3.86
  -7   9 -10   13.40    4.74
  -7  -9 -10   14.92    4.66
  -5   9  10    7.84    3.29
  -5   9  10    7.48    1.64
  -5   9 -10    2.97    2.33
  -5  -9 -10    5.88    2.95
  -5   9  10    5.58    1.59
  -5  -9  10    7.80    2.17
  -3   9  10   64.00    6.01
  -3   9 -10   56.16    7.17
  -3   9  10   70.35    8.80
  -3  -9 -10   50.84    4.74
  -3   9 -10   64.66    8.58
  -3  -9  10   56.21    6.40
  -3  -9 -10   53.50    7.71
  -3   9  10   66.77    7.72
  -1   9  10   57.68    6.49
  -1   9 -10   70.07    8.37
  -1  -9  10   77.43    8.10
  -1  -9 -10   88.42    8.96
   1   9  10   88.71    8.81
   1   9 -10   69.00    8.96
   1   9 -10   80.12    8.36
   1  -9  10   69.42    8.34
   1  -9 -10   59.88    6.73
   3   9 -10   53.73    6.12
   3   9  10   51.16    6.77
   3   9 -10   61.09    8.54
   5   9  10    6.70    2.44
   5   9  10    2.90    1.45
   5   9 -10    8.35    3.75
   5   9 -10    7.52    2.07
   7   9  10   17.52    2.17
   7   9 -10   14.72    4.42
   7   9 -10   18.73    2.79
   7   9 -10   14.91    3.62
   9   9 -10   45.72    8.17
  11   9 -10   -1.10    1.68
  13   9 -10    9.86    3.80
 -10  10  10   56.00    9.77
 -10  10 -10   65.31   10.65
 -10  10 -10   57.57   10.23
 -10 -10 -10   61.11   10.39
  -8  10  10   42.50    8.12
  -8  10 -10   36.55    7.87
  -8  10  10   43.04    5.71
  -8 -10 -10   39.02    7.66
  -6  10  10   63.90    9.56
  -6 -10 -10   83.90    8.48
  -6  10 -10   72.89    9.96
  -6  10  10   66.88    7.50
  -6 -10 -10   82.70   10.53
  -4  10  10  207.14   15.94
  -4 -10 -10  207.33   10.92
  -4  10 -10  198.14   15.76
  -4 -10 -10  196.34   15.15
  -4  10  10  214.31   13.83
  -4 -10  10  236.03   13.29
  -4  10  10  204.16   10.47
  -2  10 -10   50.27    7.56
  -2 -10  10   44.44    6.23
  -2  10  10   43.53    5.67
  -2  10  10   48.28    6.83
  -2 -10 -10   55.66    7.69
   0  10  10   32.40    5.38
   0 -10  10   38.67    6.17
   0  10 -10   37.11    6.15
   0 -10 -10   37.44    5.79
   2  10 -10   40.55    6.97
   2  10 -10   39.87    5.73
   4  10  10  192.30   12.91
   4  10 -10  216.13   16.72
   4  10 -10  219.72   12.47
   6  10  10   73.87    7.21
   6  10 -10   69.30    9.82
   6  10 -10   69.90    6.35
   6  10 -10   68.29    8.01
   8  10 -10   49.99    8.61
  10  10 -10   44.80    8.32
  12  10 -10   54.81    9.56
  14  10 -10   70.14   10.74
 -11  11  10    2.07    1.99
 -11  11 -10    5.56    3.65
 -11  11 -10    3.29    2.25
 -11 -11 -10    0.36    2.23
  -9  11  10  171.03   17.32
  -9 -11 -10  158.04   14.23
  -9  11 -10  181.02   18.08
  -9 -11 -10  171.26   16.99
  -7  11  10   30.87    7.04
  -7 -11 -10   35.75    6.14
  -7  11  10   29.64    5.24
  -7  11 -10   29.10    6.88
  -7 -11 -10   28.93    6.82
  -5 -11 -10   13.79    2.98
  -5  11 -10   19.99    5.41
  -5  11  10   14.36    3.23
  -5 -11  10   13.70    3.37
  -5 -11 -10   20.37    5.46
  -3  11  10   29.06    4.69
  -3 -11 -10   34.54    3.99
  -3  11 -10   29.63    6.34
  -3 -11  10   35.90    5.57
  -3  11  10   28.22    5.57
  -3 -11 -10   36.13    6.47
  -1  11 -10   57.37    7.93
  -1 -11  10   34.65    5.94
  -1 -11 -10   40.63    6.48
  -1  11  10   41.59    6.65
  -1  11  10   46.87    6.38
   1  11 -10   33.59    5.72
   3  11 -10   37.18    7.31
   3  11  10   32.73    5.70
   3  11 -10   31.27    5.20
   5  11 -10   20.08    5.45
   5  11  10   14.72    3.62
   5  11 -10   15.10    3.32
   7  11 -10   28.03    6.42
   7  11 -10   32.30    4.40
   9  11 -10  139.44   14.64
  11  11 -10   -1.56    2.78
  13  11 -10  100.94   12.93
 -12 -12 -10   15.09    5.55
 -10  12  10    5.08    3.54
 -10 -12 -10    2.44    1.48
 -10  12 -10    5.12    3.40
 -10 -12 -10    6.28    5.01
  -8  12  10   18.30    6.05
  -8 -12 -10    4.03    1.93
  -8  12 -10    7.57    3.79
  -8  12  10    7.51    2.70
  -8 -12 -10    5.40    3.51
  -6 -12 -10    6.33    2.81
  -6  12 -10    3.80    3.45
  -6  12  10    5.43    2.60
  -6 -12 -10    7.08    3.85
  -4 -12 -10   67.60    6.34
  -4  12  10   50.14    7.30
  -4  12 -10   64.97    9.64
  -4 -12  10   49.24    6.68
  -4  12  10   50.87    6.00
  -4 -12 -10   60.26    8.72
  -2  12  10    2.40    1.48
  -2  12 -10    1.24    2.19
  -2 -12 -10    7.26    3.55
  -2 -12  10    3.62    2.31
  -2  12  10    3.79    2.56
   0  12  10   32.37    5.55
   0  12 -10   31.30    5.96
   0 -12 -10   30.91    5.57
   2  12 -10    7.04    2.80
   4  12  10   55.50    7.42
   4  12 -10   54.39    9.18
   4  12 -10   50.55    6.64
   6  12 -10    5.78    2.82
   6  12 -10    7.52    2.59
   8  12 -10    2.53    2.07
  10  12 -10    2.32    2.71
  12  12 -10   11.82    4.72
 -13 -13 -10    1.88    3.16
 -11 -13 -10   48.84    8.77
  -9  13  10   40.06    8.80
  -9 -13 -10   35.45    6.84
  -9  13 -10   36.72    8.73
  -9 -13 -10   40.79    8.49
  -7 -13 -10   34.51    5.91
  -7  13  10   28.38    5.30
  -7  13 -10   30.87    7.51
  -7 -13 -10   38.68    8.38
  -5 -13 -10  103.98    8.90
  -5  13 -10  111.91   13.18
  -5  13  10  103.21   10.67
  -5 -13 -10   92.16   11.41
  -3  13 -10   45.30    7.99
  -3  13  10   40.55    6.99
  -3 -13 -10   56.55    8.69
  -3  13  10   44.78    6.30
  -1  13 -10   57.41    8.36
  -1  13  10   84.91   10.51
  -1 -13 -10   44.55    6.95
   1  13 -10   71.78    9.06
   3  13 -10   51.78    7.26
   5  13 -10   85.99   11.48
   5  13 -10   89.97    8.98
   7  13 -10   30.10    6.98
   9  13 -10   34.88    7.43
  11  13 -10   44.50    8.45
  13  13 -10    4.09    3.50
 -12 -14 -10    9.71    4.38
 -10 -14 -10   72.48   10.20
  -8  14  10  141.70   16.30
  -8 -14 -10   97.91   10.53
  -8  14 -10  109.34   14.12
  -8  14  10  132.71   12.23
  -8 -14 -10  107.34   13.63
  -6 -14 -10   77.55    8.41
  -6  14 -10   88.01   12.06
  -6  14  10   71.69    9.29
  -6 -14 -10   75.94   10.85
  -4  14  10   51.26    8.01
  -4  14 -10   47.44    8.34
  -4 -14 -10   56.37    8.88
  -2  14 -10  161.57   14.82
  -2  14  10  160.34   14.73
  -2 -14 -10  188.55   15.88
   0  14 -10  133.52   12.90
   0  14  10  117.77   12.56
   2  14 -10  184.70   14.40
   4  14 -10   58.89    9.82
   4  14 -10   56.43    7.86
   6  14 -10   70.19   10.91
   6  14 -10   75.40    8.55
   8  14 -10  114.15   13.87
  10  14 -10   73.39   11.08
  12  14 -10    5.87    2.27
  -9 -15 -10   -0.89    2.00
  -7 -15 -10   23.60    5.34
  -7  15 -10   22.21    7.16
  -7  15  10   19.58    4.79
  -7 -15 -10   14.07    5.64
  -5  15 -10   34.84    7.77
  -5 -15 -10   25.11    6.31
  -5  15  10   28.60    5.99
  -3  15 -10    7.01    3.24
  -3  15  10    6.50    3.29
  -3 -15 -10    1.63    2.14
  -1  15 -10   85.37   10.86
  -1  15  10  114.16   13.05
   1  15 -10  126.62   12.59
   1  15  10  110.46   13.07
   3  15 -10    1.64    1.73
   5  15 -10   23.44    6.55
   5  15 -10   31.81    5.98
   7  15 -10   11.80    4.45
   9  15 -10   -1.00    2.98
  11  15 -10   54.18   10.07
  -8 -16 -10  172.66   18.28
  -6  16 -10  173.10   17.78
  -6  16  10  198.27   16.59
  -6 -16 -10  159.54   16.85
  -4  16 -10  220.59   19.13
  -4  16  10  199.65   16.79
  -4 -16 -10  201.48   17.74
  -2  16 -10  104.99   12.66
  -2  16  10  102.12   12.19
   0  16 -10  174.11   15.55
   0  16  10  189.62   17.42
   2  16 -10  110.16   12.20
   2  16  10  122.85   14.06
   4  16 -10  208.39   15.96
   6  16 -10  170.32   17.29
   6  16 -10  177.51   13.94
   8  16 -10  161.69   17.03
  10  16 -10   68.34   11.53
  -7  17  10    5.24    3.23
  -7 -17 -10    4.23    2.07
  -5  17 -10   49.06    9.46
  -5  17  10   57.20    9.43
  -5 -17 -10   53.20    9.68
  -3  17 -10   50.61    9.30
  -3  17  10   45.50    8.23
  -1  17 -10   -2.87    2.76
  -1  17  10    2.93    2.77
   1  17 -10    0.28    1.90
   1  17  10    7.87    4.63
   3  17 -10   44.02    8.20
   3  17  10   51.76    9.28
   5  17 -10   48.05    9.21
   5  17 -10   58.07    8.49
   7  17 -10   10.57    4.74
   9  17 -10   -2.52    2.60
  -6  18  10   92.07   12.03
  -6 -18 -10   81.31   12.44
  -4  18  10   97.51   12.67
  -4  18 -10   95.20   13.04
  -2  18 -10   45.73    8.84
  -2  18  10   33.94    7.29
   0  18 -10    0.86    2.16
   0  18  10    3.83    3.51
   2  18 -10   34.63    7.49
   2  18  10   41.77    9.09
   4  18 -10   78.01   10.34
   4  18  10   68.08   11.50
   6  18 -10   91.92   13.10
  -7  19  10   27.66    7.03
  -5  19  10   27.71    6.92
  -3  19 -10   58.72   10.55
  -3  19  10   54.79    9.58
  -1  19 -10   10.79    4.34
  -1  19  10   16.67    5.94
   1  19 -10   10.57    4.63
   1  19  10   10.58    5.16
   3  19 -10   44.84    8.21
   3  19  10   58.81   11.01
   5  19 -10   27.56    6.39
  -6  20  10    4.85    2.47
  -4  20  10    1.05    1.61
  -2  20 -10   35.75    8.51
  -2  20  10   32.21    7.87
   0  20 -10   12.79    5.08
   0  20  10   17.34    6.09
   2  20 -10   40.36    8.18
   4  20 -10   -1.36    1.62
   1  21 -10    6.72    3.69
   3  21 -10   63.54   11.27
 -12   0 -11   -2.88    2.68
 -12   0  11   -3.13    3.63
 -12   0  11   -0.42    1.54
 -10   0 -11    0.02    1.62
 -10   0  11    0.05    1.61
  -8   0 -11    0.20    2.03
  -8   0  11   -0.40    1.87
  -8   0 -11   -1.20    1.28
  -6   0 -11    0.01    1.69
  -6   0  11    1.02    2.12
  -6   0 -11   -0.50    1.05
  -4   0 -11   -1.49    1.96
  -4   0  11   -2.28    2.40
  -4   0  11    1.87    1.22
  -4   0 -11   -0.78    1.57
  -2   0  11    0.18    1.22
  -2   0 -11    1.57    1.29
  -2   0  11   -0.37    1.05
  -2   0 -11   -1.93    2.20
   0   0  11    0.20    1.02
   0   0 -11    2.00    1.66
   0   0  11    1.22    1.62
   0   0 -11    0.40    1.73
   2   0 -11   -0.87    1.15
   2   0  11    0.78    1.27
   2   0 -11    0.31    1.12
   2   0 -11    2.67    2.21
   4   0 -11    0.63    1.53
   4   0 -11   -0.83    0.94
   6   0 -11   -0.83    1.83
   8   0 -11   -2.06    2.84
  10   0 -11    0.12    2.13
 -13  -1  11  129.03   13.07
 -13  -1  11  130.16   15.94
 -13   1  11  118.56   15.22
 -13  -1 -11  127.84   15.78
 -13   1 -11  100.50   14.18
 -11  -1  11  114.98   13.93
 -11   1  11  121.06   14.59
 -11  -1 -11  117.44   14.11
 -11   1 -11  137.57   15.34
  -9  -1 -11  518.10   17.75
  -9   1 -11  512.00   19.31
  -9   1 -11  500.09   27.16
  -9  -1  11  479.14   26.98
  -9   1  11  467.36   26.60
  -9  -1 -11  496.37   27.31
  -7  -1 -11  103.95    8.83
  -7   1 -11   97.02    8.84
  -7   1 -11   94.63   10.92
  -7  -1  11   92.97   11.24
  -7   1  11   89.64   10.78
  -7  -1 -11  100.98   11.50
  -5  -1 -11   49.00    7.42
  -5   1 -11   44.16    7.16
  -5  -1  11   70.90    9.03
  -5   1  11   62.29    8.56
  -5  -1 -11   53.47    6.62
  -5   1 -11   40.65    5.87
  -5   1  11   63.96    3.94
  -5  -1  11   75.21    3.58
  -5   1  11   64.35    3.92
  -3   1 -11  177.00   12.81
  -3  -1  11  258.12   15.93
  -3   1 -11  186.06   10.08
  -3   1  11  231.55   15.01
  -3  -1 -11  228.58   14.14
  -3   1 -11  177.07   12.68
  -3   1  11  223.65   10.34
  -3  -1  11  263.84   11.02
  -3  -1 -11  211.60   13.70
  -1   1 -11  817.22   25.09
  -1   1 -11  792.74   23.53
  -1  -1  11  781.06   25.61
  -1   1  11  779.42   25.33
  -1  -1 -11  775.87   27.05
  -1   1 -11  808.13   28.11
  -1   1  11  764.66   22.26
  -1  -1  11  758.45   21.96
  -1  -1 -11  795.63   24.28
   1   1 -11  810.88   22.28
   1   1 -11  797.27   25.88
   1   1  11  802.02   23.25
   1  -1 -11  794.00   28.28
   1   1 -11  788.93   28.34
   1  -1 -11  779.59   18.28
   1   1  11  778.36   25.05
   1  -1  11  787.53   24.98
   1  -1 -11  821.72   21.77
   3   1 -11  271.07   10.94
   3  -1 -11  235.26   16.18
   3   1 -11  259.54   12.05
   3   1 -11  260.68   17.05
   3  -1 -11  219.84    9.62
   3   1  11  218.01   14.49
   3  -1  11  195.70   13.67
   3  -1 -11  234.56    9.36
   5  -1 -11   62.19    8.82
   5   1 -11   77.73    9.70
   5   1 -11   75.13    3.89
   7  -1 -11  100.40   11.54
   7   1 -11   89.07   10.85
   9   1 -11  479.41   26.22
   9  -1 -11  492.18   26.59
  11   1 -11  116.25   13.46
 -14  -2  11   10.40    4.08
 -12  -2 -11    4.26    4.18
 -12  -2  11    3.33    3.57
 -12   2 -11    0.20    2.76
 -12   2  11    2.17    3.67
 -10   2 -11   64.45    6.83
 -10   2 -11   64.01   10.14
 -10  -2  11   71.08   10.82
 -10   2  11   66.22   10.36
 -10  -2 -11   69.08   10.46
  -8  -2 -11  125.48    9.02
  -8   2 -11  118.43    9.81
  -8   2  11  111.57   12.57
  -8   2 -11  113.22   12.60
  -8  -2  11  134.67   13.98
  -8  -2 -11  131.27   13.62
  -6  -2 -11   93.18    8.36
  -6   2 -11   88.20    8.85
  -6   2  11  101.16   11.05
  -6   2 -11   86.29   10.35
  -6  -2  11  125.22   12.52
  -6  -2 -11  104.88   11.13
  -4   2  11   66.08    8.39
  -4   2 -11   73.60    6.04
  -4   2 -11   75.11    8.96
  -4  -2  11   51.84    7.48
  -4  -2 -11   62.79    7.18
  -4   2 -11   70.31    8.10
  -4   2  11   60.42    5.00
  -4  -2  11   54.73    4.36
  -4  -2 -11   64.62    8.21
  -2   2  11   73.06    8.17
  -2   2 -11   65.05    6.47
  -2   2 -11   81.82    8.36
  -2  -2 -11   65.80    7.69
  -2   2 -11   76.54    8.52
  -2   2  11   69.02    6.38
  -2  -2  11   57.46    5.70
  -2  -2 -11   64.27    7.39
   0   2 -11  364.70   17.01
   0   2 -11  378.07   16.54
   0   2  11  376.10   16.73
   0  -2 -11  355.52   18.62
   0   2 -11  369.84   19.43
   0   2  11  362.99   16.62
   0  -2  11  354.29   16.14
   0  -2 -11  365.22   15.49
   2   2 -11   58.36    7.30
   2   2 -11   57.15    5.75
   2   2  11   61.82    5.97
   2  -2 -11   71.40    8.73
   2  -2 -11   70.91    4.73
   2   2 -11   58.96    6.20
   2   2 -11   52.58    7.43
   2   2  11   60.48    7.54
   2  -2  11   75.25    8.15
   2  -2 -11   67.34    5.61
   4  -2 -11   63.27    8.69
   4   2 -11   57.46    8.22
   4   2 -11   45.14    5.54
   4   2 -11   53.88    4.67
   4  -2 -11   64.40    3.65
   6   2 -11  112.75   12.03
   6  -2 -11  116.23   12.21
   6   2 -11  110.41    4.08
   6   2 -11  109.19    4.03
   8   2 -11  116.05   12.60
   8  -2 -11  117.15   12.68
  10   2 -11   68.34   10.11
  12   2 -11    1.91    2.51
 -13  -3  11    0.98    1.98
 -11   3  11   99.05   12.99
 -11   3 -11   71.89   11.53
 -11  -3  11   97.92   13.08
 -11  -3 -11   73.45   11.22
  -9   3 -11   82.47    8.60
  -9   3 -11   77.32   11.08
  -9   3  11   80.58   11.06
  -9  -3  11  102.30   12.65
  -9  -3 -11   87.02   11.33
  -7   3 -11    5.66    2.61
  -7  -3 -11    4.12    2.10
  -7  -3  11    6.65    3.68
  -7   3  11   10.40    4.53
  -7  -3 -11    1.00    1.87
  -7   3 -11    3.05    2.08
  -7   3 -11    5.77    1.35
  -5  -3  11    9.97    3.25
  -5  -3 -11   29.48    5.79
  -5   3  11   15.19    4.75
  -5   3 -11   22.35    5.28
  -5   3 -11   24.94    3.62
  -5   3 -11   20.30    4.64
  -5  -3 -11   24.23    4.38
  -5  -3  11   15.23    1.76
  -5   3  11   13.01    2.26
  -5   3  11   13.26    2.18
  -3   3 -11   16.32    3.35
  -3  -3 -11   21.02    4.35
  -3   3  11   15.69    4.41
  -3   3 -11   14.44    3.90
  -3   3 -11   15.50    4.01
  -3  -3 -11   23.95    4.69
  -3  -3  11   21.40    3.23
  -3   3  11   13.83    2.93
  -1   3  11  461.51   19.55
  -1   3 -11  406.02   18.24
  -1   3 -11  404.60   17.41
  -1  -3 -11  403.17   19.53
  -1   3 -11  407.38   20.33
  -1   3  11  447.24   17.73
  -1  -3  11  433.52   16.81
  -1  -3 -11  400.67   17.34
   1   3 -11  452.55   20.05
   1   3  11  398.34   16.43
   1   3  11  414.05   19.96
   1  -3 -11  451.82   21.53
   1   3 -11  425.39   21.29
   1  -3 -11  476.11   10.87
   1   3  11  386.28   18.21
   1  -3  11  396.25   18.13
   1  -3 -11  467.89   16.11
   3   3  11   23.64    3.52
   3  -3 -11   16.62    4.82
   3   3 -11   18.89    3.62
   3   3 -11   19.15    4.81
   3  -3  11   15.46    3.73
   3  -3 -11   13.95    2.30
   5  -3 -11   11.05    3.95
   5   3 -11   14.09    3.60
   5   3 -11   13.50    4.13
   7  -3 -11    4.44    3.40
   7   3 -11    3.74    3.02
   7   3 -11    3.72    0.77
   7   3 -11    2.92    0.72
   9   3 -11   88.71   11.43
  11   3 -11   94.55   12.03
  13   3 -11    5.16    3.68
 -12   4 -11   48.66    9.50
 -12   4  11   44.34    8.76
 -12  -4 -11   49.64    9.42
 -10   4 -11  172.88   12.31
 -10   4 -11  176.16   16.97
 -10   4  11  178.77   17.10
 -10  -4 -11  174.59   16.91
  -8   4 -11  491.28   21.31
  -8   4 -11  532.36   27.80
  -8   4  11  480.18   26.19
  -8  -4 -11  495.41   26.50
  -6   4 -11  337.29   20.75
  -6   4  11  346.65   20.82
  -6   4 -11  328.74   12.24
  -6  -4 -11  299.55   14.62
  -6   4 -11  326.73   17.78
  -6   4  11  353.16   10.54
  -6   4  11  357.86   10.56
  -6  -4 -11  328.46   19.92
  -4  -4 -11   46.42    6.92
  -4   4 -11   54.35    5.83
  -4   4  11   56.10    7.80
  -4   4 -11   55.61    7.91
  -4  -4 -11   54.57    6.76
  -4   4 -11   54.60    7.34
  -4  -4  11   49.99    4.47
  -2   4  11  232.76   14.68
  -2   4 -11  249.20   13.58
  -2  -4 -11  228.01   14.27
  -2   4 -11  254.81   16.25
  -2  -4  11  220.35   11.56
  -2  -4 -11  235.05   14.06
   0   4  11  674.43   22.68
   0   4 -11  673.95   24.14
   0  -4 -11  660.50   25.33
   0   4 -11  651.51   26.43
   0  -4  11  645.94   22.05
   0  -4 -11  688.02   21.52
   2   4  11  227.26   11.73
   2  -4 -11  245.92   16.20
   2   4  11  232.97   14.56
   2   4 -11  227.06   15.89
   2   4 -11  228.46   13.48
   2  -4  11  263.12   15.71
   2  -4 -11  250.62   10.94
   4   4 -11   49.25    6.26
   4   4 -11   54.64    8.37
   4  -4 -11   54.96    8.09
   4   4  11   52.95    4.66
   6   4 -11  339.99   20.68
   6   4 -11  340.85   11.59
   8   4 -11  517.11   26.50
  10   4 -11  145.33   14.84
  12   4 -11   35.06    7.43
 -11   5  11   -2.17    2.92
 -11   5 -11    0.58    2.08
 -11  -5 -11    1.94    2.13
  -9   5 -11   70.52    8.46
  -9   5 -11   77.99   11.07
  -9   5  11   67.97   10.21
  -9  -5 -11   57.21    9.46
  -7   5 -11   23.58    5.84
  -7   5  11   26.66    6.09
  -7   5 -11   23.75    3.37
  -7   5 -11   24.34    5.11
  -7   5  11   30.33    2.90
  -7  -5 -11   14.44    4.29
  -5   5 -11  152.27   12.51
  -5   5 -11  159.12    9.82
  -5   5 -11  158.31   13.75
  -5   5  11  164.77   14.13
  -5  -5  11  141.77    6.72
  -5   5  11  174.57    9.42
  -5  -5 -11  128.09   11.98
  -3  -5 -11  161.68   11.96
  -3   5 -11  127.98    9.61
  -3   5  11  160.51   12.99
  -3   5 -11  129.25   11.59
  -3  -5  11  184.14   10.01
  -3  -5 -11  149.79   11.97
  -1   5 -11   53.25    6.74
  -1   5  11   38.24    5.81
  -1  -5 -11   45.97    6.75
  -1   5 -11   56.95    7.87
  -1  -5  11   27.08    4.34
  -1  -5 -11   40.62    5.80
   1   5  11   40.65    5.38
   1   5 -11   28.28    5.20
   1  -5 -11   34.33    6.17
   1   5 -11   31.45    5.93
   1   5  11   39.17    6.24
   1  -5  11   54.39    6.81
   1  -5 -11   37.13    4.84
   3   5  11  160.10   11.81
   3   5 -11  170.60   14.13
   3   5 -11  192.88   12.94
   3   5  11  146.55    8.95
   3  -5 -11  166.61    8.10
   5   5 -11  128.13   12.93
   5   5 -11  136.34   11.26
   5   5  11  134.85    6.34
   7   5 -11   29.67    5.98
   7   5 -11   24.15    3.24
   9   5 -11   59.36    9.61
  11   5 -11    1.91    2.19
  13   5 -11   60.81   10.51
 -12   6  11    4.50    3.90
 -12   6 -11    1.23    2.73
 -12  -6 -11   -1.15    2.88
 -10   6 -11  101.27   10.22
 -10   6 -11  109.21   13.71
 -10   6  11  112.10   13.87
 -10  -6 -11  107.57   13.50
  -8   6 -11  117.72   11.02
  -8   6 -11  130.82   14.23
  -8   6  11  134.84   14.24
  -8  -6 -11  128.66   13.78
  -6   6 -11  382.30   22.54
  -6   6  11  352.66   21.42
  -6   6 -11  371.25   15.14
  -6   6 -11  373.37   19.78
  -6   6  11  386.46   13.71
  -6  -6 -11  380.42   21.82
  -4   6 -11    6.35    2.93
  -4   6  11    0.16    2.33
  -4   6 -11    3.17    1.88
  -4  -6  11    4.83    1.33
  -4   6  11    3.10    1.35
  -4  -6 -11    4.86    2.41
  -2   6 -11  765.37   25.07
  -2   6  11  800.51   27.73
  -2   6 -11  771.91   29.04
  -2   6 -11  793.52   27.91
  -2  -6  11  757.28   22.70
  -2  -6 -11  790.40   26.85
   0   6 -11  177.07   12.91
   0   6  11  192.51   12.51
   0   6 -11  177.04   14.25
   0   6 -11  181.01   12.38
   0  -6  11  192.51   12.70
   0  -6 -11  179.41   11.32
   2   6  11  772.08   26.25
   2   6  11  775.61   22.81
   2   6 -11  795.53   27.18
   2   6 -11  765.50   30.15
   2   6  11  792.38   27.10
   2  -6  11  805.45   27.99
   2  -6 -11  811.33   20.89
   4   6 -11    5.24    3.21
   4   6  11    4.57    1.86
   4   6 -11    4.86    1.98
   4   6  11    7.59    2.11
   6   6 -11  372.88   22.29
   6   6 -11  370.11   14.63
   8   6 -11  123.51   13.12
  10   6 -11  102.30   12.38
  12   6 -11   -0.21    2.28
  14   6 -11   60.19   10.22
 -11   7 -11  153.69   12.82
 -11   7 -11  179.83   18.31
 -11   7  11  166.16   17.49
 -11  -7 -11  150.01   16.53
  -9   7 -11  194.70   17.93
  -9   7  11  205.67   18.43
  -9  -7 -11  183.90   17.09
  -7   7 -11  271.03   19.80
  -7   7  11  275.74   19.81
  -7   7  11  290.97   12.13
  -7  -7 -11  256.00   18.84
  -5   7 -11   81.61    7.81
  -5   7  11  108.09   11.58
  -5   7 -11   85.65    9.78
  -5   7 -11   82.31   10.29
  -5   7  11  110.44    8.40
  -5  -7  11   99.93    6.73
  -5  -7 -11   85.15   10.15
  -3   7 -11  246.01   14.28
  -3   7  11  230.72   15.85
  -3   7 -11  227.48   16.11
  -3   7 -11  250.82   16.71
  -3  -7  11  266.62   12.98
  -3  -7 -11  281.83   16.97
  -1   7  11  234.15   12.52
  -1   7 -11  236.90   14.91
  -1   7  11  233.14   14.77
  -1   7 -11  224.51   16.01
  -1   7 -11  218.44   14.40
  -1  -7  11  217.11   13.13
  -1  -7 -11  197.87   12.88
   1   7  11  192.34   12.82
   1   7  11  198.41   12.39
   1   7 -11  224.30   16.48
   1   7 -11  218.34   13.25
   1  -7  11  225.05   14.62
   1  -7 -11  263.68   13.39
   3   7  11  285.76   13.17
   3   7 -11  268.97   18.43
   3   7  11  290.21   16.14
   3   7 -11  281.15   13.39
   3  -7 -11  237.57   10.61
   5   7  11   87.99    8.44
   5   7 -11  106.50   11.81
   5   7  11   84.78    5.82
   7   7 -11  254.49   19.10
   9   7 -11  193.95   17.05
  11   7 -11  117.40   13.64
  13   7 -11   70.66   10.86
 -10   8  11    8.66    3.61
 -10   8 -11   10.76    4.40
 -10  -8 -11    4.30    2.95
  -8   8  11   10.48    5.35
  -8   8 -11    5.48    3.45
  -8  -8 -11    7.32    3.66
  -6   8 -11   16.99    3.69
  -6   8  11   21.86    5.53
  -6   8 -11   18.27    5.15
  -6   8  11   21.11    3.95
  -6  -8 -11   14.31    4.78
  -4   8  11   94.55   10.69
  -4   8 -11  100.18    9.26
  -4  -8  11   90.14    7.40
  -4   8 -11   98.73   11.17
  -4   8  11  100.67    9.14
  -4  -8 -11   97.96   10.64
  -2   8 -11    0.16    1.22
  -2   8  11    1.41    1.28
  -2   8  11    0.18    1.82
  -2  -8 -11   -1.14    0.76
  -2   8 -11    1.24    1.85
  -2   8 -11    3.64    2.03
  -2  -8  11   -0.50    0.85
  -2  -8 -11   -0.29    1.47
   0   8  11   52.90    6.86
   0   8  11   53.38    6.47
   0   8 -11   51.17    7.99
   0   8 -11   49.56    6.85
   0  -8  11   54.78    7.17
   0  -8 -11   54.99    6.85
   2   8  11    0.18    1.56
   2   8  11    0.22    1.40
   2   8 -11    1.29    1.49
   2   8 -11    0.17    1.53
   2  -8 -11   -0.10    1.20
   4   8  11  103.68    7.63
   4   8 -11   91.49   11.15
   4   8  11   94.14    9.12
   4   8 -11   90.08    7.39
   6   8  11   14.09    2.20
   6   8 -11   19.35    5.08
   6   8  11   12.36    3.25
   6   8 -11   18.88    2.83
   6   8 -11   15.57    3.49
   8   8 -11    4.33    2.54
  10   8 -11    4.18    3.40
  12   8 -11   11.26    4.06
  14   8 -11    2.93    4.18
 -11   9  11   73.54   11.79
 -11   9 -11   71.23   12.12
 -11  -9 -11   69.28   11.40
  -9   9  11   14.85    4.78
  -9   9 -11   13.69    5.26
  -9  -9 -11   17.21    5.58
  -7   9  11  334.50   22.48
  -7   9 -11  315.49   22.03
  -7   9  11  352.38   15.65
  -7  -9 -11  287.38   20.46
  -5   9  11   65.38    9.30
  -5   9 -11   48.26    6.60
  -5   9 -11   43.93    7.77
  -5   9  11   70.14    7.42
  -5  -9  11   65.55    6.13
  -5  -9 -11   54.98    8.51
  -3   9  11  329.09   13.90
  -3   9  11  348.03   20.16
  -3  -9 -11  385.22   12.53
  -3   9 -11  359.55   20.55
  -3  -9  11  340.98   15.92
  -3  -9 -11  383.03   20.50
  -3   9  11  341.19   17.44
  -1   9  11  153.03   10.80
  -1   9  11  151.84   12.43
  -1   9 -11  123.61   12.36
  -1   9 -11  120.03   11.18
  -1  -9  11  152.16   11.75
  -1  -9 -11  126.35   10.90
   1   9  11  126.78   10.76
   1   9  11  135.15   10.80
   1   9 -11  171.19   14.93
   1   9 -11  153.42   11.80
   1  -9 -11  156.71   11.09
   3   9  11  381.82   16.53
   3   9 -11  339.14   15.84
   3   9 -11  352.90   21.67
   5   9  11   47.35    4.95
   5   9 -11   68.94    9.96
   5   9  11   44.29    5.99
   5   9 -11   67.23    6.25
   7   9 -11  319.07   21.55
   9   9 -11   26.97    6.39
  11   9 -11   63.50   10.53
  13   9 -11   15.34    4.96
 -10  10 -11   90.68   12.82
 -10  10  11   94.33   13.33
 -10 -10 -11   91.47   12.97
  -8  10  11   35.46    7.77
  -8  10 -11   34.86    8.04
  -8 -10 -11   33.27    7.60
  -6  10  11  205.10   17.48
  -6 -10 -11  193.76   12.78
  -6  10 -11  196.17   17.37
  -6  10  11  216.74   13.47
  -6 -10 -11  189.73   16.44
  -4  10  11   60.82    9.06
  -4 -10 -11   64.17    5.86
  -4  10 -11   65.42    9.37
  -4 -10 -11   59.21    8.62
  -4  10  11   63.07    7.73
  -4 -10  11   58.93    6.76
  -2  10  11  121.25    9.42
  -2  10  11  124.22   11.90
  -2  10 -11  115.43   11.62
  -2 -10  11  120.23   10.34
  -2  10  11  112.66   10.66
  -2 -10 -11  128.66   11.77
   0  10  11   10.57    3.48
   0  10  11   11.38    3.63
   0  10 -11    9.80    3.26
   0  10 -11   11.43    3.74
   0 -10 -11   11.77    3.29
   2  10  11  118.35   10.12
   2  10 -11  125.17   10.61
   2  10 -11  127.36   13.34
   4  10  11   62.42    6.70
   4  10 -11   55.48    9.07
   4  10  11   58.59    7.32
   4  10 -11   61.14    6.86
   6  10 -11  189.50   17.07
   6  10 -11  202.32   10.75
   8  10 -11   24.85    6.51
  10  10 -11   83.78   11.91
  12  10 -11   17.30    5.93
  -9  11  11   -0.63    2.48
  -9 -11 -11   -1.08    2.21
  -9  11 -11    7.62    4.96
  -9 -11 -11    2.89    3.76
  -7  11  11    9.61    4.10
  -7 -11 -11    8.02    2.86
  -7  11 -11    8.89    4.18
  -7  11  11   13.96    3.75
  -7 -11 -11   11.14    4.24
  -5  11  11  156.06   15.06
  -5 -11 -11  159.13   10.34
  -5  11 -11  152.59   14.89
  -5  11  11  157.74   12.39
  -5 -11 -11  171.56   15.51
  -3  11  11   22.98    4.24
  -3  11  11   23.53    6.00
  -3  11 -11   30.03    6.46
  -3 -11  11   27.82    5.16
  -3  11  11   25.10    5.30
  -3 -11 -11   31.88    6.28
  -1  11  11    3.35    1.69
  -1  11 -11    3.07    2.39
  -1 -11 -11    0.67    1.37
   1  11 -11    1.55    1.95
   1  11 -11    3.92    2.84
   1 -11 -11    3.27    2.30
   3  11 -11   25.59    4.95
   3  11 -11   27.30    6.47
   5  11  11  165.92   10.48
   5  11 -11  156.96   15.57
   5  11 -11  162.45   10.89
   7  11 -11   14.79    5.27
   9  11 -11    3.59    2.83
  11  11 -11    1.90    2.57
  13  11 -11    2.03    2.83
 -12 -12 -11   27.02    7.10
 -10 -12 -11   86.58   11.15
 -10 -12 -11   89.98   13.46
  -8  12  11  288.66   22.71
  -8 -12 -11  258.90   17.02
  -8  12 -11  265.06   21.90
  -8 -12 -11  248.98   21.00
  -6  12  11  321.82   22.82
  -6 -12 -11  332.12   16.60
  -6  12 -11  341.27   23.48
  -6  12  11  346.66   18.70
  -6 -12 -11  317.00   22.24
  -4 -12 -11  299.65   13.04
  -4  12 -11  261.88   19.56
  -4  12  11  253.17   16.57
  -4 -12 -11  271.81   19.02
  -2  12  11  508.39   20.71
  -2  12 -11  535.30   26.32
  -2  12  11  547.47   25.57
  -2 -12 -11  554.47   25.89
   0  12 -11  592.06   26.14
   0 -12 -11  596.77   24.82
   2  12 -11  533.43   28.16
   2  12 -11  524.77   23.12
   4  12 -11  282.15   20.92
   4  12 -11  259.00   15.17
   6  12 -11  337.14   23.16
   6  12 -11  327.81   15.48
   8  12 -11  245.64   20.18
  10  12 -11   82.94   12.22
  12  12 -11   29.14    7.37
 -11 -13 -11   34.93    7.93
  -9  13  11    7.34    4.00
  -9 -13 -11    4.94    2.92
  -9  13 -11    5.53    4.14
  -9 -13 -11    6.26    4.27
  -7  13  11   68.32   11.37
  -7 -13 -11   77.39    8.63
  -7  13  11   63.07    8.32
  -7  13 -11   90.90   12.71
  -7 -13 -11   76.81   11.54
  -5  13 -11   37.88    8.25
  -5  13  11   25.29    5.20
  -5 -13 -11   35.18    7.32
  -3  13 -11  146.27   14.59
  -3  13  11  142.86   13.37
  -3 -13 -11  143.57   14.27
  -1  13 -11  117.78   12.30
  -1  13  11  132.54   13.22
  -1 -13 -11  123.69   11.99
   1  13 -11  121.25   11.76
   3  13 -11  148.40   15.48
   3  13 -11  143.58   12.11
   5  13 -11   28.54    7.18
   5  13 -11   29.51    5.25
   7  13 -11   60.85   10.12
   9  13 -11    4.68    3.11
  11  13 -11   28.93    6.76
  -8  14  11  188.20   18.93
  -8  14 -11  162.21   17.58
  -8 -14 -11  158.77   17.16
  -6  14 -11   46.50    9.17
  -6  14  11   46.51    7.76
  -6 -14 -11   54.88    9.49
  -4  14 -11   19.63    5.91
  -4 -14 -11   20.02    5.57
  -4  14  11    6.87    2.83
  -2  14 -11   81.91   10.91
  -2  14  11   62.52    9.45
  -2 -14 -11   70.63    9.88
   0  14 -11  108.78   11.90
   0  14  11  112.25   12.94
   2  14 -11   67.33    9.10
   4  14 -11   12.14    4.31
   4  14 -11   14.45    4.23
   6  14 -11   53.31    9.64
   8  14 -11  159.22   16.80
  10  14 -11   56.70   10.23
  -7  15  11   54.65   10.41
  -7  15 -11   52.45    9.62
  -7  15  11   58.79    8.65
  -7 -15 -11   50.83    9.64
  -5  15  11  150.13   14.27
  -5  15 -11  137.54   15.47
  -5 -15 -11  124.39   14.37
  -3  15 -11  143.77   15.03
  -3  15  11  148.35   14.49
  -3 -15 -11  131.37   13.83
  -1  15 -11  207.52   17.24
  -1  15  11  211.77   17.97
   1  15 -11  205.95   16.48
   1  15  11  222.28   18.60
   3  15 -11  134.15   14.98
   3  15 -11  131.46   12.44
   5  15 -11  136.26   15.47
   5  15 -11  132.10   11.84
   7  15 -11   54.15    9.83
   9  15 -11   61.34   10.76
  -6  16 -11    4.03    2.63
  -6  16  11    5.13    2.01
  -6 -16 -11    1.68    2.28
  -4  16 -11    8.28    4.15
  -4  16  11    4.36    2.31
  -4 -16 -11    3.82    2.86
  -2  16 -11    3.62    2.41
  -2  16  11    3.60    2.32
   0  16 -11    7.37    3.98
   0  16  11    1.92    2.63
   2  16 -11    3.75    2.30
   2  16  11    8.14    4.04
   4  16 -11   -1.76    2.99
   4  16 -11    5.58    2.57
   6  16 -11    4.00    2.82
   8  16 -11    1.42    2.60
  -5  17 -11  206.76   19.67
  -5  17  11  186.47   16.91
  -5 -17 -11  213.96   19.91
  -3  17 -11   12.81    4.62
  -3  17  11   18.00    5.59
  -1  17 -11   94.20   12.15
  -1  17  11   79.06   11.51
   1  17 -11   85.42   11.28
   1  17  11  115.34   14.34
   3  17 -11   14.83    4.43
   3  17  11   17.60    6.52
   5  17 -11  186.03   18.90
  -6  18  11   27.07    6.48
  -4  18  11  160.15   16.59
  -4  18 -11  179.34   18.37
  -2  18 -11   47.59    8.75
  -2  18  11   36.75    8.16
   0  18 -11  109.70   13.45
   0  18  11  109.32   13.99
   2  18 -11   31.27    7.02
   2  18  11   43.21    9.27
   4  18 -11  159.47   14.89
  -5  19  11    6.64    2.35
  -3  19 -11   10.51    3.96
  -3  19  11    5.82    3.15
  -1  19 -11    5.42    3.75
  -1  19  11    3.14    3.17
   1  19 -11    0.58    1.87
   1  19  11    0.79    2.23
   3  19 -11    3.39    3.13
  -4  20  11  110.28   14.38
   0  20 -11  107.54   14.16
   2  20 -11   18.29    6.01
 -12   0 -12    4.35    3.25
 -12   0  12   -0.30    2.69
 -10   0  12  175.71   17.24
 -10   0 -12  124.99   14.61
  -8   0 -12  223.39   13.53
  -8   0  12  191.77   17.14
  -8   0 -12  225.37   18.20
  -6   0 -12  154.42   14.04
  -6   0  12  160.35   14.72
  -6   0 -12  144.87   11.39
  -4   0 -12  191.29   14.42
  -4   0  12  168.68   13.96
  -4   0  12  158.84    8.01
  -4   0 -12  186.23   13.39
  -2   0 -12  572.57   22.94
  -2   0  12  660.54   25.59
  -2   0  12  629.42   19.67
  -2   0 -12  604.01   24.85
   0   0 -12  233.61   13.15
   0   0  12  238.89   14.31
   0   0 -12  232.03   15.96
   0   0  12  221.88   13.23
   2   0 -12  659.57   27.72
   2   0 -12  653.24   18.36
   2   0  12  606.62   24.17
   2   0 -12  668.77   19.48
   4   0 -12  161.29   14.30
   4   0 -12  162.23    7.25
   6   0 -12  158.40   14.98
   8   0 -12  192.49   16.89
  10   0 -12  164.42   16.33
 -11  -1 -12   35.96    8.35
 -11  -1  12   38.42    8.67
 -11   1 -12   63.09   10.99
 -11   1  12   55.43   10.16
  -9  -1 -12   23.46    4.20
  -9   1 -12   32.67    5.24
  -9  -1 -12   22.49    6.08
  -9  -1  12   14.45    4.93
  -9   1 -12   38.60    7.97
  -9   1  12   34.89    7.43
  -7  -1 -12   21.63    4.38
  -7   1 -12   24.84    4.92
  -7  -1 -12   26.13    6.51
  -7  -1  12   18.40    5.48
  -7   1 -12   23.19    5.81
  -7   1  12   20.96    5.25
  -5   1 -12  118.08   12.07
  -5  -1  12  103.74   11.37
  -5   1  12  114.19   11.84
  -5  -1 -12  107.82    9.90
  -5   1 -12  120.03   10.87
  -5  -1  12  102.77    4.79
  -5   1  12  109.42    5.58
  -5  -1 -12   91.56   10.31
  -3  -1  12   10.07    3.56
  -3  -1 -12    8.81    3.00
  -3   1  12    1.09    1.82
  -3   1 -12    3.69    1.85
  -3  -1 -12    8.44    3.07
  -3   1 -12    2.08    1.26
  -3  -1  12    5.15    1.63
  -3   1  12    1.64    1.33
  -1   1 -12   58.10    7.08
  -1   1  12   54.94    7.13
  -1   1 -12   52.55    6.52
  -1   1 -12   53.70    7.78
  -1  -1 -12   48.95    7.20
  -1   1  12   56.32    6.35
  -1  -1  12   46.96    5.74
  -1  -1 -12   48.72    6.35
   1   1 -12   51.72    5.97
   1   1  12   46.25    5.97
   1   1 -12   46.25    6.69
   1  -1 -12   51.76    7.76
   1  -1 -12   53.37    5.01
   1   1 -12   46.18    7.20
   1   1  12   49.78    6.60
   1  -1  12   61.30    7.37
   1  -1 -12   54.45    5.92
   3   1 -12    7.82    2.34
   3  -1 -12   -2.19    3.17
   3   1 -12    7.21    3.01
   3  -1 -12    2.90    1.30
   3   1 -12    7.68    2.16
   5  -1 -12  101.91   11.59
   5   1 -12   99.19   11.48
   5   1 -12  101.52    4.87
   7  -1 -12   23.01    5.71
   7   1 -12   22.23    5.77
   9  -1 -12   35.43    7.73
   9   1 -12   27.46    7.10
  11   1 -12   32.73    7.37
 -12  -2  12   10.32    5.25
 -12  -2 -12   14.89    5.90
 -12   2 -12    4.54    3.43
 -12   2  12   10.83    4.96
 -10  -2  12   36.17    7.88
 -10  -2 -12   30.99    7.39
 -10   2 -12   19.93    5.84
 -10   2  12   27.74    7.08
  -8  -2 -12   32.34    4.85
  -8   2 -12   40.30    6.28
  -8  -2  12   27.10    6.52
  -8  -2 -12   35.69    7.84
  -8   2 -12   37.69    7.51
  -8   2  12   41.43    8.18
  -6   2 -12    4.41    2.56
  -6  -2 -12    6.15    2.82
  -6  -2  12    4.95    2.52
  -6  -2 -12    2.64    1.85
  -6   2 -12    3.80    2.71
  -6   2  12    3.88    2.33
  -4   2 -12   66.11    8.62
  -4   2 -12   70.28    6.37
  -4  -2  12   59.43    8.51
  -4   2  12   61.02    8.43
  -4  -2 -12   69.68    7.97
  -4   2 -12   69.37    8.39
  -4   2  12   58.68    5.13
  -4  -2  12   65.28    5.21
  -4  -2 -12   70.73    8.85
  -2  -2 -12    8.21    3.04
  -2   2 -12    7.87    4.07
  -2   2  12   14.54    3.61
  -2   2 -12    8.10    2.56
  -2  -2 -12    5.06    1.71
  -2   2 -12    5.37    2.57
  -2  -2  12   13.40    2.85
  -2   2  12   16.57    3.20
   0   2 -12  160.01   11.24
   0   2 -12  164.19   12.03
   0   2  12  150.56   11.25
   0  -2 -12  154.51   13.00
   0   2 -12  159.00   13.46
   0   2  12  150.44   11.11
   0  -2  12  151.95   11.01
   0  -2 -12  159.55   10.79
   2   2  12    7.03    2.10
   2   2 -12   16.16    3.15
   2   2 -12   13.50    3.01
   2  -2 -12   20.95    5.30
   2   2 -12   12.09    3.46
   2  -2 -12   14.94    2.29
   2  -2  12    9.19    3.28
   2  -2 -12   13.54    2.69
   4  -2 -12   54.25    8.26
   4   2 -12   53.49    6.22
   4   2 -12   56.38    8.48
   4   2 -12   57.41    5.00
   4  -2 -12   60.87    3.89
   6  -2 -12    0.80    2.66
   6   2 -12    9.02    4.08
   6   2 -12    4.54    0.85
   6   2 -12    4.84    0.86
   8  -2 -12   45.32    8.28
   8   2 -12   35.78    7.91
  10   2 -12   40.36    8.26
  12   2 -12   14.22    4.87
 -11   3 -12  248.56   21.33
 -11  -3  12  265.09   22.14
 -11   3  12  254.40   21.54
 -11  -3 -12  234.12   20.67
  -9   3 -12  285.20   16.23
  -9   3  12  285.92   21.31
  -9   3 -12  325.05   22.87
  -9  -3  12  280.52   21.53
  -9  -3 -12  298.35   21.91
  -7  -3 -12  391.92   17.24
  -7   3 -12  383.41   19.46
  -7   3  12  364.02   22.87
  -7   3 -12  399.51   23.68
  -7  -3  12  396.64   24.03
  -7  -3 -12  401.63   23.54
  -5   3  12  711.73   29.72
  -5   3 -12  743.09   19.55
  -5   3 -12  744.98   30.31
  -5  -3 -12  792.87   26.39
  -5   3 -12  741.36   27.67
  -5   3  12  768.18   17.40
  -5  -3  12  788.93   13.86
  -5  -3 -12  815.31   31.05
  -5   3  12  793.74   17.88
  -3   3  12  373.44   20.03
  -3   3 -12  346.84   19.42
  -3   3 -12  335.00   15.17
  -3  -3 -12  313.70   17.42
  -3   3 -12  329.69   18.73
  -3   3  12  376.44   15.08
  -3  -3  12  365.03   14.02
  -3  -3 -12  322.79   17.93
  -1   3 -12  743.88   26.08
  -1   3 -12  741.73   24.87
  -1   3  12  740.75   25.82
  -1  -3 -12  726.88   27.60
  -1   3 -12  713.85   28.16
  -1   3  12  767.88   24.51
  -1  -3  12  734.63   22.98
  -1  -3 -12  745.11   24.73
   1   3 -12  767.41   24.07
   1   3  12  725.74   23.30
   1   3 -12  742.55   26.81
   1  -3 -12  752.49   29.19
   1   3 -12  761.93   29.97
   1  -3 -12  787.33   14.49
   1   3  12  726.82   26.12
   1  -3  12  740.86   25.84
   1  -3 -12  777.71   21.94
   3  -3 -12  370.88   21.25
   3   3 -12  355.54   21.12
   3   3 -12  348.37   16.24
   3   3 -12  374.66   15.00
   3   3  12  332.72   13.73
   3  -3 -12  389.76   12.40
   5   3 -12  816.92   33.10
   5  -3 -12  734.88   31.14
   5   3 -12  821.73   18.27
   7   3 -12  380.78   23.20
   7  -3 -12  382.75   23.50
   9   3 -12  294.38   21.44
  11   3 -12  260.87   20.81
  13   3 -12   31.94    7.74
 -10   4 -12   26.40    5.04
 -10   4 -12   27.38    6.83
 -10  -4 -12   33.04    7.40
 -10   4  12   17.39    5.84
  -8   4 -12    4.45    2.02
  -8  -4 -12   10.95    4.18
  -8   4  12    8.49    4.16
  -8   4 -12    6.93    3.74
  -6  -4 -12   24.77    4.63
  -6   4 -12   20.50    4.64
  -6  -4 -12   23.62    5.41
  -6   4  12    7.89    3.36
  -6   4 -12   25.10    3.53
  -6   4 -12   23.68    5.56
  -6   4  12   10.14    1.89
  -4   4 -12   19.91    3.64
  -4  -4 -12   24.30    5.45
  -4   4  12   24.59    5.54
  -4   4 -12   18.39    4.80
  -4  -4 -12   17.52    4.11
  -4   4 -12   12.46    3.80
  -4   4  12   20.41    3.38
  -4  -4  12   20.95    3.07
  -2   4  12   39.68    6.33
  -2   4 -12   35.65    5.51
  -2   4 -12   41.71    6.70
  -2   4 -12   38.64    6.39
  -2  -4 -12   39.11    6.29
  -2   4  12   37.76    5.34
  -2  -4  12   37.20    5.06
  -2  -4 -12   38.38    5.92
   0   4  12   39.93    5.84
   0   4 -12   44.42    6.49
   0   4 -12   42.56    7.04
   0  -4 -12   49.58    7.40
   0   4  12   44.48    6.30
   0  -4  12   39.72    5.82
   0  -4 -12   46.74    5.93
   2   4 -12   34.63    5.36
   2  -4 -12   33.23    6.32
   2   4 -12   36.88    6.74
   2   4  12   41.23    5.28
   2  -4 -12   36.01    4.41
   4  -4 -12   20.76    5.31
   4   4 -12   19.31    4.04
   4   4 -12   22.48    5.39
   4   4  12   21.80    3.29
   4  -4 -12   25.76    2.48
   6   4 -12    9.93    4.39
   8   4 -12   10.87    3.85
  10   4 -12   25.80    6.57
  12   4 -12   30.09    7.82
 -11   5 -12  139.95   16.32
 -11   5  12  158.82   17.20
 -11  -5 -12  156.40   16.77
  -9   5 -12  409.68   20.83
  -9   5 -12  421.74   26.33
  -9   5  12  422.18   26.33
  -9  -5 -12  394.86   25.08
  -7   5 -12  403.28   20.94
  -7   5 -12  428.80   25.21
  -7   5  12  418.36   24.64
  -7  -5 -12  399.17   23.53
  -5   5 -12  448.49   22.50
  -5   5 -12  458.34   17.22
  -5   5  12  450.08   24.11
  -5   5 -12  477.69   25.09
  -5  -5 -12  446.11   23.11
  -5   5  12  486.04   16.42
  -3  -5 -12  652.84   25.36
  -3   5 -12  603.69   21.71
  -3   5  12  620.03   26.18
  -3   5 -12  629.37   26.66
  -3   5 -12  605.80   26.45
  -3  -5  12  663.14   19.89
  -3  -5 -12  644.02   25.58
  -1   5  12  781.56   27.04
  -1   5 -12  743.53   26.09
  -1  -5 -12  764.52   28.53
  -1   5 -12  731.58   29.65
  -1  -5  12  764.28   24.45
  -1  -5 -12  760.78   25.38
   1  -5 -12  770.68   29.99
   1   5  12  738.78   24.00
   1   5 -12  782.90   30.94
   1  -5  12  727.77   26.07
   1  -5 -12  779.67   22.52
   3   5 -12  647.42   28.90
   3   5 -12  649.39   24.40
   3   5  12  647.73   19.53
   3  -5 -12  634.24   16.40
   5   5 -12  444.37   24.89
   5   5 -12  431.15   20.53
   7   5 -12  404.42   24.34
   9   5 -12  402.28   25.03
  11   5 -12  131.64   15.23
  13   5 -12   80.91   12.15
 -10   6 -12    7.32    3.34
 -10   6  12   11.93    4.79
 -10   6 -12   10.26    4.30
 -10  -6 -12   11.47    4.71
  -8   6 -12   27.10    5.82
  -8   6  12   26.82    6.34
  -8   6 -12   23.37    6.32
  -8  -6 -12   23.71    6.29
  -6   6 -12   24.72    5.80
  -6   6  12   28.70    6.50
  -6   6 -12   28.13    5.75
  -6   6  12   28.17    3.80
  -6  -6 -12   30.09    6.78
  -4   6 -12   25.88    5.53
  -4   6 -12   23.86    4.48
  -4   6  12   23.81    5.39
  -4  -6  12   21.44    3.42
  -4  -6 -12   18.26    4.44
  -4   6  12   26.06    4.29
  -2   6 -12   59.92    7.55
  -2   6  12   70.91    8.68
  -2   6 -12   65.67    9.00
  -2  -6  12   74.95    7.56
  -2  -6 -12   65.83    7.89
   0   6  12   92.63    9.17
   0   6 -12   99.07   11.12
   0  -6  12   98.71    9.51
   0  -6 -12   91.95    8.51
   2   6 -12   80.76   10.05
   2   6  12   71.72    7.26
   2  -6 -12   69.42    6.42
   4   6 -12   23.68    5.53
   4   6  12   21.18    4.54
   4   6  12   21.30    3.35
   6   6 -12   34.54    7.20
   8   6 -12   21.88    6.21
  10   6 -12   15.55    5.16
  12   6 -12   18.55    6.21
 -11   7  12   22.11    6.37
 -11   7 -12   10.99    5.16
 -11  -7 -12   15.19    5.95
  -9   7 -12   58.64    8.33
  -9   7 -12   70.33   11.28
  -9   7  12   70.15   10.63
  -9  -7 -12   80.36   11.79
  -7   7 -12   22.60    5.20
  -7   7 -12   27.10    6.87
  -7   7  12   21.12    5.82
  -7  -7 -12   29.77    6.73
  -5   7 -12    3.21    2.60
  -5   7  12    3.44    2.01
  -5   7 -12    2.62    1.62
  -5  -7 -12    4.88    3.07
  -5   7  12    3.26    1.88
  -3   7 -12    0.23    1.76
  -3   7  12   -1.34    2.44
  -3   7 -12    2.05    0.95
  -3  -7  12    2.39    1.37
  -3  -7 -12    5.95    3.35
  -1   7  12  138.75   11.72
  -1   7 -12  123.51   12.58
  -1   7 -12  126.83   11.40
  -1  -7  12  141.49   11.05
  -1  -7 -12  122.90   10.47
   1   7 -12  139.07   13.68
   1   7  12  112.49   10.12
   1   7  12  125.51   10.30
   1  -7 -12  135.78   10.06
   3   7 -12    3.24    2.52
   3   7  12    2.35    1.54
   3  -7 -12    2.17    1.32
   5   7 -12    7.10    3.80
   5   7  12    1.96    1.78
   5   7  12    4.95    1.67
   7   7 -12   20.51    5.70
   9   7 -12   72.74   11.05
  11   7 -12   22.80    6.40
  13   7 -12   39.70    8.46
 -10   8 -12   47.27    7.62
 -10   8 -12   44.94    9.48
 -10   8  12   47.04    9.46
 -10  -8 -12   54.34    9.83
  -8   8 -12   26.15    5.96
  -8   8  12   37.96    8.18
  -8   8 -12   25.69    7.02
  -8  -8 -12   15.28    5.22
  -6   8  12   60.91    9.51
  -6   8 -12   62.40    8.94
  -6   8  12   60.80    6.32
  -6  -8 -12   55.85    9.18
  -4   8  12   44.25    7.47
  -4   8 -12   32.66    5.38
  -4   8 -12   35.40    6.88
  -4   8 -12   32.66    6.67
  -4   8  12   45.15    6.12
  -4  -8 -12   30.76    5.98
  -2   8  12   12.78    3.75
  -2   8 -12   18.21    5.02
  -2  -8 -12   23.56    2.29
  -2   8 -12   14.43    4.03
  -2  -8  12   20.35    3.97
  -2  -8 -12   20.00    4.62
   0   8  12  100.02    9.32
   0   8  12  101.91    9.89
   0   8 -12   98.24   11.43
   0   8 -12  102.47   10.15
   0  -8  12   91.75    9.49
   0  -8 -12  106.68    9.67
   2   8  12   23.74    4.46
   2   8 -12   24.79    6.18
   2   8 -12   21.39    4.50
   2  -8 -12   13.99    3.22
   4   8 -12   46.51    8.43
   4   8  12   34.52    4.68
   6   8 -12   52.67    9.09
   8   8 -12   23.28    5.99
  10   8 -12   49.25    9.36
  12   8 -12   -0.40    1.94
  -9   9  12   15.47    5.55
  -9   9 -12   15.65    5.58
  -9  -9 -12   13.23    4.70
  -7   9  12   30.30    7.47
  -7   9 -12   23.03    5.08
  -7  -9 -12   24.88    6.40
  -5   9  12  198.43   16.87
  -5   9 -12  194.00   16.88
  -5   9  12  198.67   12.91
  -5  -9 -12  188.57   15.92
  -3   9  12   77.97    9.86
  -3  -9 -12   81.69    5.47
  -3   9 -12   89.69   11.06
  -3   9 -12   90.51   10.96
  -3  -9  12   72.12    7.49
  -3  -9 -12   78.02    9.68
  -3   9  12   88.94    9.12
  -1   9  12   29.53    4.94
  -1   9  12   27.58    5.42
  -1   9 -12   35.45    6.96
  -1  -9  12   19.60    4.52
  -1   9 -12   34.37    6.21
  -1  -9 -12   28.60    5.61
   1   9  12   28.77    5.10
   1   9 -12   23.86    5.70
   1   9 -12   32.27    5.80
   1  -9 -12   31.63    5.13
   3   9  12   83.40    8.04
   3   9 -12   71.63    7.67
   3   9 -12   72.39   10.40
   5   9  12  194.65   10.24
   5   9 -12  183.28   16.72
   5   9 -12  184.81   10.49
   7   9 -12   34.04    7.53
   9   9 -12   11.35    3.81
  11   9 -12    3.74    2.54
 -10 -10 -12   10.69    5.60
  -8  10  12   21.78    6.30
  -8  10 -12   12.79    4.96
  -8 -10 -12   20.25    6.17
  -6  10  12   37.94    7.75
  -6 -10 -12   31.29    5.19
  -6  10 -12   41.48    8.48
  -6  10  12   41.07    5.90
  -6 -10 -12   27.57    6.53
  -4  10  12   18.82    5.28
  -4 -10 -12   30.62    4.01
  -4  10 -12   17.37    5.00
  -4  10  12   20.83    4.66
  -4 -10 -12   35.77    6.88
  -2  10  12   23.63    5.64
  -2  10 -12   21.18    5.31
  -2  10 -12   24.36    5.64
  -2 -10  12   21.03    4.46
  -2  10  12   21.29    4.78
  -2 -10 -12   25.96    5.63
   0  10  12  107.64   10.30
   0  10  12  111.37   11.01
   0  10 -12  110.50   12.91
   0  10 -12  112.65   11.17
   0 -10 -12  120.69   10.79
   2  10  12   22.98    4.74
   2  10 -12   22.64    4.66
   2  10 -12   23.44    6.42
   4  10  12   30.72    4.71
   4  10 -12   30.69    6.87
   4  10 -12   33.99    5.27
   6  10 -12   27.65    6.81
   8  10 -12   21.51    6.49
  10  10 -12    2.27    2.06
  12  10 -12   -0.51    3.02
 -11 -11 -12   81.18   11.25
  -9  11  12   83.27   12.49
  -9 -11 -12   84.40   10.21
  -9  11 -12   83.11   12.83
  -9 -11 -12   84.80   12.42
  -7  11  12  114.82   14.18
  -7 -11 -12  108.15   10.22
  -7  11 -12   98.15   13.27
  -7 -11 -12  114.83   13.84
  -5  11  12  361.71   23.60
  -5  11 -12  347.07   23.35
  -5  11  12  367.71   19.16
  -5 -11 -12  344.40   22.54
  -3  11  12   66.03    9.95
  -3  11 -12   75.55   10.37
  -3  11  12   74.29    9.37
  -3 -11 -12   56.74    8.63
  -1  11  12  113.89   11.70
  -1  11 -12  104.76   12.51
  -1  11 -12  109.03   11.56
  -1 -11 -12   98.95   10.48
   1  11  12   94.58    9.96
   1  11 -12  114.58   13.41
   1  11 -12  111.53   11.01
   1 -11 -12  119.38   10.61
   3  11  12   63.50    7.54
   3  11 -12   52.95    9.01
   3  11 -12   55.14    7.12
   5  11 -12  357.22   24.27
   5  11 -12  373.24   16.65
   7  11 -12  115.98   14.15
   9  11 -12   75.42   11.49
  11  11 -12   82.35   12.29
  -8  12  12   28.31    7.06
  -8  12 -12   25.15    6.84
  -8 -12 -12   16.66    5.12
  -6  12  12   12.63    4.56
  -6  12 -12   13.99    4.75
  -6  12  12   14.93    4.12
  -6 -12 -12   13.05    5.06
  -4  12  12   64.54   10.08
  -4  12 -12   50.71    8.89
  -4  12  12   64.12    8.51
  -4 -12 -12   45.84    8.34
  -2  12  12    4.81    3.65
  -2  12 -12    1.03    2.73
  -2 -12 -12    0.24    1.57
  -2  12  12    2.95    2.47
   0  12  12   19.90    5.44
   0  12 -12   16.72    5.53
   0  12 -12   21.77    5.12
   0 -12 -12   15.11    4.37
   2  12  12    1.46    2.52
   2  12 -12    2.15    2.20
   2  12 -12    2.64    2.82
   4  12  12   43.57    6.12
   4  12 -12   58.93    9.95
   4  12 -12   63.41    7.66
   6  12 -12   11.27    4.55
   8  12 -12   14.55    4.72
  10  12 -12   -5.29    3.77
  -7  13  12  138.82   16.21
  -7  13 -12  140.78   16.11
  -7 -13 -12  141.77   15.85
  -5  13  12  178.91   17.16
  -5  13 -12  205.07   18.47
  -5  13  12  196.99   15.15
  -5 -13 -12  226.48   18.37
  -3  13  12  338.83   22.44
  -3  13 -12  336.61   22.49
  -3  13  12  363.66   21.81
  -3 -13 -12  326.85   21.41
  -1  13 -12  181.58   15.70
  -1  13  12  195.10   16.30
  -1 -13 -12  182.36   14.93
   1  13 -12  185.67   17.60
   1  13 -12  183.96   14.88
   3  13 -12  334.74   23.89
   3  13 -12  326.18   18.70
   5  13 -12  215.10   19.63
   7  13 -12  151.23   16.52
   9  13 -12   53.31    9.98
  -8 -14 -12   75.00   12.19
  -6  14  12    9.48    4.42
  -6  14 -12    6.34    3.22
  -6  14  12   10.47    3.19
  -6 -14 -12    9.89    4.43
  -4  14  12   64.29   10.44
  -4  14 -12   67.74   10.60
  -4  14  12   63.54    9.10
  -4 -14 -12   79.72   11.11
  -2  14 -12   11.49    4.41
  -2  14  12   11.08    4.58
  -2 -14 -12    8.80    4.07
   0  14 -12   61.32    9.22
   0  14  12   55.59    9.33
   2  14 -12   20.32    6.15
   2  14 -12   11.44    3.79
   4  14 -12   88.96   12.69
   4  14 -12   80.47    9.10
   6  14 -12    6.61    3.39
   8  14 -12   72.33   11.75
  -7 -15 -12   47.45    9.40
  -5  15  12    0.27    1.93
  -5  15 -12    6.15    4.10
  -5 -15 -12    3.35    2.74
  -5  15  12   -1.52    2.47
  -3  15 -12   54.29    9.35
  -3  15  12   57.70    9.15
  -3 -15 -12   60.51   10.26
  -1  15 -12   10.13    3.99
  -1  15  12   15.98    5.38
   1  15 -12    7.02    3.14
   1  15  12   11.39    4.71
   3  15 -12   74.23   11.85
   3  15 -12   60.95    8.66
   5  15 -12   -0.15    2.31
  -6 -16 -12   43.27    9.06
  -4  16 -12   13.46    4.74
  -4  16  12    9.82    3.68
  -4 -16 -12   10.80    4.56
  -2  16 -12   48.66    8.96
  -2  16  12   57.23   10.07
   0  16 -12    3.57    3.29
   0  16  12    5.98    2.87
   2  16 -12   50.20    9.27
   2  16 -12   53.69    8.93
   2  16  12   51.09    9.51
   4  16 -12   13.88    5.33
  -5  17  12   25.28    6.82
  -5 -17 -12   25.51    6.97
  -3  17 -12   64.60   11.05
  -3  17  12   54.95    9.34
  -1  17 -12   30.64    7.24
  -1  17  12   25.18    6.72
   1  17 -12   27.88    6.39
   1  17  12   28.25    7.61
   3  17 -12   52.95    8.58
   3  17  12   56.13   10.18
  -4  18  12    8.67    3.85
  -2  18 -12   13.68    4.97
  -2  18  12   12.74    4.74
   0  18 -12    0.87    2.93
   0  18  12   -1.75    2.25
   2  18 -12   14.38    4.70
  -3  19  12  123.19   14.82
  -1  19 -12  137.17   16.05
  -1  19  12  139.05   16.19
   1  19 -12  147.27   15.76
   2  20 -12   13.62    5.04
 -10   0 -13    3.36    2.91
 -10   0  13    1.34    2.56
  -8   0 -13   -2.61    2.86
  -8   0  13   -1.06    3.33
  -8   0 -13    0.76    1.46
  -6   0  13    0.95    1.59
  -6   0 -13   -0.70    2.18
  -6   0 -13   -0.33    1.80
  -4   0  13   -1.14    1.67
  -4   0 -13   -0.35    1.31
  -4   0  13   -1.14    1.08
  -4   0 -13    2.51    2.05
  -2   0  13    1.09    1.23
  -2   0 -13    3.35    1.88
  -2   0  13   -1.01    1.22
  -2   0 -13   -1.16    1.90
   0   0 -13    0.15    1.33
   0   0  13    2.54    1.77
   0   0 -13    0.74    1.67
   2   0 -13    0.30    1.99
   2   0 -13   -0.70    1.33
   2   0 -13    1.59    1.41
   4   0 -13   -2.21    3.98
   4   0 -13    0.36    0.80
   6   0 -13   -4.07    3.21
   8   0 -13    5.86    3.57
  10   0 -13    1.07    2.93
 -11  -1 -13    0.79    2.75
 -11  -1  13   -0.97    2.88
 -11   1 -13   -1.09    3.12
 -11   1  13    1.59    2.94
  -9   1 -13   73.23    8.08
  -9   1  13   69.48   10.92
  -9  -1  13   80.56   11.86
  -9  -1 -13   77.37   11.29
  -9   1 -13   69.51   10.98
  -7  -1  13    3.87    2.48
  -7  -1 -13    0.73    1.90
  -7   1 -13    1.24    1.54
  -7   1  13    1.82    1.69
  -7  -1 -13   -1.05    2.01
  -7   1 -13    0.64    1.22
  -5  -1  13   25.11    6.08
  -5  -1 -13   30.59    6.46
  -5   1 -13   28.17    5.81
  -5   1  13   21.31    5.38
  -5  -1 -13   29.08    5.71
  -5   1 -13   29.34    5.75
  -3  -1  13   33.13    6.47
  -3  -1 -13   34.99    6.38
  -3   1  13   30.67    5.99
  -3   1 -13   46.16    7.25
  -3  -1 -13   32.23    6.07
  -3   1 -13   46.49    7.58
  -3   1  13   39.25    4.88
  -3  -1  13   34.33    4.38
  -1   1 -13   74.59    8.48
  -1   1  13   70.19    8.32
  -1  -1 -13   66.39    9.04
  -1   1 -13   57.21    8.20
  -1   1  13   71.99    7.62
  -1  -1  13   76.95    7.77
  -1  -1 -13   72.41    8.06
   1   1 -13   76.40    7.56
   1  -1 -13   78.15    9.94
   1   1 -13   70.13    9.52
   1   1 -13   76.12    7.21
   1  -1 -13   83.34    6.49
   1   1  13   69.35    8.31
   1  -1  13   63.83    7.83
   1  -1 -13   83.09    7.65
   3  -1 -13   31.52    6.86
   3   1 -13   30.87    4.56
   3   1 -13   33.53    6.86
   3  -1 -13   35.75    4.06
   3   1 -13   30.54    4.15
   5  -1 -13   31.29    6.81
   5   1 -13   23.34    5.76
   5   1 -13   26.08    2.55
   7  -1 -13    6.17    4.02
   7   1 -13   -0.43    2.84
   9   1 -13   71.76   11.00
   9  -1 -13   78.77   11.84
  11   1 -13   -2.98    3.59
 -10   2 -13  103.31   13.67
 -10  -2 -13   66.31   11.03
 -10  -2  13   83.14   12.49
 -10   2  13  100.24   13.73
  -8  -2 -13  183.26   12.41
  -8   2 -13  195.43   14.10
  -8   2 -13  195.50   17.67
  -8  -2  13  165.44   16.49
  -8   2  13  155.88   15.93
  -8  -2 -13  175.95   16.66
  -6  -2 -13  205.92   13.98
  -6   2 -13  205.54   14.95
  -6   2 -13  214.99   17.30
  -6  -2  13  219.96   17.96
  -6   2  13  226.81   17.95
  -6  -2 -13  198.76   16.54
  -4   2 -13  517.03   25.06
  -4   2  13  455.24   23.88
  -4  -2 -13  523.60   23.47
  -4   2 -13  501.15   23.91
  -4   2  13  476.59   15.59
  -4  -2 -13  507.25   24.41
  -2   2 -13  125.17   11.33
  -2   2 -13  113.02    9.59
  -2   2  13  100.67   10.44
  -2  -2 -13  122.75   11.79
  -2   2 -13  118.83   11.88
  -2   2  13  104.72    8.80
  -2  -2  13  103.62    8.37
  -2  -2 -13  125.43   11.07
   0   2 -13  400.91   18.54
   0   2 -13  379.16   18.96
   0   2  13  374.78   18.38
   0  -2 -13  373.57   21.33
   0   2 -13  386.81   21.98
   0   2  13  360.43   18.04
   0  -2  13  380.23   18.19
   0  -2 -13  402.98   17.92
   2  -2 -13  100.36   11.60
   2   2 -13  109.18   11.96
   2  -2 -13  106.11    6.25
   2   2 -13  113.35    9.20
   2   2 -13  112.88    8.95
   2  -2 -13  121.43    8.28
   4  -2 -13  471.90   25.65
   4   2 -13  494.89   26.45
   4   2 -13  472.03   18.85
   4   2 -13  504.38   15.48
   4  -2 -13  485.71   11.67
   6   2 -13  236.52   18.77
   6  -2 -13  236.92   18.85
   8   2 -13  160.40   16.04
   8  -2 -13  157.01   16.16
  10   2 -13   63.24   10.55
  12   2 -13   39.57    8.35
 -11  -3 -13    5.30    2.61
 -11   3 -13    3.89    2.68
  -9   3 -13    4.47    2.54
  -9  -3 -13    1.94    1.87
  -9   3 -13   -0.47    1.81
  -9   3  13    3.39    3.53
  -7   3 -13   18.82    4.63
  -7  -3 -13   19.87    3.97
  -7  -3 -13   17.55    5.40
  -7   3 -13   16.05    4.72
  -7   3  13   19.00    5.28
  -5  -3 -13   92.53    9.59
  -5   3 -13   74.98    9.27
  -5   3  13   78.24   10.29
  -5   3 -13   83.57   10.49
  -5   3  13   80.79    5.96
  -5  -3 -13   87.49   10.70
  -3  -3 -13   18.37    4.59
  -3   3 -13   16.07    4.45
  -3   3  13   10.37    3.05
  -3   3 -13   14.74    3.51
  -3  -3  13   15.09    2.96
  -3   3  13   10.29    2.73
  -3   3 -13   13.35    4.21
  -3  -3 -13   16.16    4.26
  -1  -3 -13    7.66    2.75
  -1   3  13   10.38    3.32
  -1   3 -13    9.26    3.21
  -1   3 -13    7.58    2.60
  -1  -3 -13    6.81    2.77
  -1   3 -13    8.33    3.39
  -1   3  13   11.01    3.10
  -1  -3  13    8.85    2.57
   1   3  13    7.29    2.73
   1   3 -13   10.48    3.28
   1  -3 -13   11.87    1.83
   1  -3 -13   10.17    3.42
   1   3 -13   11.91    4.76
   1  -3  13   12.17    3.77
   1  -3 -13    7.89    2.63
   3  -3 -13    8.12    3.40
   3   3 -13   14.47    4.77
   3   3 -13   18.12    3.84
   3   3 -13   16.94    3.43
   3  -3 -13   11.74    2.45
   5   3 -13   93.88   11.89
   5   3 -13   88.18    6.17
   5  -3 -13   81.99   10.98
   7  -3 -13   19.00    5.66
   7   3 -13   20.33    5.41
   9   3 -13    0.72    2.82
  11   3 -13   10.09    4.77
 -10   4  13  160.56   17.07
 -10   4 -13  160.17   17.08
 -10  -4 -13  150.72   16.50
  -8   4 -13  377.20   20.48
  -8   4  13  409.89   25.82
  -8   4 -13  389.16   25.28
  -8  -4 -13  353.46   23.73
  -6   4 -13  527.60   24.72
  -6   4  13  575.84   28.81
  -6   4 -13  542.21   27.80
  -6  -4 -13  570.78   22.76
  -6  -4 -13  584.91   28.31
  -4   4 -13  475.92   23.88
  -4   4  13  504.97   25.29
  -4   4 -13  502.46   25.41
  -4  -4 -13  472.04   21.88
  -4   4 -13  486.15   18.69
  -4  -4 -13  487.45   23.98
  -2   4  13  482.27   22.89
  -2   4 -13  519.47   23.97
  -2   4 -13  507.03   21.06
  -2  -4 -13  502.82   23.56
  -2   4 -13  482.83   24.42
  -2   4  13  499.81   20.03
  -2  -4  13  496.64   19.00
  -2  -4 -13  531.06   22.74
   0   4 -13  699.49   25.57
   0   4  13  671.04   24.75
   0  -4 -13  672.09   28.30
   0   4 -13  692.61   29.88
   0  -4 -13  715.29   13.33
   0   4  13  676.08   25.61
   0  -4  13  653.27   24.23
   0  -4 -13  707.22   23.62
   2   4 -13  503.61   26.24
   2   4 -13  497.89   21.06
   2  -4 -13  482.43   25.04
   2   4 -13  508.34   19.82
   2   4  13  534.69   19.92
   2  -4 -13  513.45   17.15
   4   4 -13  478.23   20.85
   4   4 -13  486.86   26.38
   4   4 -13  505.62   17.54
   4  -4 -13  512.48   27.05
   4  -4 -13  516.32   11.56
   6   4 -13  621.01   30.98
   8   4 -13  369.18   24.36
  10   4 -13  160.11   16.89
  12   4 -13  175.94   17.78
  -9   5 -13   25.76    5.56
  -9   5  13   25.27    7.08
  -9   5 -13   25.27    6.92
  -9  -5 -13   19.49    5.79
  -7   5 -13   13.61    4.31
  -7   5  13   10.38    4.42
  -7   5 -13   15.56    5.20
  -7  -5 -13   14.76    4.83
  -5   5 -13   15.05    4.83
  -5   5  13    9.44    3.85
  -5   5 -13   12.34    4.29
  -5   5  13   14.51    3.00
  -5  -5 -13   11.69    4.37
  -3   5  13    9.78    3.65
  -3   5 -13    8.24    3.02
  -3   5 -13   10.84    3.47
  -3  -5 -13   14.52    4.27
  -3   5 -13   14.61    4.23
  -3   5  13    7.22    2.38
  -3  -5  13    5.64    1.84
  -3  -5 -13   10.92    3.75
  -1   5  13   28.90    5.42
  -1   5 -13   34.04    6.32
  -1  -5 -13   30.80    6.09
  -1   5 -13   26.21    5.92
  -1  -5  13   35.72    5.63
  -1  -5 -13   30.77    5.37
   1   5 -13   28.91    6.06
   1  -5 -13   30.62    6.58
   1   5  13   31.17    5.29
   1  -5 -13   30.93    4.82
   3   5 -13    8.04    3.85
   3   5  13   12.85    3.10
   3  -5 -13    7.12    1.95
   5   5 -13   14.10    4.45
   7   5 -13   17.67    5.95
   9   5 -13   24.71    6.48
  11   5 -13    2.70    2.62
 -10   6 -13   94.73   13.56
 -10   6  13   94.12   13.63
 -10  -6 -13  105.17   14.11
  -8   6 -13  196.86   15.66
  -8   6 -13  226.11   19.69
  -8   6  13  204.02   18.49
  -8  -6 -13  212.77   18.54
  -6   6 -13   70.04    9.38
  -6   6  13   69.87   10.24
  -6   6 -13   74.12   10.63
  -6  -6 -13   85.87   11.22
  -4   6 -13  163.00   14.61
  -4   6 -13  171.86   12.01
  -4   6  13  198.81   16.13
  -4   6 -13  183.56   15.60
  -4   6  13  206.51   12.28
  -4  -6 -13  188.73   15.11
  -2   6  13  105.65   10.95
  -2   6 -13  110.92   12.23
  -2  -6  13  114.94    9.56
  -2  -6 -13  125.49   11.42
   0   6  13  300.43   16.95
   0   6 -13  294.59   20.12
   0  -6  13  307.98   17.31
   0  -6 -13  297.22   15.72
   2   6 -13  120.32   12.95
   2   6  13  120.93    9.70
   2  -6 -13  118.46    8.57
   4   6 -13  216.56   17.95
   4   6  13  192.50   10.37
   6   6 -13   78.61   11.40
   8   6 -13  220.95   19.37
  10   6 -13   75.49   11.60
  -9   7 -13    1.11    1.51
  -9   7  13    4.63    3.66
  -9   7 -13    0.70    2.06
  -9  -7 -13   -0.76    3.13
  -7   7 -13    0.18    1.86
  -7   7  13   -1.26    2.69
  -7   7 -13    4.51    3.58
  -7  -7 -13    2.38    1.78
  -5   7 -13   66.24    9.41
  -5   7 -13   64.70    9.68
  -5   7  13   63.57    9.99
  -5   7  13   63.09    6.69
  -5  -7 -13   67.07    9.63
  -3   7 -13   28.98    6.59
  -3   7  13   23.26    5.70
  -3  -7 -13   21.69    5.30
  -1   7  13    7.56    3.20
  -1   7 -13    1.44    1.82
  -1  -7  13    8.53    2.88
  -1  -7 -13    3.16    2.15
   1   7 -13    2.98    1.97
   1   7  13    4.89    2.42
   1  -7 -13   11.12    3.52
   3   7 -13   17.42    4.99
   3   7  13   23.16    4.26
   3  -7 -13   24.33    3.65
   5   7 -13   54.23    9.53
   7   7 -13   -0.19    2.22
   9   7 -13   -0.02    2.46
  11   7 -13    0.15    3.12
 -10   8 -13    0.46    1.85
 -10  -8 -13    1.08    2.56
  -8   8 -13    2.07    2.40
  -8   8 -13    4.12    3.81
  -8   8  13    0.09    2.36
  -8  -8 -13    0.79    2.97
  -6   8 -13   79.42   10.52
  -6   8 -13   82.03   11.61
  -6   8  13   80.00   11.29
  -6  -8 -13   76.07   10.73
  -4   8 -13   19.09    5.22
  -4   8  13   18.22    5.08
  -4  -8 -13    8.43    3.74
  -4   8  13   15.96    4.00
  -2   8  13    1.83    1.99
  -2   8 -13    4.46    2.96
  -2  -8  13    1.40    1.20
  -2  -8 -13    1.41    2.54
   0   8 -13   12.62    4.61
   0   8  13    8.28    2.95
   0  -8 -13   11.60    3.52
   2   8 -13    0.72    1.69
   2   8  13    2.01    1.75
   2  -8 -13    3.44    1.71
   4   8 -13    7.26    4.45
   4   8  13   14.27    3.12
   6   8 -13   80.44   11.52
   8   8 -13    2.11    2.35
  10   8 -13   -1.89    2.03
  -9   9 -13    4.47    3.48
  -9   9 -13    6.95    4.73
  -9   9  13    3.69    3.94
  -9  -9 -13    4.77    3.05
  -7   9 -13   35.06    7.36
  -7   9  13   33.89    7.47
  -7   9 -13   32.64    7.66
  -7  -9 -13   27.69    6.95
  -5   9 -13    2.92    3.31
  -5   9  13    5.70    4.27
  -5  -9 -13    3.10    2.39
  -5   9  13   -0.41    0.99
  -3   9  13    3.03    2.68
  -3   9 -13    2.25    1.90
  -3   9 -13    5.06    2.96
  -3   9  13    2.45    2.42
  -3  -9 -13    8.83    3.83
  -1   9  13   37.80    6.98
  -1   9 -13   23.66    6.37
  -1   9 -13   27.90    6.00
  -1  -9 -13   28.29    5.51
   1   9  13   26.17    5.08
   1   9 -13   48.98    9.07
   1   9 -13   47.92    7.12
   1  -9 -13   40.17    5.72
   3   9  13    3.18    1.89
   3   9 -13    4.71    3.75
   3   9 -13    2.09    1.73
   5   9 -13   -0.39    2.66
   7   9 -13   32.28    7.38
   9   9 -13    0.28    2.55
 -10  10 -13  101.22   12.21
  -8  10 -13   55.63    9.27
  -8  10 -13   60.38   11.07
  -8  10  13   79.65   12.31
  -8 -10 -13   55.08    9.80
  -6  10  13  310.33   22.65
  -6  10 -13  270.41   20.04
  -6  10 -13  295.10   22.27
  -6 -10 -13  290.38   21.12
  -4  10  13  375.33   23.54
  -4  10 -13  348.13   23.18
  -4  10 -13  352.24   23.04
  -4 -10 -13  338.30   21.77
  -4  10  13  371.00   19.82
  -2  10  13   76.82    9.91
  -2  10 -13   92.90   12.22
  -2  10 -13   80.89   10.47
  -2  10  13   83.62    9.75
  -2 -10 -13   78.14    9.75
   0  10  13   78.60    9.48
   0  10 -13   89.22   11.89
   0  10 -13   79.26    9.70
   0 -10 -13   72.29    8.52
   2  10  13   81.41    8.88
   2  10 -13   78.06   11.32
   2  10 -13   72.69    8.57
   4  10 -13  344.79   24.20
   4  10 -13  346.13   16.56
   6  10 -13  309.31   23.14
   8  10 -13   88.50   12.94
  -7  11  13   -4.07    4.00
  -7  11 -13    4.78    3.79
  -7 -11 -13    1.05    3.39
  -5  11  13   14.10    5.02
  -5  11 -13   15.34    4.78
  -5  11 -13    8.75    3.68
  -5  11  13   18.56    4.36
  -5 -11 -13   11.23    5.16
  -3  11  13    0.14    1.98
  -3  11 -13   10.09    3.93
  -3  11 -13    5.25    3.04
  -3  11  13    7.34    3.84
  -3 -11 -13    4.91    2.57
  -1  11  13   62.71    8.95
  -1  11 -13   67.97   10.59
  -1  11 -13   63.47    9.27
  -1 -11 -13   55.28    8.09
   1  11  13   56.66    8.07
   1  11 -13   65.91   10.65
   1  11 -13   50.85    7.56
   1 -11 -13   69.98    8.26
   3  11  13    4.73    1.03
   3  11 -13    5.38    3.32
   3  11 -13    5.40    2.17
   5  11 -13   14.54    4.76
   7  11 -13    3.50    3.46
   9  11 -13    6.27    4.30
  -8 -12 -13   99.77   13.73
  -6  12  13  335.01   24.30
  -6  12 -13  332.72   24.49
  -6 -12 -13  348.25   24.25
  -4  12  13  377.11   24.52
  -4  12 -13  379.57   24.83
  -4  12  13  401.29   21.65
  -4 -12 -13  364.66   23.17
  -2  12  13  181.20   16.23
  -2  12 -13  229.16   19.64
  -2  12 -13  207.25   17.19
  -2  12  13  192.34   15.89
  -2 -12 -13  209.12   16.60
   0  12  13  204.93   16.13
   0  12 -13  218.38   19.52
   0  12 -13  215.73   16.58
   0 -12 -13  215.51   15.56
   2  12  13  219.47   15.29
   2  12 -13  204.40   18.77
   2  12 -13  193.69   14.63
   4  12 -13  403.51   26.84
   6  12 -13  347.04   25.23
   8  12 -13  107.00   14.31
  -7  13  13    2.37    1.89
  -7  13 -13    2.69    3.41
  -7 -13 -13    5.90    4.46
  -5  13  13    5.18    3.42
  -5  13 -13   13.91    5.50
  -5  13  13    6.99    3.11
  -5 -13 -13    3.87    3.12
  -3  13  13   30.68    7.00
  -3  13 -13   13.66    4.50
  -3 -13 -13   23.36    6.24
  -3  13  13   24.32    5.63
  -1  13  13    0.74    2.23
  -1  13 -13    0.93    2.64
  -1  13 -13    4.03    2.62
  -1  13  13    1.99    3.09
  -1 -13 -13   -0.36    1.44
   1  13  13   -1.04    2.29
   1  13 -13    2.02    3.24
   1  13 -13   -1.64    1.42
   3  13 -13   27.04    6.91
   3  13 -13   36.60    6.42
   5  13 -13    3.37    2.57
  -6  14  13   99.88   13.58
  -6  14 -13   81.05   12.49
  -6 -14 -13   83.71   12.32
  -4  14  13  170.08   17.09
  -4  14 -13  188.80   18.00
  -4  14  13  182.79   15.63
  -4 -14 -13  165.50   16.49
  -2  14  13   93.45   12.13
  -2  14 -13  102.15   12.57
  -2  14  13  104.41   12.64
  -2 -14 -13   97.17   11.81
   0  14  13   50.57    8.36
   0  14 -13   49.67    9.54
   0  14 -13   52.08    8.82
   0  14  13   54.28    9.07
   2  14  13   90.22   10.29
   2  14 -13   90.29   13.02
   2  14 -13   82.51   10.47
   4  14 -13  161.88   17.64
  -5  15  13    5.66    4.07
  -5  15 -13    3.78    3.58
  -5 -15 -13   -2.58    3.53
  -3  15  13   -2.75    2.65
  -3  15 -13    4.52    3.56
  -3  15  13   -0.47    2.09
  -3 -15 -13    5.48    3.94
  -1  15  13    6.72    3.88
  -1  15 -13   -1.15    2.57
  -1  15  13    0.19    1.97
   1  15 -13    3.17    3.37
   1  15 -13    3.02    2.56
   1  15  13   -3.31    3.00
  -4  16  13    2.30    3.68
  -4  16 -13   -1.74    1.90
  -4  16  13   -2.91    2.52
  -4 -16 -13   -2.51    1.82
  -2  16 -13   -2.83    2.88
  -2  16  13   -5.11    3.62
   0  16 -13   36.52    7.83
   0  16  13   32.51    7.80
   2  16 -13   -0.66    2.38
   2  16  13    5.49    4.23
  -3  17 -13   -0.01    2.09
  -3  17  13    1.94    2.39
  -1  17 -13    4.77    2.96
  -1  17  13    4.10    1.84
   1  17 -13    9.02    4.10
   1  17  13    5.58    3.38
  -4  18  13   39.20    8.36
  -2  18 -13   93.62   13.36
  -2  18  13  101.31   13.70
   0  18 -13   55.90   10.09
   1  19 -13   -1.02    2.99
 -10   0 -14   11.15    4.66
 -10   0  14   13.50    5.49
  -8   0 -14   20.27    4.84
  -8   0  14   23.96    6.74
  -8   0 -14   22.24    6.51
  -6   0 -14    6.12    2.96
  -6   0  14    1.00    1.88
  -6   0 -14    5.17    2.46
  -4   0 -14   38.99    7.04
  -4   0  14   38.66    7.38
  -4   0 -14   37.19    6.82
  -2   0  14  155.87   13.68
  -2   0 -14  146.15   13.74
  -2   0  14  141.71   10.37
  -2   0 -14  150.98   12.85
   0   0 -14   46.43    8.18
   0   0  14   40.39    6.31
   0   0 -14   53.08    7.02
   2   0 -14  147.12   14.38
   2   0 -14  157.44   10.35
   4   0 -14   38.44    7.91
   6   0 -14    6.44    3.95
   8   0 -14   29.50    7.34
  10   0 -14    8.56    4.83
  -9  -1  14   41.66    8.90
  -9  -1 -14   24.80    6.46
  -9   1 -14   50.30    9.96
  -9   1  14   45.89    8.99
  -7   1 -14   70.30    9.02
  -7  -1 -14   48.81    7.10
  -7  -1  14   58.31   10.04
  -7  -1 -14   53.33    9.29
  -7   1 -14   60.35    9.67
  -7   1  14   73.98   10.91
  -5  -1 -14   96.22   10.40
  -5   1 -14   91.12   10.37
  -5   1 -14  102.01   11.76
  -5  -1  14   94.20   11.89
  -5   1  14   96.32   11.85
  -5  -1 -14  105.81   12.05
  -3  -1 -14   84.80   10.26
  -3   1 -14   95.67   11.00
  -3   1 -14  105.98   11.05
  -3   1  14  105.26   11.67
  -3  -1 -14   90.22   10.62
  -1   1 -14   73.21    8.63
  -1   1  14   70.93    8.89
  -1  -1 -14   73.48    9.88
  -1   1 -14   79.53   10.30
  -1   1  14   60.22    7.36
  -1  -1  14   64.43    7.56
  -1  -1 -14   70.92    8.46
   1  -1 -14   66.31    9.65
   1   1 -14   64.49    9.59
   1   1 -14   68.84    7.05
   1   1 -14   64.95    7.17
   1  -1 -14   63.96    7.12
   3  -1 -14  119.43   13.58
   3   1 -14   99.21   12.04
   3   1 -14  116.35    8.35
   3  -1 -14  115.42    7.68
   5  -1 -14  103.89   12.99
   5   1 -14   90.10   12.18
   7  -1 -14   63.91   10.42
   7   1 -14   61.60   10.58
   9  -1 -14   48.63    9.95
   9   1 -14   37.04    8.02
 -10   2 -14   46.35    9.06
 -10   2  14   62.28   11.02
 -10  -2 -14   75.37   12.62
  -8   2 -14   20.07    4.55
  -8  -2  14   31.09    7.63
  -8  -2 -14   20.18    5.25
  -8   2 -14   24.73    6.56
  -8   2  14   20.96    6.11
  -6  -2 -14    7.62    3.21
  -6   2 -14    6.95    3.07
  -6  -2 -14    7.06    3.84
  -6   2 -14    8.07    3.39
  -6   2  14    8.37    3.56
  -6  -2  14    7.06    3.08
  -4  -2 -14   55.88    8.16
  -4   2 -14   39.11    6.95
  -4  -2 -14   53.91    8.26
  -4   2  14   37.39    7.05
  -4   2 -14   43.92    8.11
  -2   2 -14  126.37   11.93
  -2   2  14  115.14   11.74
  -2  -2 -14  134.51   13.07
  -2   2 -14  136.41   13.44
  -2   2  14  120.58    9.78
  -2  -2 -14  146.25   12.55
   0   2  14   42.81    6.55
   0   2 -14   38.64    6.15
   0  -2 -14   44.12    7.71
   0   2 -14   37.06    7.22
   0  -2  14   39.98    6.37
   0  -2 -14   46.70    6.40
   2  -2 -14  131.69   13.70
   2   2 -14  132.20   13.92
   2   2 -14  136.71   10.31
   2   2 -14  133.94    9.89
   2  -2 -14  134.74    9.18
   4  -2 -14   36.99    7.43
   4   2 -14   53.32    9.21
   4   2 -14   45.67    4.91
   6  -2 -14   12.23    5.15
   6   2 -14    6.13    3.66
   8  -2 -14   22.91    7.28
   8   2 -14   30.67    7.63
  10   2 -14   63.53   11.28
  -9   3 -14  177.46   18.06
  -9   3  14  174.36   17.94
  -9  -3 -14  155.26   16.75
  -7   3 -14   89.83   10.40
  -7   3 -14   94.13   12.40
  -7  -3 -14  100.60    9.95
  -7   3  14  109.27   13.43
  -7  -3 -14  107.91   13.06
  -5  -3 -14  247.38   16.51
  -5   3 -14  258.56   18.09
  -5   3 -14  274.42   19.67
  -5   3  14  254.82   19.08
  -5  -3 -14  258.54   18.77
  -3  -3 -14  233.43   16.70
  -3   3 -14  241.60   17.93
  -3   3 -14  242.36   17.19
  -3   3  14  228.37   17.21
  -3  -3 -14  255.73   17.27
  -1   3 -14   86.25    9.63
  -1   3  14   64.95    8.41
  -1  -3 -14   77.98   10.17
  -1   3 -14   85.65   10.80
  -1   3  14   67.58    7.93
  -1  -3  14   62.45    7.43
  -1  -3 -14   74.65    8.47
   1  -3 -14   67.44    9.74
   1   3 -14   56.88    7.06
   1   3 -14   58.03    8.89
   1   3 -14   64.89    7.62
   1   3  14   78.88    8.41
   1  -3 -14   70.11    7.36
   3  -3 -14  238.93   18.83
   3   3 -14  264.15   19.89
   3   3 -14  269.51   13.52
   3  -3 -14  253.02   10.96
   5   3 -14  254.20   20.22
   5  -3 -14  271.11   20.64
   7   3 -14  111.90   13.95
   9   3 -14  173.96   17.84
 -10  -4 -14   68.66   11.65
  -8   4 -14   -0.44    1.22
  -8   4 -14    5.10    3.63
  -8   4  14   -0.95    1.79
  -8  -4 -14    4.49    4.25
  -6   4 -14    2.45    2.77
  -6  -4 -14    6.40    2.60
  -6  -4 -14    5.31    2.97
  -6   4 -14    1.37    2.37
  -6   4  14    6.02    3.54
  -4   4 -14   16.91    4.66
  -4  -4 -14   21.62    5.08
  -4   4 -14   21.33    5.51
  -4   4  14   19.73    5.33
  -4  -4 -14   18.00    4.81
  -2   4 -14   51.27    8.56
  -2  -4 -14   49.77    7.88
  -2   4 -14   53.70    8.21
  -2   4  14   58.77    8.43
  -2  -4 -14   46.82    7.14
   0   4 -14   79.29   10.59
   0   4 -14   79.47    9.00
   0   4  14   84.29    9.27
   0  -4 -14   74.20   10.01
   0  -4 -14   79.44    8.30
   2  -4 -14   51.06    8.54
   2   4 -14   46.59    8.14
   2   4 -14   52.22    6.57
   2   4  14   46.24    6.25
   2  -4 -14   58.61    6.09
   4  -4 -14   23.56    6.41
   4   4 -14   20.55    5.74
   4   4 -14   25.73    4.19
   6   4 -14    5.91    3.50
   8   4 -14    1.65    1.82
  10   4 -14   81.25   12.74
  -9   5 -14   95.49   10.91
  -9   5  14   99.38   13.81
  -9   5 -14  111.56   14.57
  -9  -5 -14   96.87   13.22
  -7   5 -14  173.47   15.13
  -7   5  14  193.83   18.17
  -7   5 -14  178.48   17.19
  -7  -5 -14  176.70   16.59
  -5   5 -14  334.29   21.10
  -5   5  14  355.40   22.84
  -5   5 -14  340.98   22.60
  -5  -5 -14  333.92   21.49
  -3   5 -14  502.35   26.30
  -3   5  14  483.20   24.81
  -3   5 -14  544.50   26.51
  -3  -5 -14  552.20   25.67
  -3  -5 -14  544.29   25.39
  -1   5 -14  236.76   18.32
  -1   5  14  232.50   15.91
  -1  -5 -14  236.61   17.62
  -1   5 -14  240.74   16.57
  -1  -5 -14  236.92   15.15
   1   5 -14  242.59   18.95
   1   5 -14  237.78   15.19
   1   5  14  224.53   14.36
   1  -5 -14  258.41   19.08
   1  -5 -14  259.00   13.96
   3   5 -14  505.47   27.98
   3   5 -14  522.18   20.38
   3   5  14  573.86   20.19
   5   5 -14  345.34   23.76
   7   5 -14  214.32   19.42
   9   5 -14  105.43   14.06
  -8   6 -14    5.58    2.85
  -8   6  14    3.37    2.91
  -8   6 -14    4.58    3.10
  -8  -6 -14    4.68    2.46
  -6   6 -14   38.28    7.36
  -6   6  14   60.22    9.69
  -6   6 -14   44.71    8.36
  -6  -6 -14   42.43    8.26
  -4   6 -14  198.84   16.87
  -4   6  14  185.19   16.28
  -4   6 -14  189.15   16.38
  -4   6  14  213.48   12.86
  -4  -6 -14  222.71   17.24
  -2   6 -14   62.66    9.62
  -2   6  14   56.62    8.45
  -2   6 -14   68.34    9.28
  -2  -6 -14   61.55    8.28
   0   6 -14   16.27    4.71
   0   6  14   14.85    4.04
   0  -6 -14   14.59    3.94
   2   6 -14   53.59    9.26
   2   6  14   62.89    7.27
   2  -6 -14   52.81    5.79
   4   6 -14  212.01   18.79
   6   6 -14   46.98    9.01
   8   6 -14    7.58    4.22
  -9   7 -14    0.56    1.93
  -9   7  14    5.48    3.10
  -9   7 -14    2.77    4.27
  -9  -7 -14    0.34    1.77
  -7   7 -14   33.55    7.16
  -7   7  14   29.54    7.39
  -7   7 -14   38.53    8.50
  -7  -7 -14   33.95    7.31
  -5   7 -14   12.74    5.03
  -5   7  14   14.21    4.84
  -5   7 -14   11.78    4.92
  -5  -7 -14   11.10    3.61
  -3   7 -14   48.84    8.63
  -3   7  14   38.95    7.18
  -3   7 -14   53.08    8.88
  -3  -7 -14   52.25    8.27
  -1   7 -14   17.20    5.23
  -1   7  14   28.80    6.01
  -1  -7 -14   25.66    5.26
   1   7 -14   35.29    7.28
   1   7  14   32.00    5.67
   1  -7 -14   32.29    5.16
   3   7 -14   39.13    8.17
   3   7  14   50.25    6.12
   5   7 -14   20.80    6.29
   7   7 -14   37.77    8.39
   9   7 -14   -3.72    2.70
  -8   8 -14    2.49    2.39
  -8   8  14    0.58    1.86
  -8   8 -14    4.34    3.97
  -8  -8 -14   -1.04    1.84
  -6   8 -14   77.12   10.85
  -6   8 -14   88.45   12.35
  -6   8  14   94.27   12.74
  -6  -8 -14   87.89   11.71
  -4   8 -14   29.47    6.86
  -4   8  14   14.95    4.88
  -4  -8 -14   29.18    6.53
  -4   8  14   22.05    4.45
  -2   8 -14  140.09   14.90
  -2   8  14  137.05   13.60
  -2  -8 -14  129.30   12.32
   0   8 -14   45.40    8.52
   0   8  14   35.47    6.38
   0  -8 -14   43.59    6.35
   2   8 -14  120.53   14.35
   2   8  14  132.98   10.95
   2  -8 -14  144.49   10.19
   4   8 -14   19.84    6.35
   6   8 -14   84.31   12.45
   8   8 -14    0.96    2.23
  -9   9 -14   16.50    4.83
  -7   9 -14   96.30   12.28
  -7   9 -14  111.28   14.41
  -7   9  14  117.21   14.65
  -7  -9 -14   90.96   12.29
  -5   9 -14   61.14    9.93
  -5   9  14   57.29    9.56
  -5  -9 -14   44.55    8.24
  -3   9 -14   88.36   12.03
  -3   9  14   74.83   10.33
  -3  -9 -14   90.33   10.82
  -3   9  14   77.26    9.09
  -1   9 -14   26.00    6.66
  -1   9  14   25.25    5.84
  -1  -9 -14   17.31    4.84
   1   9 -14   20.71    6.03
   1   9  14   19.13    4.72
   1  -9 -14   32.67    5.69
   3   9 -14   74.44   11.27
   5   9 -14   48.96    9.46
   7   9 -14  111.00   14.61
  -8  10 -14    2.48    1.95
  -8 -10 -14   -3.84    3.57
  -6  10 -14   18.15    5.62
  -6  10  14   20.56    6.09
  -6 -10 -14   17.85    6.11
  -4  10 -14   18.70    6.05
  -4  10  14   20.19    5.94
  -4  10  14   18.48    4.48
  -4 -10 -14   18.14    5.36
  -2  10  14   26.51    5.93
  -2  10 -14   20.85    5.70
  -2  10 -14   19.50    5.59
  -2  10  14   23.65    5.46
  -2 -10 -14   20.39    5.47
   0  10  14   35.84    6.72
   0  10 -14   39.78    8.25
   0  10 -14   35.24    6.97
   0 -10 -14   31.54    5.86
   2  10 -14   16.97    5.48
   2  10  14   20.30    4.57
   4  10 -14   13.08    4.63
   6  10 -14   15.03    5.50
  -9  11 -14   58.55    9.96
  -7  11 -14  241.71   20.55
  -7  11  14  273.60   22.70
  -7 -11 -14  250.27   21.65
  -5  11  14  195.16   18.25
  -5  11 -14  174.68   17.47
  -5  11 -14  172.69   17.29
  -5 -11 -14  181.19   17.02
  -3  11  14  356.29   23.34
  -3  11 -14  389.17   25.93
  -3  11 -14  376.97   24.22
  -3  11  14  373.00   21.55
  -3 -11 -14  365.09   22.90
  -1  11  14  251.11   18.40
  -1  11 -14  256.65   21.10
  -1  11 -14  238.66   18.13
  -1 -11 -14  231.26   16.82
   1  11  14  228.86   16.25
   1  11 -14  247.65   21.01
   1  11 -14  246.25   17.07
   1 -11 -14  259.71   15.88
   3  11 -14  358.86   25.73
   5  11 -14  198.64   19.25
  -8  12 -14    9.20    4.51
  -6  12  14   10.84    5.66
  -6  12 -14    4.32    2.47
  -6  12 -14    2.57    3.16
  -6 -12 -14    0.33    2.33
  -4  12  14   22.75    5.96
  -4  12 -14   30.20    7.54
  -4  12 -14   23.42    6.31
  -4 -12 -14   29.98    7.17
  -2  12  14   -2.40    1.93
  -2  12 -14    2.64    2.11
  -2  12 -14    0.11    2.73
  -2 -12 -14   -0.55    1.60
  -2  12  14   -0.13    1.68
   0  12  14   12.46    4.01
   0  12 -14   19.73    6.21
   0  12 -14   13.49    4.49
   0 -12 -14   16.16    4.70
   2  12  14   -0.16    1.76
   2  12 -14   -1.29    3.82
   2  12 -14   -0.93    2.39
   4  12 -14   26.59    7.59
  -7  13 -14   59.85   10.85
  -5  13  14  169.86   17.38
  -5  13 -14  172.21   17.68
  -5  13 -14  189.81   19.01
  -5 -13 -14  151.87   16.03
  -3  13  14  177.10   16.99
  -3  13 -14  193.01   18.81
  -3  13 -14  195.81   18.36
  -3  13  14  191.20   16.44
  -3 -13 -14  188.09   17.03
  -1  13  14  164.96   15.47
  -1  13 -14  187.16   18.98
  -1  13 -14  169.45   15.87
  -1  13  14  183.76   16.65
  -1 -13 -14  180.97   15.68
   1  13  14  179.68   15.12
   1  13 -14  183.48   18.78
   1  13 -14  180.46   15.34
  -6 -14 -14   -2.12    2.14
  -4  14  14   -0.34    2.48
  -4  14 -14    7.29    4.79
  -4 -14 -14    2.02    2.52
  -2  14  14   18.75    5.58
  -2  14 -14   19.99    6.15
  -2  14  14   12.91    4.32
  -2 -14 -14   12.64    4.75
   0  14  14    3.84    2.75
   0  14 -14    1.45    2.57
   0  14  14    3.48    2.63
  -5 -15 -14   33.52    8.27
  -3  15  14    1.66    2.25
  -3  15 -14   -1.21    2.57
  -3  15  14    2.00    2.20
  -3 -15 -14    2.57    3.13
  -1  15  14   17.11    5.59
  -1  15 -14   10.72    3.96
  -1  15  14   18.61    6.29
   1  15 -14   11.59    4.51
   1  15  14   14.93    5.84
  -4 -16 -14   62.03   10.67
  -2  16  14    2.80    3.41
  -2  16 -14    2.32    2.35
  -2  16  14    1.53    2.76
   0  16  14   32.81    6.82
   0  16 -14   36.93    7.92
   0  16  14   42.45    8.87
  -1  17  14   65.25   10.79
  -1  17 -14   63.35   10.74
  -1  17  14   69.43   11.45
  -8   0  15   -3.84    3.69
  -8   0 -15    1.98    3.46
  -6   0 -15    1.12    2.01
  -6   0  15    1.89    3.08
  -6   0 -15    2.08    1.97
  -4   0 -15    0.03    1.63
  -4   0  15   -3.61    3.29
  -4   0 -15    0.57    1.53
  -2   0 -15    2.13    2.59
  -2   0 -15   -0.75    1.95
   0   0 -15    0.41    1.89
   0   0 -15   -0.01    1.69
   2   0 -15    3.07    3.28
   2   0 -15    0.13    1.34
   4   0 -15   -0.41    2.74
   6   0 -15    0.05    2.82
   8   0 -15    3.17    3.33
  -9  -1 -15  105.82   14.08
  -9   1 -15  109.32   14.39
  -7  -1 -15   72.02    9.30
  -7   1 -15   70.68    9.50
  -7  -1  15   71.65   11.34
  -7   1  15   72.10   11.27
  -7  -1 -15   73.49   11.17
  -7   1 -15   68.70   10.95
  -5  -1 -15   34.78    6.85
  -5   1 -15   36.35    7.10
  -5  -1  15   47.22    8.64
  -5  -1 -15   47.40    8.35
  -5   1  15   41.93    8.27
  -5   1 -15   35.77    7.47
  -3  -1 -15   87.45   10.89
  -3   1 -15   88.62   11.02
  -3   1 -15   76.55    9.65
  -3   1  15   84.77   10.81
  -3  -1 -15   73.50    9.77
  -1  -1 -15  349.44   22.35
  -1   1 -15  375.52   23.34
  -1   1  15  377.81   21.15
  -1  -1 -15  368.28   19.63
  -1   1 -15  367.79   19.66
   1  -1 -15  375.18   24.04
   1   1 -15  360.18   23.40
   1   1 -15  371.46   18.04
   1  -1 -15  403.56   18.18
   3  -1 -15   81.49   11.47
   3   1 -15   83.99   11.62
   5  -1 -15   42.32    8.86
   5   1 -15   48.55    9.38
   7  -1 -15   66.13   11.25
   7   1 -15   68.98   11.45
  -8   2 -15   87.93   10.34
  -8   2 -15   87.11   12.52
  -8   2  15  100.05   13.87
  -8  -2 -15   76.03   11.85
  -6  -2 -15  175.71   14.38
  -6   2 -15  174.34   15.04
  -6   2 -15  185.14   17.32
  -6   2  15  206.00   18.45
  -6  -2 -15  181.67   16.97
  -4  -2 -15  166.51   14.62
  -4   2 -15  156.95   14.63
  -4   2 -15  167.15   15.27
  -4   2  15  165.88   15.56
  -4  -2 -15  170.42   15.36
  -2  -2 -15  457.82   25.16
  -2   2 -15  430.13   24.76
  -2   2 -15  450.05   23.09
  -2   2  15  401.84   22.54
  -2  -2 -15  476.44   23.32
   0  -2 -15   50.60    8.95
   0   2 -15   45.95    8.65
   0   2  15   41.97    6.73
   0   2 -15   42.80    6.61
   0  -2 -15   55.77    7.42
   2  -2 -15  398.57   24.96
   2   2 -15  431.45   26.11
   2   2 -15  426.99   18.30
   2  -2 -15  425.99   16.98
   4  -2 -15  168.75   16.69
   4   2 -15  177.35   17.19
   6   2 -15  206.76   19.43
   6  -2 -15  211.87   19.43
   8   2 -15   89.15   13.09
   8  -2 -15   96.45   13.50
  -9  -3 -15   68.82   11.87
  -9   3 -15   54.96   10.18
  -7   3 -15    2.21    2.09
  -7  -3 -15    4.17    2.68
  -7   3 -15   10.12    4.76
  -7   3  15    4.55    3.15
  -5  -3 -15    4.00    3.29
  -5   3 -15    2.28    1.77
  -5  -3 -15    1.05    3.13
  -5   3 -15    6.23    3.34
  -5   3  15    4.00    2.55
  -3  -3 -15    4.38    2.98
  -3   3 -15    3.60    2.78
  -3  -3 -15    4.69    3.17
  -3   3  15    8.79    3.90
  -3   3 -15    4.53    3.43
  -1  -3 -15   56.74    9.03
  -1   3 -15   68.78   10.09
  -1   3 -15   80.17    9.66
  -1   3  15   78.00    9.60
  -1  -3 -15   63.23    8.08
   1  -3 -15   82.49   11.24
   1   3 -15   71.36   10.53
   1   3 -15   70.97    8.26
   1   3  15   59.80    7.80
   1  -3 -15   80.05    7.95
   3  -3 -15   15.48    5.40
   3   3 -15   10.76    5.09
   5  -3 -15    3.39    1.93
   5   3 -15    2.93    3.48
   7   3 -15    4.10    3.23
  -8   4 -15   69.67    9.78
  -8   4 -15   65.64   10.88
  -8   4  15   76.36   12.05
  -8  -4 -15   56.83   10.21
  -6   4 -15  294.80   20.30
  -6   4 -15  313.27   22.76
  -6  -4 -15  320.44   19.11
  -6   4  15  327.40   23.21
  -6  -4 -15  308.83   21.73
  -4   4 -15  355.53   22.58
  -4  -4 -15  349.31   20.83
  -4   4 -15  367.38   22.93
  -4   4  15  368.43   23.20
  -4  -4 -15  364.19   22.04
  -2   4 -15  250.93   19.41
  -2   4 -15  258.95   18.03
  -2   4  15  207.54   16.33
  -2  -4 -15  268.01   18.98
  -2  -4 -15  263.72   17.31
   0  -4 -15   38.35    7.63
   0   4 -15   44.95    8.57
   0   4  15   40.45    6.99
   0   4 -15   45.17    6.98
   0  -4 -15   51.08    6.96
   2   4 -15  227.91   19.28
   2   4 -15  243.57   14.75
   2   4  15  263.13   15.22
   2  -4 -15  214.12   18.45
   4   4 -15  394.53   26.06
   4  -4 -15  398.09   25.92
   6   4 -15  348.19   25.17
   8   4 -15   71.04   11.78
  -9  -5 -15   -0.88    3.39
  -7   5 -15   29.63    6.21
  -7   5 -15   38.36    8.27
  -7   5  15   34.11    8.20
  -7  -5 -15   24.83    6.44
  -5   5 -15   69.57   10.09
  -5   5  15   72.98   10.86
  -5   5 -15   68.15   10.35
  -5  -5 -15   73.01   10.40
  -3   5 -15   58.60    9.62
  -3   5 -15   58.62    9.17
  -3   5  15   44.48    7.84
  -3  -5 -15   66.10    9.09
  -1  -5 -15    3.86    3.33
  -1   5 -15    4.98    3.98
  -1   5  15    0.87    1.27
  -1   5 -15    2.55    2.48
  -1  -5 -15    5.91    2.63
   1   5 -15   -1.19    3.44
   1   5  15    3.62    1.78
   1   5 -15    2.66    1.63
   1  -5 -15    2.86    1.98
   3   5 -15   51.90    9.38
   3   5 -15   52.65    6.90
   5   5 -15   87.33   12.56
   7   5 -15   29.20    7.25
  -8   6 -15    2.40    2.34
  -8   6 -15   -1.04    2.18
  -8   6  15    1.72    2.11
  -8  -6 -15    3.56    2.59
  -6   6 -15   84.28   11.23
  -6   6  15  100.25   13.03
  -6   6 -15   88.68   12.30
  -6  -6 -15  102.03   12.96
  -4   6 -15  118.96   13.45
  -4   6  15  130.61   13.98
  -4   6 -15  117.63   13.89
  -4  -6 -15  126.49   13.41
  -2   6 -15   55.03    9.48
  -2   6 -15   57.58    8.85
  -2   6  15   40.80    7.37
  -2  -6 -15   51.94    8.02
   0   6 -15   30.19    7.46
   0   6 -15   24.63    5.53
   0   6  15   22.86    4.92
   0  -6 -15   26.23    5.35
   2   6 -15   42.69    8.65
   2   6 -15   53.26    7.46
   2   6  15   53.83    7.08
   4   6 -15  146.17   16.08
   6   6 -15  110.07   14.26
  -7   7 -15   70.66   10.45
  -7   7  15   78.85   12.13
  -7   7 -15   73.75   11.99
  -7  -7 -15   62.73   10.55
  -5   7 -15  233.60   19.18
  -5   7  15  239.62   19.88
  -5   7 -15  246.16   20.19
  -5  -7 -15  256.28   19.87
  -3   7 -15  154.94   15.92
  -3   7  15  145.54   14.55
  -3   7 -15  166.07   15.66
  -3  -7 -15  159.52   14.45
  -1   7 -15   76.77   11.34
  -1   7  15   69.76    9.61
  -1   7 -15   70.14    9.55
  -1  -7 -15   77.61    9.50
   1   7 -15   70.61   11.15
   1   7  15   69.21    8.63
   3   7 -15  162.95   17.18
   5   7 -15  244.25   21.08
  -8   8 -15    6.77    3.17
  -8  -8 -15   -1.14    3.13
  -6   8 -15    1.61    1.85
  -6   8  15    2.58    3.24
  -6   8 -15   -3.25    2.70
  -6  -8 -15    0.12    2.11
  -4   8 -15    7.08    4.20
  -4   8  15    3.37    2.35
  -4   8 -15    6.59    3.92
  -4  -8 -15    2.74    2.57
  -2   8 -15    4.81    2.72
  -2   8  15    5.74    3.78
  -2  -8 -15    5.59    2.78
   0   8 -15    3.23    2.70
   0   8  15    1.62    2.28
   0  -8 -15   -0.52    1.37
   2   8 -15    6.18    3.84
   4   8 -15    5.16    3.35
   6   8 -15    0.90    2.06
  -7   9 -15   53.27    9.30
  -7   9  15   57.45   10.23
  -7  -9 -15   63.60   10.68
  -5   9 -15   97.30   12.83
  -5   9  15   94.25   12.81
  -5   9 -15   92.86   13.02
  -5  -9 -15   99.27   12.33
  -3   9 -15   58.11   10.06
  -3   9  15   54.89    9.41
  -3  -9 -15   57.32    9.13
  -1   9 -15   58.72   10.13
  -1   9  15   58.95    8.79
  -1  -9 -15   60.07    8.46
   1   9 -15   58.33   10.30
   1   9  15   58.94    8.33
   3   9 -15   63.60   10.89
   5   9 -15  110.42   14.85
  -8  10 -15  111.60   13.99
  -6  10 -15   35.43    7.72
  -6  10 -15   45.65    9.49
  -6  10  15   40.16    8.63
  -6 -10 -15   35.15    8.05
  -4  10 -15  121.77   14.80
  -4  10  15  135.98   14.97
  -4 -10 -15  120.00   13.60
  -2  10 -15  127.74   15.35
  -2  10  15  112.68   12.98
  -2  10  15  112.94   11.90
  -2 -10 -15  114.89   12.73
   0  10 -15   50.02    9.55
   0  10  15   56.60    8.53
   2  10 -15  112.78   14.58
   4  10 -15  141.22   16.51
  -7  11 -15   21.04    6.28
  -7 -11 -15   14.78    6.41
  -5  11 -15    3.72    3.56
  -5  11  15    6.58    4.51
  -5 -11 -15    8.62    3.81
  -3  11 -15   16.14    5.62
  -3  11  15    4.81    2.75
  -3 -11 -15    4.89    3.37
  -1  11 -15   22.97    6.28
  -1  11  15   22.29    5.66
  -1 -11 -15   17.18    4.71
   1  11 -15   29.08    7.92
   1  11  15   22.85    5.01
  -6 -12 -15   45.88    9.46
  -4  12 -15   74.25   12.09
  -4  12  15   90.13   12.42
  -4 -12 -15   83.24   11.98
  -2  12  15   36.62    7.98
  -2  12 -15   50.01    9.74
  -2  12 -15   44.30    8.43
  -2 -12 -15   40.18    7.90
  -2  12  15   44.22    7.97
   0  12  15   33.02    6.85
   0  12 -15   33.56    6.70
  -5 -13 -15    6.87    4.38
  -3  13  15   14.99    5.19
  -3  13 -15   18.63    5.64
  -3 -13 -15   12.53    5.07
  -1  13  15   11.24    4.93
  -1  13 -15   12.59    4.25
  -1  13  15    7.95    4.39
  -4  14  15   11.26    5.31
  -4  14 -15   15.34    6.07
  -4 -14 -15   19.33    6.36
  -2  14  15   46.22    8.43
  -2  14 -15   34.85    8.12
  -2  14  15   43.67    8.47
  -2 -14 -15   43.93    8.77
   0  14 -15   45.24    8.41
   0  14  15   45.92    8.77
  -3  15  15   74.11   11.70
  -3  15 -15   76.71   12.13
  -3 -15 -15   70.34   11.33
  -1  15  15   85.93   11.80
  -1  15 -15   75.96   11.45
  -1  15  15   91.94   12.88
   1  15  15   82.76   12.41
  -2  16  15   -2.02    3.16
  -2  16 -15   -1.99    3.63
   0  16  15    3.50    3.51
  -8   0 -16  117.83   14.93
  -6   0 -16  127.54   13.27
  -6   0  16  144.43   16.14
  -6   0 -16  139.38   15.35
  -4   0 -16  331.11   21.74
  -4   0  16  311.70   22.18
  -4   0 -16  350.29   22.80
  -2   0 -16   66.65   10.11
  -2   0 -16   71.35    9.37
   0   0 -16  614.28   31.55
   0   0 -16  630.38   25.28
   2   0 -16   98.35   12.92
   4   0 -16  352.14   25.43
   6   0 -16  145.27   16.77
  -7   1 -16   16.50    4.66
  -7  -1 -16   17.37    5.88
  -7   1  16   18.42    5.87
  -7   1 -16   14.15    4.98
  -5  -1 -16   43.78    7.63
  -5   1 -16   44.92    8.01
  -5   1  16   44.27    8.63
  -5  -1 -16   41.97    8.09
  -5   1 -16   46.41    8.22
  -3  -1 -16   18.37    5.19
  -3   1 -16   26.35    7.06
  -3   1  16   23.18    6.26
  -3  -1 -16   18.88    4.95
  -3   1 -16   19.07    5.29
  -1  -1 -16   27.57    6.96
  -1   1 -16   16.05    4.75
  -1  -1 -16   22.17    4.99
  -1   1 -16   12.95    3.69
   1  -1 -16   10.43    3.93
   1   1 -16   21.37    6.59
   1   1 -16   14.95    3.79
   3  -1 -16   20.79    6.06
   3   1 -16   23.14    5.92
   5  -1 -16   44.38    9.01
   5   1 -16   33.31    7.86
  -8   2 -16   92.56   13.39
  -8  -2 -16  102.44   13.76
  -6  -2 -16   57.35    8.79
  -6   2 -16   50.21    8.48
  -6  -2 -16   57.06    9.84
  -6   2  16   40.44    8.46
  -6   2 -16   54.06    9.85
  -4  -2 -16   35.03    7.31
  -4   2 -16   41.50    7.77
  -4  -2 -16   34.41    7.44
  -4   2  16   35.00    7.53
  -4   2 -16   36.15    7.06
  -2  -2 -16   36.72    7.46
  -2   2 -16   31.59    7.25
  -2  -2 -16   32.59    6.64
  -2   2  16   31.48    7.32
  -2   2 -16   32.51    6.44
   0  -2 -16   90.48   12.08
   0   2 -16   81.67   11.50
   0   2 -16   81.37    9.35
   0  -2 -16   83.25    9.07
   2  -2 -16   38.15    8.03
   2   2 -16   36.26    7.94
   4  -2 -16   40.24    8.62
   4   2 -16   42.31    8.92
   6  -2 -16   42.29    9.12
   6   2 -16   55.51   10.82
  -7   3 -16   23.58    5.44
  -7  -3 -16   17.73    5.70
  -7   3 -16   16.87    5.75
  -7   3  16   37.99    8.75
  -5   3 -16  127.25   13.70
  -5   3 -16  124.26   14.28
  -5  -3 -16  112.62   12.50
  -5   3  16  127.09   14.62
  -5  -3 -16  126.65   13.93
  -3  -3 -16  114.93   12.96
  -3   3 -16  114.17   13.43
  -3   3 -16  125.44   13.16
  -3   3  16  119.96   13.23
  -3  -3 -16  121.76   12.63
  -1  -3 -16   21.62    6.22
  -1   3 -16   25.12    6.36
  -1   3  16   23.61    5.46
  -1   3 -16   30.22    6.12
  -1  -3 -16   33.26    6.47
   1  -3 -16   28.04    7.11
   1   3 -16   19.27    5.48
   1   3 -16   16.84    4.31
   3   3 -16  116.68   14.43
   3  -3 -16  123.51   14.74
   5   3 -16  121.60   15.00
   5  -3 -16  143.91   16.44
  -8  -4 -16   29.86    7.57
  -6   4 -16    3.23    2.60
  -6   4 -16    0.25    3.34
  -6   4  16    3.25    2.73
  -6  -4 -16    0.52    2.27
  -4  -4 -16    3.74    3.02
  -4   4 -16   -0.54    2.09
  -4   4  16    6.14    3.65
  -4   4 -16    3.60    2.74
  -4  -4 -16    0.50    2.20
  -2  -4 -16   11.25    4.69
  -2   4 -16    9.39    3.46
  -2   4  16   11.29    3.57
  -2   4 -16   13.64    4.47
  -2  -4 -16   13.02    3.95
   0  -4 -16   -0.53    1.85
   0   4 -16    3.10    3.01
   0   4  16    5.28    2.76
   0   4 -16    5.41    2.10
   0  -4 -16    4.05    2.11
   2  -4 -16   12.90    5.25
   2   4 -16   14.31    4.74
   4   4 -16    3.55    2.72
  -7   5 -16    8.15    4.02
  -7   5 -16   11.27    5.21
  -7   5  16   10.82    4.61
  -7  -5 -16    6.43    3.74
  -5   5 -16   53.99    9.31
  -5   5 -16   58.89   10.03
  -5   5  16   58.32   10.01
  -5  -5 -16   61.54   10.06
  -3   5 -16   69.18   10.96
  -3   5 -16   68.57   10.10
  -3   5  16   48.55    8.35
  -3  -5 -16   65.25    9.71
  -1   5 -16    3.06    3.24
  -1   5  16    6.80    3.25
  -1   5 -16    3.77    2.87
  -1  -5 -16    4.88    2.71
   1   5 -16    4.81    3.21
   1   5  16    7.30    3.49
   1   5 -16    6.62    3.56
   3   5 -16   50.78    9.73
   5   5 -16   69.20   11.64
  -6   6 -16   91.52   12.19
  -6   6 -16  118.31   14.58
  -6   6  16  110.49   14.23
  -6  -6 -16   93.17   12.50
  -4   6 -16  132.88   14.84
  -4   6 -16  145.18   15.55
  -4   6  16  139.83   15.20
  -4  -6 -16  152.81   15.22
  -2   6 -16  133.05   15.12
  -2   6 -16  134.75   14.50
  -2   6  16  123.63   13.10
  -2  -6 -16  152.59   13.81
   0   6 -16  153.00   16.63
   0   6 -16  129.21   12.80
   0   6  16  140.86   13.05
   2   6 -16  144.83   16.55
   4   6 -16  120.75   15.18
  -7   7 -16    4.43    3.53
  -7  -7 -16    3.61    3.54
  -5   7 -16   11.15    5.42
  -5   7 -16   13.46    4.89
  -5   7  16   17.26    5.81
  -5  -7 -16   12.94    4.38
  -3   7 -16   29.42    7.30
  -3   7 -16   30.16    7.38
  -3   7  16   26.31    6.46
  -3  -7 -16   25.05    6.03
  -1   7 -16   -1.46    2.89
  -1   7 -16    2.98    2.88
  -1   7  16    3.16    1.78
  -1  -7 -16    0.63    2.16
   1   7 -16    5.03    3.94
   1   7 -16    5.54    3.14
   3   7 -16   27.61    7.45
  -8   8 -16   69.58   10.61
  -6   8 -16  106.89   13.69
  -6   8  16  110.96   14.56
  -6   8 -16  123.37   15.41
  -6  -8 -16  111.52   14.20
  -4   8 -16  248.78   20.82
  -4   8  16  232.18   19.49
  -4   8 -16  241.03   20.39
  -4  -8 -16  220.50   18.25
  -2   8 -16  127.35   15.11
  -2   8  16  127.47   13.79
  -2   8 -16  124.60   13.85
  -2  -8 -16  136.53   13.35
   0   8 -16  295.22   23.17
   0   8  16  286.12   18.79
   0   8 -16  290.21   19.90
   2   8 -16  150.98   17.12
  -7   9 -16   17.57    6.11
  -5   9 -16    9.32    4.68
  -5   9  16   13.39    5.00
  -5   9 -16    9.79    4.93
  -5  -9 -16    8.96    3.91
  -3   9 -16    7.96    4.29
  -3   9  16    3.86    3.01
  -3   9 -16    6.04    4.09
  -3  -9 -16    9.23    4.09
  -1   9 -16   15.37    5.35
  -1   9  16    9.70    3.88
   1   9 -16   12.17    5.11
  -6  10 -16   37.65    8.83
  -6 -10 -16   35.36    8.30
  -4  10 -16   70.95   11.67
  -4  10  16   69.62   11.13
  -4  10 -16   72.27   11.65
  -4 -10 -16   72.22   10.94
  -2  10 -16   47.27    9.54
  -2  10  16   43.74    8.27
  -2 -10 -16   49.88    8.36
  -5 -11 -16   16.52    5.96
  -3  11  16   69.56   10.95
  -3 -11 -16   77.63   10.79
  -1  11  16   89.42   11.49
  -4  12  16    1.69    2.98
  -4 -12 -16    0.79    1.52
  -2  12  16    1.53    2.60
  -3  13  16   16.10    5.64
  -2  14 -16   54.14   10.47
   0  14  16   78.80   12.10
  -6   0 -17   -3.26    2.71
  -6   0 -17   -0.67    2.50
  -4   0 -17    2.21    2.40
  -4   0 -17    1.69    2.30
  -2   0 -17   -1.02    2.40
  -2   0 -17    2.30    2.16
   0   0 -17    0.39    2.22
   2   0 -17   -2.64    3.12
  -7  -1 -17  117.91   14.73
  -7   1 -17  111.74   14.85
  -5  -1 -17  228.12   18.68
  -5   1 -17  235.08   18.81
  -5   1  17  237.25   20.68
  -5   1 -17  234.90   19.71
  -5  -1 -17  242.41   19.86
  -3  -1 -17   93.33   12.38
  -3   1 -17   89.18   11.91
  -3   1 -17  109.60   12.67
  -3  -1 -17  101.54   11.99
  -1  -1 -17  441.95   27.42
  -1   1 -17  424.38   27.02
  -1  -1 -17  436.83   22.80
  -1   1 -17  441.38   23.22
   1  -1 -17  425.59   27.60
   1   1 -17  402.76   27.04
   3  -1 -17  105.14   14.08
   3   1 -17  110.74   14.72
  -6   2 -17   17.62    5.80
  -6  -2 -17   15.24    5.07
  -6   2  17   26.02    7.12
  -6   2 -17   20.10    6.15
  -4  -2 -17   26.40    6.93
  -4   2 -17   17.84    5.57
  -4  -2 -17   21.92    5.93
  -4   2  17   20.86    5.89
  -4   2 -17   19.80    5.94
  -2  -2 -17    7.15    4.31
  -2   2 -17   14.94    5.21
  -2   2 -17    8.27    3.04
  -2   2  17    6.36    2.58
  -2  -2 -17   11.98    3.64
   0  -2 -17    7.75    4.63
   0   2 -17    2.07    2.50
   2  -2 -17    6.39    4.59
   2   2 -17    3.43    2.07
  -7  -3 -17   56.53   10.14
  -5  -3 -17   10.30    4.18
  -5   3 -17    4.23    2.48
  -5   3  17    6.34    2.68
  -5   3 -17    4.62    2.01
  -5  -3 -17    6.81    3.01
  -3  -3 -17   40.71    8.17
  -3   3 -17   42.52    8.56
  -3   3  17   48.77    8.80
  -3   3 -17   47.90    8.42
  -3  -3 -17   40.39    7.62
  -1  -3 -17   43.61    9.18
  -1   3 -17   41.86    8.38
  -1   3  17   55.09    8.77
  -1   3 -17   44.71    7.95
   1  -3 -17   54.48    9.85
   1   3 -17   42.24    8.74
   3  -3 -17   58.70   10.67
   3   3 -17   39.14    8.63
  -6   4 -17    3.57    3.23
  -6   4  17    9.09    4.87
  -6   4 -17    8.73    4.60
  -6  -4 -17   14.94    5.63
  -4  -4 -17   18.16    5.42
  -4   4 -17   14.91    4.98
  -4   4  17   15.52    4.90
  -4   4 -17   17.24    5.19
  -4  -4 -17   17.89    5.70
  -2  -4 -17    3.23    2.84
  -2   4 -17    0.82    2.41
  -2   4  17    3.17    2.41
  -2   4 -17    2.53    3.48
  -2  -4 -17    1.95    2.18
   0  -4 -17   -1.56    2.47
   0   4 -17   -2.83    3.28
   0   4  17   -1.40    1.88
   2  -4 -17    1.95    3.81
   2   4 -17    1.47    3.22
  -7   5 -17    1.33    2.17
  -5   5 -17   40.26    8.40
  -5   5  17   49.68    9.28
  -5   5 -17   42.15    8.94
  -5  -5 -17   40.59    8.67
  -3   5 -17   19.74    5.99
  -3   5  17   16.56    5.72
  -3   5 -17   12.45    5.21
  -3  -5 -17   15.03    4.58
  -1   5 -17   64.38   11.13
  -1   5 -17   59.37    8.89
  -1   5  17   64.13    9.49
   1   5 -17   66.55   11.48
  -6   6 -17    4.60    3.58
  -6  -6 -17    2.56    2.53
  -4   6 -17   29.06    7.82
  -4   6 -17   22.03    6.25
  -4   6  17   23.56    6.62
  -4  -6 -17   20.54    5.87
  -2   6 -17    6.68    3.72
  -2   6  17    6.68    2.66
  -2   6 -17    0.22    3.11
   0   6 -17   10.48    4.66
   0   6 -17    7.32    3.53
  -7   7 -17  112.73   14.29
  -5   7 -17   72.33   11.38
  -5   7 -17   81.69   12.25
  -5   7  17   85.00   12.78
  -5  -7 -17   66.00   10.78
  -3   7 -17  122.25   15.04
  -3   7 -17  118.87   14.34
  -3   7  17  123.88   14.23
  -3  -7 -17  124.56   13.56
  -1   7 -17  204.68   20.22
  -1   7 -17  217.96   17.99
  -1   7  17  242.67   18.62
  -6   8 -17    0.52    1.80
  -6  -8 -17   -0.13    2.08
  -4   8 -17    1.21    3.20
  -4   8  17    3.74    3.24
  -4  -8 -17    2.71    3.39
  -2   8 -17   -0.25    2.82
  -2   8  17    0.75    1.74
   0   8 -17    6.65    3.61
  -5  -9 -17   87.46   12.80
  -3   9  17   79.86   11.83
  -3   9 -17   91.70   12.85
  -1   9 -17  226.06   18.84
  -4  10  17   21.25    6.51
  -2  10  17   -1.25    2.70
  -2  10 -17   -1.45    3.07
   0  10 -17   21.44    5.80
  -3  11  17   -0.09    2.13
  -6   0 -18  279.27   23.10
  -4   0 -18  184.09   17.89
  -4   0 -18  181.40   17.26
  -2   0 -18  401.32   26.76
   0   0 -18   73.40   11.82
  -5  -1 -18    3.59    3.39
  -5   1 -18    2.14    1.78
  -5  -1 -18    7.57    3.66
  -5   1 -18    6.75    3.64
  -3  -1 -18   16.67    5.78
  -3   1 -18    9.54    4.33
  -3  -1 -18   11.98    4.43
  -3   1 -18   19.08    5.89
  -1  -1 -18    0.41    2.90
  -1   1 -18    1.44    2.41
  -6  -2 -18   99.00   13.75
  -4  -2 -18   69.59   10.83
  -4   2 -18   75.02   11.41
  -4   2 -18   65.87   10.72
  -4   2  18   75.16   11.51
  -4  -2 -18   74.87   10.85
  -2  -2 -18   82.49   12.26
  -2   2 -18   85.90   12.55
   0  -2 -18   42.96    8.94
  -5   3 -18    2.89    2.09
  -5   3 -18    0.70    2.68
  -5  -3 -18    4.16    3.42
  -3  -3 -18    8.03    3.70
  -3   3 -18    2.11    2.53
  -3   3  18   10.30    4.39
  -3   3 -18    6.99    4.13
  -1  -3 -18   -4.74    3.33
  -6  -4 -18    8.05    4.50
  -4   4 -18   -0.74    1.79
  -4   4  18   -1.41    3.18
  -4   4 -18   -0.23    2.14
  -4  -4 -18    3.06    2.75
  -2   4  18   27.01    6.79
   0  -4 -18   20.37    6.93
  -5   5 -18   16.85    5.54
  -5  -5 -18   15.02    5.07
  -3   5  18    3.70    2.28
  -3   5 -18    4.74    3.32
  -4   6  18   23.72    6.28
  -4   6 -18   24.23    6.92
  -2   6 -18   88.85   12.04
  -3   7  18    2.30    2.94
  -3   7 -18    3.28    3.84
  -2   8 -18  171.26   17.19
   0   0   0    0.00    0.00


TITL pvl819_auto in Aea2
REM Aea2 (#41, found as C2ce in -cba setting)
CELL 0.71073  14.118389  19.039680  13.863002  90.0000  90.0000  90.0000
ZERR   42.00   0.000436   0.000790   0.000470   0.0000   0.0000   0.0000
LATT -5
SYMM -x,-y, z
SYMM  x+1/2,-y+1/2, z
SYMM -x+1/2, y+1/2, z
SFAC C H N O S Zn
UNIT 42.00 42.00 42.00 42.00 42.00 42.00
REM  CrysAlisPro recorded range (K): Min=170.0; max=170.0; aver:170.0
TEMP -103
TREF
HKLF 4
END
_computing_structure_solution     'SHELXT 2018/2 (Sheldrick, 2018)'
;
_shelx_hkl_checksum   69667

