 
data_mP_a
 
_audit_creation_method            'SHELXL-2018/3'
_shelx_SHELXL_version_number      '2018/3'
_chemical_name_systematic         ?
_chemical_name_common             ?
_chemical_melting_point           ?
_chemical_formula_moiety          ?
_chemical_formula_sum
 'C H N O S Zn' 
_chemical_formula_weight          140.46

loop_
 _atom_type_symbol
 _atom_type_description
 _atom_type_scat_dispersion_real
 _atom_type_scat_dispersion_imag
 _atom_type_scat_source
 'C'  'C'   0.0033   0.0016
 'International Tables Vol C Tables 4.2.6.8 and 6.1.1.4'
 'H'  'H'   0.0000   0.0000
 'International Tables Vol C Tables 4.2.6.8 and 6.1.1.4'
 'N'  'N'   0.0061   0.0033
 'International Tables Vol C Tables 4.2.6.8 and 6.1.1.4'
 'O'  'O'   0.0106   0.0060
 'International Tables Vol C Tables 4.2.6.8 and 6.1.1.4'
 'S'  'S'   0.1246   0.1234
 'International Tables Vol C Tables 4.2.6.8 and 6.1.1.4'
 'Zn'  'Zn'   0.2839   1.4301
 'International Tables Vol C Tables 4.2.6.8 and 6.1.1.4'
 
_space_group_crystal_system       monoclinic
_space_group_IT_number            14
_space_group_name_H-M_alt         'P 21/c'
_space_group_name_Hall            '-P 2ybc'
 
_shelx_space_group_comment
;
The symmetry employed for this shelxl refinement is uniquely defined
by the following loop, which should always be used as a source of
symmetry information in preference to the above space-group names.
They are only intended as comments.
;
 
loop_
 _space_group_symop_operation_xyz
 'x, y, z'
 '-x, y+1/2, -z+1/2'
 '-x, -y, -z'
 'x, -y-1/2, z-1/2'
 
_cell_length_a                    16.509(12)
_cell_length_b                    13.604(9)
_cell_length_c                    15.748(11)
_cell_angle_alpha                 90
_cell_angle_beta                  115.837(18)
_cell_angle_gamma                 90
_cell_volume                      3183(4)
_cell_formula_units_Z             30
_cell_measurement_temperature     150(2)
_cell_measurement_reflns_used     ?
_cell_measurement_theta_min       ?
_cell_measurement_theta_max       ?
 
_exptl_crystal_description        ?
_exptl_crystal_colour             ?
_exptl_crystal_density_meas       ?
_exptl_crystal_density_method     ?
_exptl_crystal_density_diffrn     2.198          
_exptl_crystal_F_000              2040
_exptl_transmission_factor_min    ?
_exptl_transmission_factor_max    ?
_exptl_crystal_size_max           ?
_exptl_crystal_size_mid           ?
_exptl_crystal_size_min           ?
_exptl_absorpt_coefficient_mu     6.084
_shelx_estimated_absorpt_T_min    ?
_shelx_estimated_absorpt_T_max    ?
_exptl_absorpt_correction_type    ?
_exptl_absorpt_correction_T_min   ?
_exptl_absorpt_correction_T_max   ?
_exptl_absorpt_process_details    ?
_exptl_absorpt_special_details    ?
_diffrn_ambient_temperature       150(2)
_diffrn_radiation_wavelength      0.71073
_diffrn_radiation_type            MoK\a
_diffrn_source                    ?
_diffrn_measurement_device_type   ?
_diffrn_measurement_method        ?
_diffrn_detector_area_resol_mean  ?
_diffrn_reflns_number             12063
_diffrn_reflns_av_unetI/netI      0.1415
_diffrn_reflns_av_R_equivalents   0.1230
_diffrn_reflns_limit_h_min        -16
_diffrn_reflns_limit_h_max        16
_diffrn_reflns_limit_k_min        -12
_diffrn_reflns_limit_k_max        13
_diffrn_reflns_limit_l_min        -15
_diffrn_reflns_limit_l_max        15
_diffrn_reflns_theta_min          2.030
_diffrn_reflns_theta_max          21.338
_diffrn_reflns_theta_full         21.338
_diffrn_measured_fraction_theta_max   0.970
_diffrn_measured_fraction_theta_full  0.970
_diffrn_reflns_Laue_measured_fraction_max    0.970
_diffrn_reflns_Laue_measured_fraction_full   0.970
_diffrn_reflns_point_group_measured_fraction_max   0.970
_diffrn_reflns_point_group_measured_fraction_full  0.970
_reflns_number_total              3474
_reflns_number_gt                 1956
_reflns_threshold_expression      'I > 2\s(I)'
_reflns_Friedel_coverage          0.000
_reflns_Friedel_fraction_max      .
_reflns_Friedel_fraction_full     .
 
_reflns_special_details
;
 Reflections were merged by SHELXL according to the crystal
 class for the calculation of statistics and refinement.
 
 _reflns_Friedel_fraction is defined as the number of unique
 Friedel pairs measured divided by the number that would be
 possible theoretically, ignoring centric projections and
 systematic absences.
;
 
_computing_data_collection        ?
_computing_cell_refinement        ?
_computing_data_reduction         ?
_computing_structure_solution     'SHELXT 2018/2 (Sheldrick, 2018)'
_computing_structure_refinement 'SHELXL-2018/3 (Sheldrick, 2018)'
_computing_molecular_graphics     ?
_computing_publication_material   ?
_refine_special_details           ?
_refine_ls_structure_factor_coef  Fsqd
_refine_ls_matrix_type            full
_refine_ls_weighting_scheme       calc
_refine_ls_weighting_details
'w=1/[\s^2^(Fo^2^)+(0.2000P)^2^] where P=(Fo^2^+2Fc^2^)/3'
_atom_sites_solution_primary      ?
_atom_sites_solution_secondary    ?
_atom_sites_solution_hydrogens    geom
_refine_ls_hydrogen_treatment     constr
_refine_ls_extinction_method      none
_refine_ls_extinction_coef        .
_refine_ls_number_reflns          3474
_refine_ls_number_parameters      422
_refine_ls_number_restraints      0
_refine_ls_R_factor_all           0.1702
_refine_ls_R_factor_gt            0.1116
_refine_ls_wR_factor_ref          0.3536
_refine_ls_wR_factor_gt           0.3018
_refine_ls_goodness_of_fit_ref    1.139
_refine_ls_restrained_S_all       1.139
_refine_ls_shift/su_max           0.013
_refine_ls_shift/su_mean          0.001
 
loop_
 _atom_site_label
 _atom_site_type_symbol
 _atom_site_fract_x
 _atom_site_fract_y
 _atom_site_fract_z
 _atom_site_U_iso_or_equiv
 _atom_site_adp_type
 _atom_site_occupancy
 _atom_site_site_symmetry_order  
 _atom_site_calc_flag
 _atom_site_refinement_flags_posn
 _atom_site_refinement_flags_adp
 _atom_site_refinement_flags_occupancy
 _atom_site_disorder_assembly
 _atom_site_disorder_group
C1 C 0.005(4) 0.151(4) -0.006(4) 0.048(15) Uiso 0.25 1 d . . P . .
C2 C 0.063(2) 0.241(2) -0.026(2) 0.059(8) Uiso 0.5 1 d . . P . .
O1 O 0.004(3) 0.179(3) 0.076(3) 0.077(13) Uiso 0.25 1 d . . P . .
C3 C 0.072(3) 0.216(3) -0.088(3) 0.084(11) Uiso 0.5 1 d . . P . .
Zn01 Zn 0.74953(12) 0.51208(13) 1.08648(11) 0.0525(8) Uani 1 1 d . . . . .
S002 S 0.3721(3) 0.2039(3) 0.9953(3) 0.0734(15) Uani 1 1 d . . . . .
S003 S 0.1779(3) 0.5142(4) 0.6066(3) 0.0730(14) Uani 1 1 d . . . . .
O004 O 0.6996(7) 0.5401(8) 0.9541(6) 0.055(3) Uani 1 1 d . . . . .
O005 O -0.1219(7) 0.5321(8) 0.1676(7) 0.062(3) Uani 1 1 d . . . . .
O006 O 0.5673(7) 0.5117(8) 0.9561(7) 0.058(3) Uani 1 1 d . . . . .
N1 N 0.1768(10) 0.5142(12) 0.2349(10) 0.080(5) Uani 1 1 d . . . . .
N007 N 0.4687(8) 0.5522(8) 0.6639(8) 0.046(3) Uani 1 1 d . . . . .
N008 N 0.2962(9) 0.1088(8) 1.3462(8) 0.047(3) Uani 1 1 d . . . . .
N009 N 0.5503(9) 0.5586(9) 0.6602(8) 0.054(3) Uani 1 1 d . . . . .
N00A N 0.1595(9) 0.5327(8) 0.3115(8) 0.052(3) Uani 1 1 d . . . . .
N00B N 0.1504(9) 0.5172(9) 0.4950(8) 0.057(3) Uani 1 1 d . . . . .
C00C C 0.4790(10) 0.5435(9) 0.7527(9) 0.040(4) Uani 1 1 d . . . . .
H00C H 0.432215 0.539177 0.772367 0.048 Uiso 1 1 calc R U . . .
N00E N 0.2844(8) 0.5315(10) 0.6503(9) 0.060(4) Uani 1 1 d . . . . .
N00G N 0.4773(10) 0.2297(9) 1.0463(10) 0.070(4) Uani 1 1 d . . . . .
C00I C 0.3886(10) 0.5549(9) 0.5761(9) 0.040(3) Uani 1 1 d . . . . .
O00J O -0.0991(9) 0.4655(12) 0.0531(9) 0.109(5) Uani 1 1 d . . . . .
C00K C 0.5698(10) 0.5420(10) 0.8101(9) 0.043(4) Uani 1 1 d . . . . .
C00L C 0.3172(11) 0.5584(10) 0.4068(11) 0.052(4) Uani 1 1 d . . . . .
H00L H 0.323329 0.567082 0.350042 0.062 Uiso 1 1 calc R U . . .
N00M N 0.3549(10) 0.1880(9) 1.0868(10) 0.069(4) Uani 1 1 d . . . . .
N2 N 0.6609(10) 0.2790(9) 1.1905(10) 0.062(4) Uani 1 1 d . . . . .
N3 N 0.3755(9) 0.1764(9) 1.2804(9) 0.061(3) Uani 1 1 d . . . . .
N4 N 0.7260(10) 0.3803(9) 1.1304(9) 0.060(4) Uani 1 1 d . . . . .
C00N C 0.3054(10) 0.5420(9) 0.5738(9) 0.042(4) Uani 1 1 d . . . . .
C00O C 0.6092(11) 0.5522(11) 0.7491(10) 0.052(4) Uani 1 1 d . . . . .
H00O H 0.672454 0.554397 0.769313 0.063 Uiso 1 1 calc R U . . .
C00P C 0.3957(10) 0.5632(9) 0.4937(9) 0.045(4) Uani 1 1 d . . . . .
H00P H 0.452953 0.572233 0.494275 0.053 Uiso 1 1 calc R U . . .
C00Q C 0.3750(12) 0.1123(10) 1.3486(9) 0.049(4) Uani 1 1 d . . . . .
H00Q H 0.425680 0.076153 1.391100 0.059 Uiso 1 1 calc R U . . .
C00R C 0.2359(13) 0.5424(11) 0.4010(10) 0.059(5) Uani 1 1 d . . . . .
C00S C 0.2252(12) 0.5343(11) 0.4866(10) 0.053(4) Uani 1 1 d . . . . .
C00T C 0.5052(13) 0.2300(10) 1.1416(12) 0.054(4) Uani 1 1 d . . . . .
C00U C 0.6116(12) 0.5326(11) 0.9130(11) 0.053(4) Uani 1 1 d . . . . .
C00V C 0.0716(11) 0.5360(11) 0.2873(10) 0.056(4) Uani 1 1 d . . . . .
H00V H 0.044730 0.548642 0.328649 0.067 Uiso 1 1 calc R U . . .
C00W C 0.5375(12) 0.2046(10) 1.3272(12) 0.059(4) Uani 1 1 d . . . . .
H00W H 0.551490 0.192711 1.391592 0.071 Uiso 1 1 calc R U . . .
C00Y C 0.0249(12) 0.5174(11) 0.1893(11) 0.059(4) Uani 1 1 d . . . . .
C00Z C -0.0727(12) 0.5030(12) 0.1302(12) 0.061(4) Uani 1 1 d . . . . .
C010 C 0.4334(12) 0.2043(10) 1.1630(12) 0.055(4) Uani 1 1 d . . . . .
C011 C 0.4455(12) 0.1958(10) 1.2559(12) 0.059(4) Uani 1 1 d . . . . .
C012 C 0.6507(11) 0.3526(12) 1.1264(11) 0.058(4) Uani 1 1 d . . . . .
H012 H 0.594319 0.379383 1.084168 0.070 Uiso 1 1 calc R U . . .
C013 C 0.6047(11) 0.2303(10) 1.3020(13) 0.055(4) Uani 1 1 d . . . . .
H013 H 0.664019 0.238400 1.350423 0.066 Uiso 1 1 calc R U . . .
C014 C 0.5907(12) 0.2439(11) 1.2151(14) 0.058(4) Uani 1 1 d . . . . .
C015 C 0.7898(12) 0.3206(13) 1.1957(12) 0.069(5) Uani 1 1 d . . . . .
H015 H 0.852045 0.321852 1.210637 0.082 Uiso 1 1 calc R U . . .
C016 C 0.2914(12) 0.2138(12) 1.2335(12) 0.066(5) Uani 1 1 d . . . . .
H016 H 0.271396 0.260423 1.183572 0.079 Uiso 1 1 calc R U . . .
C017 C 0.2414(12) 0.1705(12) 1.2731(12) 0.068(5) Uani 1 1 d . . . . .
H017 H 0.178931 0.180891 1.253743 0.082 Uiso 1 1 calc R U . . .
C018 C 0.0958(13) 0.5049(16) 0.1628(12) 0.094(7) Uani 1 1 d . . . . .
H018 H 0.086635 0.491232 0.100089 0.113 Uiso 1 1 calc R U . . .
C019 C 0.7511(12) 0.2587(13) 1.2366(12) 0.065(4) Uani 1 1 d . . . . .
H019 H 0.780315 0.212269 1.285605 0.078 Uiso 1 1 calc R U . . .
 
loop_
 _atom_site_aniso_label
 _atom_site_aniso_U_11
 _atom_site_aniso_U_22
 _atom_site_aniso_U_33
 _atom_site_aniso_U_23
 _atom_site_aniso_U_13
 _atom_site_aniso_U_12
Zn01 0.0554(13) 0.0680(13) 0.0330(11) -0.0027(8) 0.0183(9) -0.0040(9)
S002 0.089(4) 0.063(3) 0.072(3) 0.012(2) 0.039(3) -0.002(2)
S003 0.055(3) 0.116(4) 0.043(3) 0.006(2) 0.018(2) 0.008(3)
O004 0.059(8) 0.085(7) 0.018(5) -0.008(5) 0.014(5) -0.013(6)
O005 0.055(7) 0.087(8) 0.038(6) -0.003(6) 0.013(6) -0.019(6)
O006 0.056(7) 0.080(8) 0.040(6) -0.004(5) 0.023(6) -0.014(6)
N1 0.061(10) 0.139(14) 0.039(8) -0.021(8) 0.019(8) 0.011(9)
N007 0.051(9) 0.041(7) 0.047(9) 0.001(6) 0.022(7) 0.004(6)
N008 0.049(8) 0.055(8) 0.039(7) -0.002(6) 0.020(6) 0.003(6)
N009 0.054(9) 0.063(8) 0.042(8) -0.008(6) 0.017(7) 0.004(6)
N00A 0.044(9) 0.059(8) 0.048(9) -0.007(6) 0.016(7) -0.004(6)
N00B 0.054(9) 0.070(9) 0.039(8) -0.003(6) 0.013(7) -0.007(7)
C00C 0.061(11) 0.035(8) 0.023(8) 0.000(6) 0.017(8) 0.006(7)
N00E 0.038(8) 0.083(9) 0.052(8) 0.008(7) 0.012(7) 0.005(7)
N00G 0.094(12) 0.039(7) 0.077(11) 0.000(7) 0.039(9) 0.005(7)
C00I 0.044(10) 0.043(8) 0.021(8) -0.006(6) 0.002(7) -0.001(7)
O00J 0.075(10) 0.175(14) 0.058(9) -0.061(9) 0.012(7) -0.001(9)
C00K 0.050(11) 0.044(8) 0.027(9) 0.001(6) 0.010(8) 0.008(7)
C00L 0.054(11) 0.054(9) 0.050(10) -0.001(7) 0.024(9) 0.006(8)
N00M 0.092(12) 0.052(8) 0.070(10) 0.003(7) 0.043(10) 0.000(7)
N2 0.080(12) 0.043(7) 0.072(9) -0.007(7) 0.041(9) 0.001(7)
N3 0.066(10) 0.057(8) 0.069(9) 0.006(7) 0.038(8) 0.004(7)
N4 0.063(10) 0.065(9) 0.060(9) -0.014(7) 0.034(8) -0.019(8)
C00N 0.050(11) 0.038(8) 0.033(9) -0.009(6) 0.014(8) -0.003(7)
C00O 0.058(10) 0.060(10) 0.028(9) 0.003(7) 0.010(9) 0.011(8)
C00P 0.052(10) 0.033(8) 0.033(9) 0.000(6) 0.004(8) 0.004(6)
C00Q 0.064(12) 0.043(9) 0.036(9) 0.003(7) 0.017(8) -0.004(8)
C00R 0.079(15) 0.046(9) 0.034(10) -0.003(7) 0.008(10) 0.006(8)
C00S 0.064(12) 0.065(10) 0.026(9) 0.005(7) 0.017(8) 0.005(8)
C00T 0.083(13) 0.041(9) 0.062(12) 0.002(8) 0.053(12) 0.004(8)
C00U 0.042(11) 0.057(10) 0.044(10) -0.010(8) 0.003(9) -0.004(8)
C00V 0.058(13) 0.059(10) 0.038(10) -0.006(7) 0.010(8) 0.000(8)
C00W 0.092(14) 0.033(8) 0.064(11) 0.005(7) 0.044(12) 0.002(8)
C00Y 0.063(12) 0.068(10) 0.037(10) -0.010(8) 0.013(9) 0.004(8)
C00Z 0.067(13) 0.070(11) 0.045(11) 0.000(9) 0.024(10) -0.006(9)
C010 0.078(13) 0.034(8) 0.053(11) 0.004(7) 0.027(11) 0.003(8)
C011 0.070(13) 0.035(8) 0.072(13) 0.011(8) 0.030(11) 0.008(8)
C012 0.055(12) 0.059(10) 0.055(10) -0.001(9) 0.020(9) -0.004(9)
C013 0.060(11) 0.044(9) 0.064(12) 0.006(8) 0.030(10) 0.012(8)
C014 0.063(13) 0.045(9) 0.082(14) 0.005(9) 0.047(12) 0.006(8)
C015 0.066(12) 0.069(11) 0.066(11) -0.003(10) 0.024(11) 0.017(10)
C016 0.064(13) 0.067(11) 0.066(11) 0.021(9) 0.027(10) 0.017(9)
C017 0.076(12) 0.066(11) 0.079(12) 0.013(10) 0.048(11) 0.023(10)
C018 0.066(14) 0.18(2) 0.032(11) -0.023(11) 0.016(11) 0.005(13)
C019 0.065(13) 0.067(11) 0.064(11) 0.002(9) 0.028(10) 0.017(10)
 
_geom_special_details
;
 All esds (except the esd in the dihedral angle between two l.s. planes)
 are estimated using the full covariance matrix.  The cell esds are taken
 into account individually in the estimation of esds in distances, angles
 and torsion angles; correlations between esds in cell parameters are only
 used when they are defined by crystal symmetry.  An approximate (isotropic)
 treatment of cell esds is used for estimating esds involving l.s. planes.
;
 
loop_
 _geom_bond_atom_site_label_1
 _geom_bond_atom_site_label_2
 _geom_bond_distance
 _geom_bond_site_symmetry_2
 _geom_bond_publ_flag
C1 O1 1.35(6) . ?
C1 C2 1.66(6) . ?
C2 C3 1.10(4) . ?
Zn01 O004 1.917(9) . ?
Zn01 O005 1.962(11) 1_656 ?
Zn01 N4 2.020(13) . ?
Zn01 N008 2.031(12) 2_657 ?
S002 N00G 1.603(15) . ?
S002 N00M 1.600(14) . ?
S003 N00E 1.603(13) . ?
S003 N00B 1.613(13) . ?
O004 C00U 1.311(18) . ?
O005 C00Z 1.26(2) . ?
O006 C00U 1.229(19) . ?
N1 C018 1.33(2) . ?
N1 N00A 1.378(18) . ?
N007 C00C 1.339(16) . ?
N007 N009 1.376(16) . ?
N007 C00I 1.439(17) . ?
N008 C00Q 1.285(18) . ?
N008 C017 1.394(19) . ?
N009 C00O 1.314(18) . ?
N00A C00V 1.331(19) . ?
N00A C00R 1.43(2) . ?
N00B C00S 1.32(2) . ?
C00C C00K 1.373(19) . ?
N00E C00N 1.400(18) . ?
N00G C00T 1.365(19) . ?
C00I C00P 1.357(19) . ?
C00I C00N 1.369(19) . ?
O00J C00Z 1.209(19) . ?
C00K C00O 1.38(2) . ?
C00K C00U 1.47(2) . ?
C00L C00R 1.32(2) . ?
C00L C00P 1.42(2) . ?
N00M C010 1.35(2) . ?
N2 C012 1.379(19) . ?
N2 C019 1.37(2) . ?
N2 C014 1.45(2) . ?
N3 C016 1.357(19) . ?
N3 C00Q 1.386(17) . ?
N3 C011 1.39(2) . ?
N4 C012 1.272(18) . ?
N4 C015 1.37(2) . ?
C00N C00S 1.44(2) . ?
C00R C00S 1.44(2) . ?
C00T C014 1.39(2) . ?
C00T C010 1.41(2) . ?
C00V C00Y 1.41(2) . ?
C00W C013 1.38(2) . ?
C00W C011 1.45(2) . ?
C00Y C018 1.41(2) . ?
C00Y C00Z 1.48(2) . ?
C010 C011 1.39(2) . ?
C013 C014 1.30(2) . ?
C015 C019 1.37(2) . ?
C016 C017 1.37(2) . ?
 
loop_
 _geom_angle_atom_site_label_1
 _geom_angle_atom_site_label_2
 _geom_angle_atom_site_label_3
 _geom_angle
 _geom_angle_site_symmetry_1
 _geom_angle_site_symmetry_3
 _geom_angle_publ_flag
O1 C1 C2 103(4) . . ?
C3 C2 C1 105(4) . . ?
O004 Zn01 O005 120.8(5) . 1_656 ?
O004 Zn01 N4 119.6(5) . . ?
O005 Zn01 N4 102.4(5) 1_656 . ?
O004 Zn01 N008 111.0(5) . 2_657 ?
O005 Zn01 N008 96.5(5) 1_656 2_657 ?
N4 Zn01 N008 103.0(5) . 2_657 ?
N00G S002 N00M 99.1(8) . . ?
N00E S003 N00B 101.5(7) . . ?
C00U O004 Zn01 112.3(10) . . ?
C00Z O005 Zn01 112.8(10) . 1_454 ?
C018 N1 N00A 104.5(14) . . ?
C00C N007 N009 111.7(12) . . ?
C00C N007 C00I 130.6(13) . . ?
N009 N007 C00I 117.6(11) . . ?
C00Q N008 C017 106.6(13) . . ?
C00Q N008 Zn01 127.7(10) . 2_647 ?
C017 N008 Zn01 124.5(11) . 2_647 ?
C00O N009 N007 103.5(12) . . ?
C00V N00A N1 111.8(12) . . ?
C00V N00A C00R 131.5(14) . . ?
N1 N00A C00R 116.7(14) . . ?
C00S N00B S003 106.4(10) . . ?
N007 C00C C00K 107.0(13) . . ?
C00N N00E S003 106.4(10) . . ?
C00T N00G S002 108.9(12) . . ?
C00P C00I C00N 119.3(13) . . ?
C00P C00I N007 119.7(14) . . ?
C00N C00I N007 120.9(12) . . ?
C00C C00K C00O 104.6(12) . . ?
C00C C00K C00U 125.6(14) . . ?
C00O C00K C00U 129.9(15) . . ?
C00R C00L C00P 123.2(14) . . ?
C010 N00M S002 107.5(12) . . ?
C012 N2 C019 106.9(14) . . ?
C012 N2 C014 125.3(15) . . ?
C019 N2 C014 126.9(15) . . ?
C016 N3 C00Q 107.9(14) . . ?
C016 N3 C011 123.6(14) . . ?
C00Q N3 C011 128.3(14) . . ?
C012 N4 C015 106.0(14) . . ?
C012 N4 Zn01 125.1(12) . . ?
C015 N4 Zn01 125.6(12) . . ?
C00I C00N N00E 127.7(12) . . ?
C00I C00N C00S 122.1(13) . . ?
N00E C00N C00S 110.2(13) . . ?
N009 C00O C00K 113.1(14) . . ?
C00I C00P C00L 119.7(15) . . ?
N008 C00Q N3 110.4(14) . . ?
C00L C00R N00A 121.1(15) . . ?
C00L C00R C00S 118.9(15) . . ?
N00A C00R C00S 120.1(16) . . ?
N00B C00S C00R 127.6(15) . . ?
N00B C00S C00N 115.5(13) . . ?
C00R C00S C00N 116.9(15) . . ?
N00G C00T C014 130.4(15) . . ?
N00G C00T C010 110.2(16) . . ?
C014 C00T C010 119.2(15) . . ?
O006 C00U O004 123.0(14) . . ?
O006 C00U C00K 121.6(15) . . ?
O004 C00U C00K 115.2(16) . . ?
N00A C00V C00Y 108.3(14) . . ?
C013 C00W C011 120.1(15) . . ?
C018 C00Y C00V 102.5(15) . . ?
C018 C00Y C00Z 127.8(15) . . ?
C00V C00Y C00Z 129.4(16) . . ?
O00J C00Z O005 125.4(17) . . ?
O00J C00Z C00Y 120.3(17) . . ?
O005 C00Z C00Y 114.3(15) . . ?
N00M C010 C011 124.3(16) . . ?
N00M C010 C00T 114.3(15) . . ?
C011 C010 C00T 121.4(17) . . ?
N3 C011 C010 123.4(16) . . ?
N3 C011 C00W 121.1(15) . . ?
C010 C011 C00W 115.5(16) . . ?
N4 C012 N2 111.9(15) . . ?
C014 C013 C00W 123.0(17) . . ?
C013 C014 C00T 120.4(15) . . ?
C013 C014 N2 122.2(17) . . ?
C00T C014 N2 117.3(15) . . ?
C019 C015 N4 110.6(16) . . ?
N3 C016 C017 105.6(14) . . ?
C016 C017 N008 109.5(15) . . ?
N1 C018 C00Y 112.9(14) . . ?
C015 C019 N2 104.3(15) . . ?
 
_refine_diff_density_max    2.803
_refine_diff_density_min   -0.634
_refine_diff_density_rms    0.173

_shelx_res_file
;
TITL mP_a.res in P2(1)/c
    mP_a.res
    created by SHELXL-2018/3 at 14:18:01 on 15-Apr-2022
REM Old TITL mP in P2(1)/c
REM SHELXT solution in P2(1)/c: R1 0.197, Rweak 0.009, Alpha 0.048
REM <I/s>   0.354 for  191 systematic absences,  Orientation as input
REM Formula found by SHELXT:  C31 N9 O5 S2 Zn
CELL  0.71073  16.5093  13.6045  15.7478   90.000  115.837   90.000
ZERR   30.000   0.0121   0.0088   0.0106    0.000    0.018    0.000
LATT  1
SYMM -X, 1/2+Y, 1/2-Z
SFAC C H N O S ZN
UNIT 30 30 30 30 30 30
ACTA
TEMP -123.150
L.S. 10
BOND
LIST 6
FMAP 2
PLAN 20
WGHT    0.200000
FVAR       0.19963
C1    1    0.005296    0.151114   -0.005953    10.25000    0.04802
C2    1    0.063161    0.240797   -0.026347    10.50000    0.05942
O1    4    0.004126    0.179125    0.075649    10.25000    0.07693
C3    1    0.072348    0.215844   -0.088078    10.50000    0.08420
ZN01  6    0.749531    0.512083    1.086483    11.00000    0.05539    0.06802 =
         0.03296   -0.00267    0.01827   -0.00398
S002  5    0.372059    0.203881    0.995308    11.00000    0.08871    0.06297 =
         0.07232    0.01245    0.03873   -0.00171
S003  5    0.177863    0.514191    0.606602    11.00000    0.05545    0.11625 =
         0.04335    0.00628    0.01792    0.00827
O004  4    0.699568    0.540071    0.954085    11.00000    0.05938    0.08537 =
         0.01812   -0.00801    0.01424   -0.01256
O005  4   -0.121894    0.532057    0.167586    11.00000    0.05450    0.08692 =
         0.03827   -0.00250    0.01323   -0.01909
O006  4    0.567256    0.511689    0.956083    11.00000    0.05580    0.07958 =
         0.03983   -0.00364    0.02301   -0.01449
N1    3    0.176782    0.514210    0.234927    11.00000    0.06118    0.13855 =
         0.03893   -0.02137    0.01934    0.01108
N007  3    0.468727    0.552152    0.663938    11.00000    0.05092    0.04131 =
         0.04659    0.00078    0.02179    0.00376
N008  3    0.296237    0.108761    1.346169    11.00000    0.04854    0.05520 =
         0.03885   -0.00242    0.01982    0.00332
N009  3    0.550271    0.558637    0.660170    11.00000    0.05367    0.06315 =
         0.04221   -0.00787    0.01715    0.00375
N00A  3    0.159471    0.532700    0.311513    11.00000    0.04414    0.05940 =
         0.04750   -0.00729    0.01650   -0.00371
N00B  3    0.150414    0.517199    0.495016    11.00000    0.05362    0.06986 =
         0.03900   -0.00272    0.01317   -0.00673
C00C  1    0.478958    0.543492    0.752733    11.00000    0.06109    0.03477 =
         0.02270    0.00025    0.01665    0.00596
AFIX  43
H00C  2    0.432215    0.539177    0.772367    11.00000   -1.20000
AFIX   0
N00E  3    0.284434    0.531465    0.650342    11.00000    0.03844    0.08280 =
         0.05203    0.00801    0.01243    0.00513
N00G  3    0.477295    0.229719    1.046273    11.00000    0.09441    0.03886 =
         0.07699    0.00020    0.03870    0.00536
C00I  1    0.388550    0.554851    0.576052    11.00000    0.04365    0.04338 =
         0.02098   -0.00623    0.00177   -0.00069
O00J  4   -0.099101    0.465487    0.053127    11.00000    0.07531    0.17500 =
         0.05792   -0.06112    0.01170   -0.00069
C00K  1    0.569835    0.542028    0.810062    11.00000    0.04979    0.04352 =
         0.02701    0.00141    0.00989    0.00782
C00L  1    0.317222    0.558396    0.406831    11.00000    0.05449    0.05386 =
         0.04967   -0.00098    0.02441    0.00630
AFIX  43
H00L  2    0.323329    0.567082    0.350042    11.00000   -1.20000
AFIX   0
N00M  3    0.354890    0.187961    1.086822    11.00000    0.09243    0.05232 =
         0.06963    0.00349    0.04287   -0.00038
N2    3    0.660862    0.279035    1.190459    11.00000    0.08010    0.04312 =
         0.07234   -0.00687    0.04082    0.00056
N3    3    0.375545    0.176391    1.280421    11.00000    0.06553    0.05683 =
         0.06907    0.00588    0.03827    0.00376
N4    3    0.725953    0.380256    1.130435    11.00000    0.06335    0.06518 =
         0.06007   -0.01443    0.03369   -0.01931
C00N  1    0.305406    0.541970    0.573751    11.00000    0.04992    0.03791 =
         0.03320   -0.00916    0.01373   -0.00344
C00O  1    0.609210    0.552232    0.749056    11.00000    0.05807    0.06015 =
         0.02815    0.00251    0.00956    0.01111
AFIX  43
H00O  2    0.672454    0.554397    0.769313    11.00000   -1.20000
AFIX   0
C00P  1    0.395657    0.563203    0.493703    11.00000    0.05189    0.03304 =
         0.03303    0.00031    0.00406    0.00403
AFIX  43
H00P  2    0.452953    0.572233    0.494275    11.00000   -1.20000
AFIX   0
C00Q  1    0.374987    0.112329    1.348584    11.00000    0.06393    0.04314 =
         0.03551    0.00268    0.01706   -0.00407
AFIX  43
H00Q  2    0.425680    0.076153    1.391100    11.00000   -1.20000
AFIX   0
C00R  1    0.235898    0.542397    0.400990    11.00000    0.07884    0.04608 =
         0.03442   -0.00312    0.00820    0.00639
C00S  1    0.225234    0.534281    0.486613    11.00000    0.06386    0.06544 =
         0.02628    0.00540    0.01660    0.00510
C00T  1    0.505204    0.229958    1.141589    11.00000    0.08273    0.04131 =
         0.06196    0.00154    0.05315    0.00436
C00U  1    0.611641    0.532568    0.913032    11.00000    0.04177    0.05680 =
         0.04373   -0.01008    0.00289   -0.00441
C00V  1    0.071566    0.535990    0.287258    11.00000    0.05810    0.05948 =
         0.03772   -0.00595    0.01048   -0.00008
AFIX  43
H00V  2    0.044730    0.548642    0.328649    11.00000   -1.20000
AFIX   0
C00W  1    0.537472    0.204632    1.327237    11.00000    0.09214    0.03283 =
         0.06354    0.00531    0.04440    0.00238
AFIX  43
H00W  2    0.551490    0.192711    1.391592    11.00000   -1.20000
AFIX   0
C00Y  1    0.024905    0.517420    0.189279    11.00000    0.06267    0.06792 =
         0.03710   -0.00981    0.01347    0.00390
C00Z  1   -0.072715    0.502989    0.130155    11.00000    0.06666    0.07018 =
         0.04547   -0.00028    0.02360   -0.00590
C010  1    0.433395    0.204344    1.162951    11.00000    0.07766    0.03392 =
         0.05283    0.00383    0.02660    0.00309
C011  1    0.445498    0.195769    1.255914    11.00000    0.06956    0.03453 =
         0.07231    0.01110    0.02958    0.00759
C012  1    0.650736    0.352577    1.126354    11.00000    0.05549    0.05899 =
         0.05547   -0.00089    0.01995   -0.00380
AFIX  43
H012  2    0.594319    0.379383    1.084168    11.00000   -1.20000
AFIX   0
C013  1    0.604665    0.230298    1.302002    11.00000    0.06050    0.04438 =
         0.06442    0.00648    0.03029    0.01158
AFIX  43
H013  2    0.664019    0.238400    1.350423    11.00000   -1.20000
AFIX   0
C014  1    0.590694    0.243940    1.215140    11.00000    0.06342    0.04528 =
         0.08214    0.00471    0.04679    0.00581
C015  1    0.789756    0.320556    1.195729    11.00000    0.06596    0.06934 =
         0.06608   -0.00286    0.02438    0.01653
AFIX  43
H015  2    0.852045    0.321852    1.210637    11.00000   -1.20000
AFIX   0
C016  1    0.291365    0.213836    1.233493    11.00000    0.06435    0.06690 =
         0.06567    0.02062    0.02693    0.01733
AFIX  43
H016  2    0.271396    0.260423    1.183572    11.00000   -1.20000
AFIX   0
C017  1    0.241397    0.170533    1.273052    11.00000    0.07577    0.06640 =
         0.07869    0.01325    0.04794    0.02266
AFIX  43
H017  2    0.178931    0.180891    1.253743    11.00000   -1.20000
AFIX   0
C018  1    0.095837    0.504885    0.162815    11.00000    0.06612    0.17787 =
         0.03175   -0.02343    0.01616    0.00478
AFIX  43
H018  2    0.086635    0.491232    0.100089    11.00000   -1.20000
AFIX   0
C019  1    0.751137    0.258659    1.236565    11.00000    0.06456    0.06674 =
         0.06373    0.00187    0.02841    0.01681
AFIX  43
H019  2    0.780315    0.212269    1.285605    11.00000   -1.20000
REM #####
REM #####
REM #####
AFIX   0
HKLF 4




REM  mP_a.res in P2(1)/c
REM wR2 = 0.3536, GooF = S = 1.139, Restrained GooF = 1.139 for all data
REM R1 = 0.1116 for 1956 Fo > 4sig(Fo) and 0.1702 for all 3474 data
REM 422 parameters refined using 0 restraints

END

WGHT      0.2000      0.0000

REM Highest difference peak  2.803,  deepest hole -0.634,  1-sigma level  0.173
Q1    1   0.8208  0.2162  1.4734  11.00000  0.05    2.80
Q2    1   0.1549  0.2565 -0.0088  11.00000  0.05    1.12
Q3    1   0.0852  0.3177  0.0310  11.00000  0.05    1.02
Q4    1   0.0661  0.2107 -0.1647  11.00000  0.05    0.96
Q5    1   0.6978  0.1997  1.4544  11.00000  0.05    0.83
Q6    1  -0.0773  0.2264 -0.1043  11.00000  0.05    0.68
Q7    1   0.0459  0.2575  0.0668  11.00000  0.05    0.66
Q8    1  -0.0572  0.2940 -0.0199  11.00000  0.05    0.55
Q9    1   0.0072  0.2334  0.1121  11.00000  0.05    0.51
Q10   1   0.4977  0.2129  1.3004  11.00000  0.05    0.47
Q11   1   0.0233  0.1568  0.0352  11.00000  0.05    0.46
Q12   1   0.2346  0.2141  0.9992  11.00000  0.05    0.43
Q13   1  -0.0210  0.1072 -0.0226  11.00000  0.05    0.36
Q14   1   0.4663  0.0771  1.4106  11.00000  0.05    0.35
Q15   1  -0.0382  0.2241 -0.0049  11.00000  0.05    0.33
Q16   1   0.2861  0.4883  0.6449  11.00000  0.05    0.32
Q17   1   0.4959  0.4961  0.8974  11.00000  0.05    0.32
Q18   1   0.6612  0.5004  1.0340  11.00000  0.05    0.31
Q19   1   0.3908  0.5155  0.4745  11.00000  0.05    0.31
Q20   1   0.0576  0.6857  0.3391  11.00000  0.05    0.31
;
_shelx_res_checksum   97991

_shelx_hkl_file
;
   0   0  -2   17.70    3.80
   0   0   2   22.50    4.00
   0   0  -3    0.30    3.10
   0   0  -4   23.70    5.60
   0   0  -5   -2.00    3.50
   0   0  -6   37.20    7.80
   0   0  -7    0.90    4.40
   0   0  -8   -0.10    4.70
   0   0  -8    0.40    2.10
   0   0  -9   -0.10    2.60
   0   0  -9   -7.90    4.30
   0   0 -10   49.20    9.50
   0   0 -10   26.80    8.20
   0   0 -11   -5.50    5.80
   0   0 -11   -4.90    5.70
   0   0 -12  260.47   39.70
   0   0 -12  258.27   39.90
   0   0 -13   -3.60    9.80
   0   0 -13   -1.60    7.10
   0   0 -14   -6.60    8.80
   0   0 -14    3.30    9.40
   0   1  -1   71.19   10.50
   0   1  -2    3.80    2.80
   0   1  -2    5.10    2.90
   0  -1  -2   11.00    2.50
   0  -1  -2   14.60    2.60
   0  -1   2   11.10    3.20
   0   1  -3  181.88   28.30
   0   1  -3  193.08   28.30
   0  -1  -3  183.08   27.90
   0  -1  -3  212.38   27.90
   0   1  -4    8.10    4.30
   0   1  -4    9.40    4.70
   0  -1  -4   11.60    4.00
   0  -1  -4    6.40    3.90
   0   1  -5   52.69   10.00
   0   1  -5   36.90    9.40
   0  -1  -5   64.49   10.40
   0  -1  -5   61.49    9.70
   0   1  -6    0.30    4.50
   0   1  -6    1.90    4.70
   0  -1  -6    2.60    3.80
   0   1  -7  407.06   59.29
   0   1  -7  453.15   59.39
   0  -1  -7  438.96   59.09
   0  -1  -7  346.57   58.99
   0   1  -8   24.50    6.70
   0   1  -8   13.30    5.70
   0  -1  -8   12.30    5.50
   0  -1  -8    4.50    4.50
   0   1  -9  151.58   23.40
   0   1  -9  130.99   23.10
   0  -1  -9  149.19   22.70
   0  -1  -9  122.19   22.10
   0   1 -10   -1.20    5.70
   0   1 -10    7.30    6.30
   0  -1 -10    1.90    4.90
   0  -1 -10    7.10    5.90
   0   1 -11    9.30    6.90
   0   1 -11   16.90    8.40
   0  -1 -11   19.20    8.10
   0  -1 -11   19.60    7.20
   0   1 -12  -14.80    5.30
   0  -1 -12    4.90    7.40
   0  -1 -12   -1.90    5.30
   0   1 -13   14.30    8.80
   0  -1 -13   -6.10    8.50
   0  -1 -13    0.00    6.40
   0   1 -14   29.80   11.20
   0  -1 -14   13.30   10.60
   0   2   0 2021.00  284.47
   0   2   1   45.90    6.50
   0   2  -1   37.80    7.10
   0   2  -2  182.48   26.70
   0   2  -3   80.19   12.60
   0   2  -3   56.49   11.80
   0  -2  -3   80.09   10.90
   0  -2  -3   70.39   11.00
   0   2  -4 1019.30  148.99
   0   2  -4 1070.59  148.99
   0  -2  -4 1101.79  148.39
   0  -2  -4 1012.00  148.29
   0   2  -5    2.40    3.90
   0   2  -5    4.60    5.10
   0  -2  -5   -0.70    3.50
   0  -2  -5   -3.80    2.90
   0   2  -6  359.86   52.69
   0   2  -6  374.86   52.79
   0  -2  -6  365.96   51.99
   0  -2  -6  351.76   51.99
   0   2  -7    3.60    4.90
   0   2  -7    3.10    5.00
   0  -2  -7   -1.40    4.20
   0  -2  -7    3.40    3.70
   0   2  -8   69.39   12.30
   0   2  -8   51.99   12.20
   0  -2  -8   63.59   10.90
   0  -2  -8   50.39   10.90
   0   2  -9   -4.00    5.00
   0   2  -9   -1.70    5.70
   0  -2  -9    3.30    5.40
   0  -2  -9    7.40    4.20
   0   2 -10    9.10    7.00
   0   2 -10    9.30    7.80
   0  -2 -10   25.80    7.20
   0  -2 -10   14.00    5.50
   0   2 -11   -8.60    6.40
   0   2 -11   -3.30    6.50
   0  -2 -11   -8.20    6.10
   0  -2 -11   -1.80    4.70
   0   2 -12  142.19   26.60
   0   2 -12  161.18   26.90
   0  -2 -12  150.58   25.70
   0   2 -13   14.00   16.20
   0   2 -13    4.40    9.30
   0  -2 -13    4.70    8.50
   0   2 -14   12.30    9.50
   0   2 -14    7.80   10.70
   0  -2 -14  -12.00    8.30
   0   3   0   -3.70    2.40
   0   3   1  188.48   26.40
   0   3  -1  192.68   27.00
   0   3  -1  171.38   27.00
   0   3  -2  175.68   24.60
   0   3  -2  155.18   24.30
   0   3  -3  319.87   46.30
   0   3  -4  172.38   24.90
   0   3  -4  175.18   25.10
   0  -3  -4  176.38   23.60
   0  -3  -4  147.19   23.50
   0   3  -5  253.07   33.90
   0   3  -5  226.58   34.00
   0  -3  -5  224.38   32.60
   0  -3  -5  217.78   32.60
   0   3  -6   54.49   12.50
   0   3  -6   73.89   13.30
   0  -3  -6   76.19   11.90
   0  -3  -6   78.99   11.60
   0   3  -7  171.88   23.90
   0   3  -7  165.58   24.00
   0  -3  -7  143.89   23.70
   0  -3  -7  134.19   22.40
   0   3  -8   11.20    5.70
   0   3  -8    6.50    6.60
   0  -3  -8    5.70    3.90
   0  -3  -8    2.20    4.70
   0   3  -9   45.30   11.60
   0   3  -9   68.19   13.90
   0  -3  -9   57.89   11.20
   0  -3  -9   59.19   10.60
   0   3 -10   45.30   11.80
   0   3 -10   41.80   11.70
   0  -3 -10   59.69   10.80
   0  -3 -10   47.00   10.00
   0   3 -11   27.80   10.20
   0   3 -11   52.79   12.40
   0  -3 -11   46.70   10.40
   0  -3 -11   28.40    8.30
   0   3 -12   59.09   12.80
   0   3 -12   33.40   11.00
   0  -3 -12    9.20    6.60
   0  -3 -12   33.40    9.80
   0   3 -13   15.60   11.60
   0   3 -13   13.40   10.40
   0  -3 -13   29.80    9.30
   0   4   0 9674.53 1384.06
   0   4   0 9999.00 1384.06
   0   4   1  503.65   67.79
   0   4  -1  474.75   68.19
   0   4   1  478.35   67.79
   0   4  -1  451.75   68.19
   0   4   2  112.39   16.20
   0   4  -2  124.49   17.50
   0   4   2  107.19   16.20
   0   4  -2  126.89   18.10
   0   4  -3    7.20    5.10
   0   4  -3    9.60    4.50
   0   4  -4   13.80    5.20
   0   4  -4    5.70    4.60
   0   4  -5  161.08   22.70
   0   4  -5  143.69   23.60
   0  -4  -5  144.59   20.70
   0  -4  -5  140.59   20.70
   0   4  -6  120.49   20.40
   0   4  -6  116.59   20.20
   0  -4  -6  127.29   18.30
   0  -4  -6  123.19   18.20
   0   4  -7    5.00    5.70
   0   4  -7   -0.80    5.00
   0  -4  -7    2.60    3.50
   0  -4  -7    1.80    3.20
   0   4  -8   33.00   11.40
   0   4  -8   38.20   10.30
   0  -4  -8   58.79    9.20
   0  -4  -8   57.19    9.80
   0   4  -9   55.99   17.40
   0   4  -9   38.00   11.60
   0  -4  -9   54.99    9.30
   0  -4  -9   39.00    9.60
   0   4 -10   93.49   20.30
   0   4 -10  113.29   20.40
   0  -4 -10  126.49   18.70
   0  -4 -10   95.89   17.20
   0   4 -11   70.49   15.70
   0   4 -11   64.79   15.70
   0  -4 -11   70.49   13.40
   0  -4 -11   86.19   14.50
   0   4 -12   65.99   16.90
   0   4 -12   52.99   15.30
   0  -4 -12   67.79   13.60
   0  -4 -12   87.29   14.70
   0   4 -13   10.30    9.80
   0   4 -13   11.00   11.00
   0  -4 -13    1.30    7.70
   0   5   0    1.90    3.40
   0   5   0    3.50    3.40
   0   5  -1    7.10    4.30
   0   5   1    5.40    3.30
   0   5   1    8.80    3.00
   0   5  -1    9.70    4.70
   0   5   2   94.89   14.00
   0   5  -2   97.09   15.80
   0   5   2   98.89   14.20
   0   5  -2   92.49   15.50
   0   5  -3   31.70    7.60
   0   5  -3   24.80    6.90
   0   5  -4    3.10    5.00
   0   5  -4    3.60    3.90
   0   5  -5   -5.80    5.00
   0   5  -5    2.30    4.60
   0   5  -6  271.47   39.50
   0   5  -6  256.37   39.60
   0   5  -7  457.55   62.09
   0   5  -7  435.76   62.09
   0  -5  -7  393.96   59.99
   0  -5  -7  436.16   59.99
   0   5  -8    3.10    5.50
   0   5  -8    1.20    7.00
   0  -5  -8    9.40    3.90
   0  -5  -8   -2.20    2.80
   0   5  -9   29.50   10.00
   0   5  -9   50.89   12.40
   0  -5  -9   46.40    8.40
   0  -5  -9   36.00    7.60
   0   5 -10   56.19   13.80
   0  -5 -10   39.80    9.10
   0  -5 -10   58.29   10.10
   0   5 -11   19.60   10.00
   0   5 -11    3.80    9.00
   0  -5 -11    4.60    4.90
   0   5 -12  -11.50    8.60
   0   5 -12   -3.60    7.00
   0  -5 -12   -1.80    4.90
   0  -5 -12    2.40    6.40
   0   5 -13   -0.20   10.20
   0   5 -13    9.50   10.70
   0  -5 -13    4.40    7.10
   0   6   0  493.55   66.79
   0   6   0  442.16   66.69
   0   6  -1   23.10    7.10
   0   6   1   42.10    6.60
   0   6  -1   35.40    7.30
   0   6   1   33.00    6.70
   0   6  -2   43.10    8.90
   0   6   2   47.40    7.50
   0   6  -2   50.59    9.40
   0   6   2   41.80    7.50
   0   6   3    1.30    1.50
   0   6  -3   -5.20    4.10
   0   6   3    0.30    1.60
   0   6  -3   -4.90    3.30
   0   6  -4   43.70    8.40
   0   6  -4   25.50    8.20
   0   6  -5    7.00    5.40
   0   6  -5    0.90    4.20
   0   6  -6  208.08   30.70
   0   6  -6  189.98   30.90
   0   6  -7   10.40    6.00
   0   6  -7   -0.80    6.10
   0   6  -8    5.00    5.90
   0   6  -8   -1.30    6.30
   0   6  -9    9.90    7.70
   0   6  -9   22.90    9.60
   0   6 -10   47.80   12.60
   0   6 -10   60.09   15.30
   0  -6 -10   61.49    9.40
   0  -6 -10   44.70    9.10
   0   6 -11   35.10   12.70
   0   6 -11   27.20   10.40
   0  -6 -11   13.80    5.70
   0  -6 -11   20.10    6.20
   0   6 -12   21.30   12.60
   0   6 -12    9.70    8.80
   0  -6 -12    9.50    6.30
   0  -6 -12   10.80    5.30
   0   7   0    1.20    3.70
   0   7   0   -0.50    3.10
   0   7   1  612.74   85.89
   0   7   1  607.94   85.79
   0   7  -1  602.84   86.29
   0   7  -1  592.04   86.29
   0   7   2   45.80    7.10
   0   7  -2   38.20    8.70
   0   7   2   37.40    6.70
   0   7  -2   26.60    7.80
   0   7   3   -0.30    2.00
   0   7  -3   -2.20    4.90
   0   7  -3   -2.80    3.50
   0   7  -4    1.20    5.20
   0   7  -4    0.10    3.90
   0   7  -5   82.59   14.40
   0   7  -5   71.99   14.70
   0   7  -6   45.90   10.50
   0   7  -6   17.80    7.40
   0   7  -7    6.80    5.70
   0   7  -7   -3.50    5.70
   0   7  -8   35.90   11.00
   0   7  -8   29.90   10.40
   0   7  -9   14.80    9.90
   0   7  -9   -6.10    5.80
   0   7 -10    3.10    7.80
   0   7 -10   -3.00    8.40
   0   7 -11   27.40   10.80
   0   7 -11   20.20   12.40
   0   7 -12   13.40    8.50
   0   7 -12   -3.70   10.70
   0   8   0   -0.40    3.60
   0   8   0    8.50    4.30
   0   8  -1   21.50    6.20
   0   8  -1   33.60    7.00
   0   8   1   16.20    5.10
   0   8   1   20.50    5.70
   0   8  -2   19.00    7.20
   0   8   2   19.40    5.40
   0   8   2   25.30    5.20
   0   8  -2   32.10    7.00
   0   8   3    5.40    2.80
   0   8  -3    4.50    4.90
   0   8   3    5.50    2.40
   0   8  -3    6.20    5.40
   0   8  -4  136.69   21.60
   0   8  -4  114.49   20.60
   0   8  -5    8.70    7.00
   0   8  -5   -9.20    4.10
   0   8  -6   40.50   10.50
   0   8  -6   17.50    7.10
   0   8  -7    9.10    7.50
   0   8  -7    0.80    5.70
   0   8  -8   10.80    9.40
   0   8  -8    0.10    6.00
   0   8  -9   65.59   15.40
   0   8  -9   33.60   12.10
   0   8 -10    4.20    7.80
   0   8 -10  -11.10    9.10
   0   8 -11   27.00   11.00
   0   8 -11   20.70   12.20
   0   9   0   -1.40    4.00
   0   9   0    2.60    3.60
   0   9  -1  131.89   20.00
   0   9   1  106.09   18.70
   0   9   1  132.59   19.60
   0   9  -1  133.49   20.50
   0   9  -2   11.30    6.10
   0   9   2   17.40    5.20
   0   9   2   19.00    5.20
   0   9  -2   10.60    5.20
   0   9   3   80.59   11.20
   0   9  -3   86.29   14.50
   0   9   3   65.39   11.10
   0   9  -3   44.90   12.30
   0   9  -4    4.60    4.80
   0   9  -4    7.30    6.20
   0   9  -5   27.40    8.50
   0   9  -5   21.60    8.30
   0   9  -6   33.40   10.00
   0   9  -6   60.79   13.20
   0   9  -7    0.40    7.60
   0   9  -7    6.90    7.60
   0   9  -8   22.60   10.00
   0   9  -8   13.70    8.70
   0   9  -9   30.80   11.90
   0   9  -9   18.50   10.10
   0   9 -10   35.50   12.90
   0  10   0   12.10    5.00
   0  10   0   10.40    5.40
   0  10  -1    9.90    6.10
   0  10   1   13.20    5.50
   0  10  -1   11.90    5.60
   0  10   1   15.30    5.10
   0  10   2   22.20    6.50
   0  10   2   25.90    6.10
   0  10  -2   27.50    7.60
   0  10  -2   33.90    8.30
   0  10   3    1.90    2.90
   0  10   3    3.90    3.20
   0  10  -3   -1.60    4.40
   0  10  -3    6.70    6.00
   0  10   4   12.40    2.90
   0  10   4   12.00    3.20
   0  10  -4    4.10    5.60
   0  10  -4   12.50    7.60
   0  10  -5    0.10    5.30
   0  10  -5    6.80    7.60
   0  10  -6    2.60    7.60
   0  10  -6    2.60    6.10
   0  10  -7   -0.50    7.20
   0  10  -7    3.40    6.80
   0  10  -8    0.50    6.80
   0  10  -8   13.20    9.90
   0  10  -9    1.90   11.00
   0  10  -9    6.60    8.10
   0  11   0    3.20    5.10
   0  11   0    2.90    4.50
   0  11  -1   62.69   12.00
   0  11  -1   54.59   11.00
   0  11   1   47.10   10.60
   0  11   2   38.90    7.50
   0  11  -2   30.50    8.50
   0  11  -2   40.20   10.00
   0  11   2   37.80    8.00
   0  11   3   -0.70    3.40
   0  11   3    2.10    3.30
   0  11  -3    5.20    6.30
   0  11  -3    3.90    5.10
   0  11   4    5.20    2.90
   0  11   4    5.90    2.70
   0  11  -4   -1.00    7.00
   0  11  -4    0.80    5.30
   0  11  -5   10.80   15.90
   0  11  -5   11.50    7.10
   0  11  -6  -18.90   11.20
   0  11  -6    3.60    6.90
   0  11  -7   10.80    8.10
   0  11  -7   12.10   10.20
   0  11  -8    4.20    8.10
   0  11  -8   15.60   10.50
   0  12   0   70.29   12.80
   0  12   0   61.69   13.10
   0  12  -1   39.50   10.60
   0  12   1   37.50    8.50
   0  12  -1   31.70    9.30
   0  12   1   54.89   10.50
   0  12  -2    6.90    5.50
   0  12   2    4.50    4.10
   0  12  -2    3.60    6.90
   0  12   2   -6.50    4.00
   0  12  -3   -3.70    5.00
   0  12   3    2.60    3.60
   0  12  -3    5.40    6.90
   0  12   3    4.00    4.00
   0  12  -4   12.90    7.60
   0  12   4    6.70    2.90
   0  12   4    3.90    3.10
   0  12  -4   -0.50    7.20
   0  12  -5    2.50    6.50
   0  12  -5   12.60    8.30
   0  12  -6   12.20    8.60
   0  12  -6   49.99   12.40
   0  13   0    7.70    5.40
   0  13   0    5.10    6.50
   0  13   1    1.30    4.90
   0  13  -1    8.70    5.90
   0  13  -1   -3.70    6.00
   0  13   1    4.00    5.30
   0  13  -2   11.70    8.10
   0  13  -2   19.60    7.50
   0  13   2   10.30    4.90
   0  13   2    5.70    5.60
   0  13  -3    4.00    6.20
   0  13   3   -1.30    3.90
   0  13   3   -4.60    3.60
   0  13  -3   -8.10    7.40
   0  13   4   -0.50    2.90
   0  13   4   -2.50    3.20
   0  13  -4    5.30    8.40
   0  13  -4    6.50    6.40
   1   0 -14   60.49   22.50
   1   0 -14   95.09   18.20
   1   0 -13    3.30    8.80
   1   0 -13   -5.70    7.50
   1   0 -12   80.89   15.60
   1   0 -11   -4.40    4.90
   1   0 -11   -0.60    4.70
   1   0 -10  162.28   26.50
   1   0  -9   -0.10    4.40
   1   0  -9   -0.10    2.40
   1   0  -8  120.69   20.20
   1   0  -7   -3.60    3.90
   1   0  -6   -0.40    4.00
  -1   0   6   -8.60    3.60
   1   0  -5   -0.20    4.00
  -1   0   5    0.40    3.90
  -1   0   4   41.40    7.50
   1   0  -4   41.10    7.90
   1   0  -3   -3.30    2.90
  -1   0   3    1.10    3.10
   1   0  -2   81.69   12.00
  -1   0   2   79.29   12.10
  -1   0   1   -0.70    1.10
   1   0   2 1513.85  213.38
   1   0   3    3.40    3.50
   1   0   4  143.59   21.60
   1   0   5   -5.20    3.30
  -1   0  -6    2.30    4.00
   1   0   6   14.50    5.10
  -1   0  -7   -0.50    2.80
  -1   0  -7    2.40    4.40
  -1   0  -8   94.99   16.20
  -1   0  -9    4.10    4.70
  -1   0  -9   -2.40    3.10
  -1   0 -10   -2.90    5.70
  -1   0 -10    0.30    5.60
  -1   0 -11    1.30    6.60
  -1   0 -11   12.70    7.30
  -1   0 -12    9.00    8.30
  -1   0 -12   -3.40    6.50
  -1   0 -13   -0.50    7.10
  -1   0 -13   16.70   12.10
   1   1 -14    3.40    8.50
   1  -1 -14    0.20    8.00
   1  -1 -14   11.50    8.20
   1   1 -13   16.70    8.60
   1  -1 -13    0.50    6.70
   1  -1 -13   -3.30    7.70
   1   1 -12   43.10   10.80
   1   1 -12   21.00    9.10
   1  -1 -12   41.60   10.30
   1  -1 -12   26.40    8.80
   1   1 -11   54.79   12.60
   1   1 -11   47.00   11.40
   1  -1 -11   45.90   10.80
   1  -1 -11   61.59   12.20
   1   1 -10    0.30    5.50
   1   1 -10    2.60    5.00
   1  -1 -10   -7.50    4.90
   1  -1 -10    1.00    4.90
   1   1  -9    9.70    6.50
   1   1  -9    2.30    6.00
   1  -1  -9   32.10    7.10
   1  -1  -9   13.00    5.50
   1   1  -8   21.70    6.70
   1   1  -8   24.80    7.00
   1  -1  -8   17.70    6.10
   1  -1  -8   26.60    7.90
   1   1  -7  719.03  100.49
   1   1  -7  712.73  100.49
   1  -1  -7  683.03  100.19
   1   1  -6    3.30    4.50
   1   1  -6   -0.90    4.50
   1  -1  -6   11.90    4.40
   1  -1  -6    7.70    4.20
  -1  -1   6    5.60    5.00
  -1   1   5  211.98   30.30
   1   1  -5  226.88   30.80
   1  -1  -5  189.38   30.20
  -1  -1   5  206.38   30.60
  -1   1   4  331.67   46.40
   1   1  -4  315.57   46.70
   1  -1  -4  329.77   46.40
  -1  -1   4  318.37   46.80
  -1   1   3 1563.54  222.68
   1   1  -3 1548.35  222.98
  -1  -1   3 1577.14  222.98
   1  -1  -3 1630.44  222.68
  -1   1   2  287.17   41.70
   1  -1  -2  298.47   41.70
  -1  -1   2  296.87   41.90
  -1   1   1  334.17   49.99
  -1  -1   1  380.16   50.29
  -1   1   0    1.60    1.70
  -1  -1   0    0.70    0.80
   1   1   1  538.25   75.99
  -1   1  -1  546.25   76.19
   1  -1   1  542.25   76.19
  -1  -1  -1  528.85   75.99
   1   1   2   10.30    3.00
  -1   1  -2   15.10    4.60
  -1  -1  -2   12.10    3.50
   1  -1   2   11.10    4.00
   1   1   3  555.04   78.99
  -1   1  -3  564.74   79.29
   1  -1   3  567.24   79.29
  -1  -1  -3  545.05   78.99
   1   1   4   -6.10    2.90
  -1   1  -4   -3.10    4.30
  -1  -1  -4   -0.70    3.80
   1  -1   4    2.70    3.80
  -1   1  -5   64.39   11.00
   1   1   5   61.49   10.00
  -1  -1  -5   96.69   14.10
   1  -1   5   65.99   10.50
  -1  -1  -5   38.50    9.50
  -1   1  -6    7.00    5.40
  -1   1  -6   -3.90    3.40
   1   1   6   -1.70    4.00
  -1  -1  -6    7.80    5.80
  -1  -1  -6    0.50    3.60
   1  -1   6   -5.60    4.00
  -1   1  -7   77.39   13.40
  -1   1  -7   52.99   11.80
  -1  -1  -7   62.29   12.00
  -1  -1  -7   83.89   12.90
  -1   1  -8   -1.60    4.70
  -1   1  -8    5.70    6.10
  -1  -1  -8   -4.20    4.50
  -1  -1  -8    5.00    4.60
  -1   1  -9  359.46   49.40
  -1   1  -9  311.27   49.30
  -1  -1  -9  326.07   48.80
  -1  -1  -9  336.07   49.00
  -1   1 -10    4.10    6.70
  -1   1 -10   11.00    7.10
  -1  -1 -10    8.20    6.20
  -1  -1 -10   18.40    7.70
  -1   1 -11   26.60    8.50
  -1   1 -11   10.70    8.50
  -1  -1 -11   13.70    6.30
  -1  -1 -11   10.70    7.60
  -1   1 -12   21.00   10.00
  -1  -1 -12   21.90    8.60
  -1  -1 -12   12.80    9.30
  -1   1 -13   24.50   10.80
  -1  -1 -13   32.00   10.70
  -1  -1 -13   58.59   13.40
   1   2 -14   30.50   12.30
   1   2 -14   28.10   11.40
   1  -2 -14   48.40   12.60
   1   2 -13   13.90   10.20
   1   2 -13    4.10    8.10
   1  -2 -13   24.60    9.30
   1   2 -12   38.10   12.10
   1   2 -12   48.10   12.40
   1  -2 -12   42.80   10.60
   1  -2 -12   50.59   11.80
   1   2 -11   -2.90    6.60
   1   2 -11    0.50    5.70
   1  -2 -11   -6.00    5.80
   1  -2 -11   -5.90    4.20
   1   2 -10  267.27   41.30
   1   2 -10  253.47   41.20
   1  -2 -10  291.97   40.60
   1  -2 -10  276.37   40.40
   1   2  -9   -5.30    4.70
   1   2  -9   -4.90    4.70
   1  -2  -9    7.00    4.60
   1  -2  -9    8.30    5.00
   1   2  -8   33.10    8.70
   1   2  -8   34.80    8.70
   1  -2  -8   49.60    8.70
   1  -2  -8   35.80    7.90
   1   2  -7    4.40    4.80
   1   2  -7    4.90    5.00
   1  -2  -7   -1.30    3.50
   1  -2  -7   -2.40    3.50
   1   2  -6  199.08   33.60
   1   2  -6  233.78   33.80
  -1   2   6  225.68   32.90
   1  -2  -6  234.98   33.00
   1  -2  -6  232.48   32.90
   1   2  -5   -2.60    4.20
  -1   2   5    1.00    3.30
   1   2  -5   -1.10    4.60
  -1  -2   5    8.20    5.10
   1  -2  -5    4.40    3.40
   1   2  -4  236.78   34.20
  -1   2   4  223.28   33.40
  -1  -2   4  245.88   34.20
   1  -2  -4  232.48   33.40
   1   2  -3   28.30    7.80
  -1   2   3   55.69    7.10
   1  -2  -3   47.00    7.10
  -1  -2   3   27.50    7.80
   1   2  -2  906.41  127.19
  -1   2   2  921.71  126.79
  -1  -2   2  869.01  127.19
   1  -2  -2  898.61  126.79
  -1   2   1  112.49   17.40
   1   2  -1  125.89   17.60
   1  -2  -1  122.79   17.40
  -1   2   0  316.67   47.70
   1   2   0  346.47   47.50
  -1  -2   0  349.96   47.50
   1  -2   0  323.67   47.70
  -1   2  -1   43.80    8.30
   1   2   1   49.70    7.70
   1  -2   1   47.40    8.70
  -1  -2  -1   54.29    7.60
  -1   2  -2   92.69   14.90
   1   2   2   86.49   13.70
   1  -2   2  107.39   15.00
  -1  -2  -2   94.39   13.70
  -1   2  -3    7.40    4.30
   1   2   3   -3.30    2.70
  -1  -2  -3    0.50    2.90
   1  -2   3    1.10    4.40
   1   2   4  159.18   21.80
  -1   2  -4  153.28   22.80
  -1  -2  -4  140.49   21.80
   1  -2   4  135.29   22.60
   1   2   5    4.50    3.40
  -1   2  -5    5.10    5.30
   1  -2   5    1.50    4.20
  -1  -2  -5    6.50    3.80
  -1  -2  -5   -2.20    2.90
  -1   2  -6   28.90    8.00
  -1   2  -6   41.40    9.30
   1  -2   6   25.10    8.00
  -1  -2  -6   48.30    8.00
  -1  -2  -6   38.60    7.20
  -1   2  -7   13.30    5.90
  -1   2  -7   20.10    7.20
  -1  -2  -7   23.60    6.60
  -1  -2  -7   25.90    5.80
  -1   2  -8   26.10    8.30
  -1  -2  -8   24.20    6.50
  -1  -2  -8   16.50    6.50
  -1   2  -9    5.70    6.70
  -1   2  -9    1.90    5.10
  -1  -2  -9   -2.70    4.60
  -1  -2  -9    3.60    5.10
  -1   2 -10   18.00    9.10
  -1   2 -10   32.20    9.00
  -1  -2 -10   16.70    7.40
  -1  -2 -10   12.40    5.90
  -1   2 -11   -1.10    7.40
  -1   2 -11   12.00    7.90
  -1  -2 -11   -4.60    6.50
  -1  -2 -11    9.90    5.80
  -1   2 -12    4.60    8.50
  -1   2 -12   -8.70    7.90
  -1  -2 -12   -8.00    7.10
  -1  -2 -12    1.00    7.30
  -1   2 -13   -1.90    7.70
  -1   2 -13    1.30    9.80
  -1  -2 -13   -3.20    8.20
   1   3 -14   36.70   12.50
   1   3 -14    4.30    8.60
   1  -3 -14   12.60    9.80
   1   3 -13   15.10    9.70
   1   3 -13   48.70   12.70
   1  -3 -13    7.50    8.70
   1   3 -12   10.00    8.10
   1   3 -12    5.30    9.00
   1  -3 -12    8.50    5.60
   1  -3 -12    8.10    7.20
   1   3 -11   -1.70    7.70
   1   3 -11   -1.20    6.30
   1  -3 -11    7.20    6.60
   1  -3 -11   -2.50    4.10
   1   3 -10   16.70    7.80
   1   3 -10    9.80    6.70
   1  -3 -10   15.20    5.60
   1  -3 -10    9.30    5.80
   1   3  -9   15.90    8.30
   1   3  -9   46.50   10.40
   1  -3  -9   49.30    8.60
   1  -3  -9   42.20    7.90
   1   3  -8  212.88   31.10
   1   3  -8  215.38   31.10
   1  -3  -8  200.78   29.80
   1  -3  -8  188.48   29.60
   1   3  -7  155.18   22.60
   1   3  -7  156.18   22.70
   1  -3  -7  131.59   21.00
   1  -3  -7  134.29   21.00
   1   3  -6    2.20    5.00
  -1   3   6    1.80    3.10
   1   3  -6    9.40    5.00
   1  -3  -6   -0.90    2.90
   1  -3  -6    3.90    3.30
  -1   3   5   -0.60    2.70
   1   3  -5   -1.20    4.40
   1   3  -5    6.70    5.10
   1  -3  -5    4.20    2.70
   1  -3  -5    1.60    2.90
  -1   3   4    7.70    2.70
   1   3  -4    6.70    4.80
  -1  -3   4   -8.80    4.60
   1  -3  -4    5.30    2.60
   1   3  -3 3570.64  513.85
  -1   3   3 3708.83  513.25
   1  -3  -3 3655.93  513.15
   1   3  -2 1130.59  160.88
  -1   3   2 1137.69  160.38
  -1  -3   2 1151.18  160.88
   1  -3  -2 1135.09  160.38
   1   3  -1  174.38   24.60
  -1   3   1  173.98   24.40
   1  -3  -1  158.48   24.30
   1   3   0   86.79   13.20
  -1   3   0   85.29   13.70
   1  -3   0   93.69   13.70
  -1  -3   0   86.99   13.20
  -1   3  -1  243.28   37.30
   1   3   1  262.17   36.60
   1  -3   1  247.58   37.30
  -1  -3  -1  266.77   36.60
  -1   3  -2   14.60    5.30
   1   3   2   12.20    2.70
   1  -3   2   10.50    5.00
   1   3   3  121.39   17.60
  -1   3  -3  123.69   19.20
   1  -3   3  130.99   19.10
  -1  -3  -3  117.89   17.50
  -1   3  -4    4.10    4.90
   1   3   4   -4.20    2.20
   1  -3   4    4.40    4.70
  -1  -3  -4    4.90    2.40
  -1  -3  -4    0.90    2.80
   1   3   5   10.00    3.40
  -1   3  -5    8.50    5.50
  -1  -3  -5    7.90    3.10
  -1  -3  -5    7.20    4.00
   1  -3   5    0.70    4.70
  -1   3  -6    2.20    5.30
  -1   3  -6    1.30    3.80
  -1  -3  -6    6.60    4.00
  -1  -3  -6    2.40    3.30
  -1   3  -7   39.60   10.20
  -1   3  -7   46.50   11.40
  -1  -3  -7   58.39    9.90
  -1  -3  -7   84.39   11.00
  -1   3  -8   20.20    7.10
  -1   3  -8    2.40    5.40
  -1  -3  -8   31.60    6.70
  -1  -3  -8    7.50    4.20
  -1   3  -9  266.87   41.70
  -1   3  -9  293.57   42.10
  -1  -3  -9  268.97   40.30
  -1  -3  -9  279.87   40.70
  -1   3 -10   42.50   11.80
  -1   3 -10   53.79   12.50
  -1  -3 -10   38.10    9.40
  -1  -3 -10   62.19   11.40
  -1   3 -11    5.90    7.90
  -1   3 -11   10.50    9.20
  -1  -3 -11    1.70    4.40
  -1  -3 -11   14.10    7.90
  -1   3 -12   25.00   11.50
  -1   3 -12    7.30    9.50
  -1  -3 -12   15.70    8.90
  -1   3 -13   50.49   16.00
  -1   3 -13   55.29   15.30
  -1  -3 -13   56.49   14.20
   1   4 -14   25.80   12.50
   1   4 -13    7.80    9.80
   1   4 -13   30.30   11.70
   1  -4 -13    8.60    6.20
   1  -4 -13   13.10    8.50
   1   4 -12   17.50    9.90
   1   4 -12   18.60    8.80
   1  -4 -12    5.90    7.50
   1  -4 -12   25.40    8.40
   1   4 -11   16.10    8.30
   1   4 -11   19.10    9.10
   1  -4 -11    9.50    5.30
   1  -4 -11   20.30    7.20
   1   4 -10  138.59   23.80
   1   4 -10  127.09   24.10
   1  -4 -10  147.29   21.90
   1  -4 -10  130.59   21.30
   1   4  -9   -3.00    5.30
   1   4  -9   -2.80    6.10
   1  -4  -9    0.10    4.60
   1  -4  -9   -1.50    3.80
   1   4  -8  251.57   36.90
   1   4  -8  224.98   36.60
   1  -4  -8  251.07   35.10
   1  -4  -8  234.98   35.00
   1   4  -7    3.00    6.10
   1   4  -7    5.10    5.10
   1  -4  -7    9.40    3.80
   1   4  -6    2.90    5.00
   1   4  -6   27.40    7.00
   1  -4  -6   12.20    3.70
   1  -4  -6   12.30    3.60
   1   4  -5    1.20    4.50
  -1   4   5    0.80    2.20
   1   4  -5   -4.70    4.20
   1  -4  -5    3.70    2.20
   1  -4  -5   -3.70    2.40
   1   4  -4  386.76   59.09
   1   4  -4  417.86   59.09
  -1   4   4  416.06   57.89
  -1   4   3  119.89   17.60
   1   4  -3  121.79   18.90
   1  -4  -3  121.89   17.30
  -1   4   2   28.70    5.70
   1   4  -2   30.30    6.70
   1  -4  -2   37.50    5.80
   1   4  -1 7695.33 1091.49
  -1   4   1 7706.13 1091.29
  -1  -4   1 8035.30 1091.49
   1  -4  -1 7589.54 1091.29
   1   4   0   27.20    4.80
  -1   4   0   14.90    5.00
   1  -4   0   13.50    4.50
   1   4   1   59.39    8.80
  -1   4  -1   58.99   10.30
   1  -4   1   47.20    9.50
  -1   4  -2   25.20    6.40
   1   4   2   25.90    4.20
   1  -4   2   18.60    6.40
  -1   4  -3   13.50    5.80
   1  -4   3   14.20    5.20
  -1   4  -4   19.30    6.50
   1   4   4    2.50    2.00
   1  -4   4   -2.20    4.10
  -1   4  -5    4.40    5.10
  -1   4  -5    6.90    5.30
  -1  -4  -5   -1.70    2.10
  -1  -4  -5    0.30    2.40
   1  -4   5   -0.50    4.90
  -1   4  -6   40.30   11.20
  -1   4  -6   65.19   12.70
  -1  -4  -6   67.89   10.60
  -1  -4  -6   73.29   10.30
  -1   4  -7    5.90    7.20
  -1   4  -7   18.30    7.30
  -1  -4  -7   23.20    5.60
  -1  -4  -7   19.00    4.60
  -1   4  -8   32.80   10.10
  -1   4  -8   50.69   12.10
  -1  -4  -8   68.99    9.90
  -1  -4  -8   39.10    8.40
  -1   4  -9    7.00    6.50
  -1   4  -9   18.90    8.20
  -1  -4  -9   13.30    4.60
  -1  -4  -9    5.30    5.40
  -1   4 -10   20.00    9.40
  -1   4 -10   33.30   11.30
  -1  -4 -10   34.90    7.40
  -1  -4 -10   27.20    8.10
  -1   4 -11  189.58   32.60
  -1   4 -11  202.08   32.30
  -1  -4 -11  183.68   29.50
  -1  -4 -11  187.78   29.70
  -1   4 -12   -2.30    8.90
  -1   4 -12   19.80   10.90
  -1  -4 -12    8.30    8.00
  -1  -4 -12    6.60    5.80
  -1   4 -13  -10.80    9.50
  -1   4 -13   -9.20    9.80
  -1  -4 -13   -3.10    8.30
   1   5 -13    9.00   11.60
   1   5 -13    3.00    9.40
   1  -5 -13    0.40    5.80
   1  -5 -13    7.00    6.90
   1   5 -12   -2.10    7.80
   1   5 -12    7.00   10.20
   1  -5 -12   -0.20    6.00
   1  -5 -12    0.40    5.00
   1   5 -11   -5.50    6.20
   1   5 -11    6.80    8.00
   1  -5 -11    4.10    5.90
   1  -5 -11   -5.40    4.00
   1   5 -10    3.50    6.20
   1   5 -10   -1.60    7.70
   1  -5 -10   -7.20    3.90
   1  -5 -10   -5.40    3.50
   1   5  -9  152.18   23.70
   1   5  -9  170.58   23.90
   1  -5  -9  122.59   19.20
   1  -5  -9  113.79   19.10
   1   5  -8    5.20    6.20
   1   5  -8    2.50    6.10
   1  -5  -8    4.50    3.50
   1  -5  -8   12.60    3.40
   1   5  -7  590.44   81.09
   1   5  -7  569.14   80.99
   1  -5  -7  548.55   79.09
   1  -5  -7  554.24   79.19
   1   5  -6    6.30    5.20
   1   5  -6   12.10    5.60
   1   5  -5   14.40    6.80
  -1   5   5   21.20    3.40
   1   5  -5    8.50    5.90
   1   5  -4   23.70    6.50
   1   5  -4   14.50    5.80
  -1   5   3  100.29   14.70
   1   5  -3  104.29   16.50
   1   5  -3   91.99   16.10
   1   5  -2   81.69   14.30
   1   5  -2   85.89   14.50
  -1   5   2   91.59   13.50
  -1   5   1   93.69   13.70
   1   5  -1   72.99   13.70
   1  -5  -1   87.79   13.30
  -1   5   0  209.28   31.70
   1   5   0  226.18   31.50
   1  -5   0  214.18   31.60
   1   5   1  249.78   35.30
  -1   5  -1  242.98   36.10
   1  -5   1  245.68   36.00
  -1   5  -2    2.70    4.60
   1   5   2    5.80    2.20
   1  -5   2    9.30    4.30
  -1   5  -3  104.89   17.90
   1  -5   3  114.19   18.10
  -1   5  -4   46.90   10.30
  -1   5  -5   42.70   10.60
  -1   5  -5   80.39   12.90
  -1   5  -6   22.40    7.20
  -1   5  -6   35.90    9.30
  -1   5  -7   28.10    8.60
  -1   5  -7   46.90   10.50
  -1  -5  -7   29.20    6.40
  -1  -5  -7   44.70    6.50
  -1   5  -8   20.00    8.00
  -1   5  -8    5.30    6.50
  -1  -5  -8    2.60    4.00
  -1  -5  -8    9.70    3.90
  -1   5  -9  167.68   29.00
  -1   5  -9  146.29   28.30
  -1  -5  -9  173.08   25.20
  -1  -5  -9  178.08   25.70
  -1   5 -10   40.30   12.50
  -1   5 -10   29.50   12.10
  -1  -5 -10   54.69   11.40
  -1  -5 -10   40.90    8.50
  -1   5 -11    0.90    8.70
  -1   5 -11   -0.90    8.80
  -1  -5 -11   10.20    5.10
  -1  -5 -11    4.00    6.90
  -1   5 -12   16.70   11.90
  -1   5 -12   17.10   10.40
  -1  -5 -12    1.00    7.50
  -1  -5 -12   -3.00    5.00
   1   6 -13   -5.60   10.30
   1   6 -13   -2.80    7.70
   1  -6 -13    7.00    6.70
   1   6 -12   -2.80    7.90
   1   6 -12    7.30   10.00
   1  -6 -12   -5.80    4.70
   1  -6 -12   -3.70    5.70
   1   6 -11   10.80    8.80
   1   6 -11    9.50    8.10
   1  -6 -11    3.40    4.70
   1  -6 -11    4.00    4.50
   1   6 -10   20.30   10.10
   1   6 -10   27.90    8.90
   1  -6 -10   26.70    6.10
   1  -6 -10   26.70    6.00
   1   6  -9   18.60    9.60
   1   6  -9   16.00    7.80
   1   6  -8   41.60   10.30
   1   6  -8   33.90   10.70
   1   6  -7    3.60    6.10
   1   6  -7   -0.50    4.50
   1   6  -6    9.30    6.10
   1   6  -6    4.00    5.70
   1   6  -5  223.38   34.40
   1   6  -5  234.78   34.70
   1   6  -4   52.69   12.00
   1   6  -4   79.39   13.10
  -1   6   4   69.39   10.10
   1   6  -3   70.39   13.00
  -1   6   3   71.49   10.90
   1   6  -3   67.19   12.70
   1   6  -2  118.29   16.90
   1   6  -2  123.39   17.40
  -1   6   2   91.29   15.90
   1   6  -1  499.55   72.69
  -1   6   1  534.85   72.59
   1   6  -1  492.85   72.69
   1   6   0  266.17   38.50
   1   6   0  268.47   38.50
  -1   6   0  264.67   38.80
   1   6   1   71.79   11.50
   1   6   1   73.89   11.50
  -1   6  -1   70.79   12.60
  -1   6  -2   -0.10    4.80
   1   6   2    4.70    2.20
   1   6   2    3.50    2.20
  -1   6  -3   11.00    6.00
  -1   6  -4   -1.60    4.00
  -1   6  -4   -1.80    5.20
  -1   6  -5  194.38   30.60
  -1   6  -5  208.78   31.10
  -1   6  -6   45.10   11.10
  -1   6  -6   75.39   13.10
  -1   6  -7  107.59   18.90
  -1   6  -7   95.09   18.40
  -1   6  -8   39.30    9.80
  -1   6  -8   29.40   10.90
  -1   6  -9  -10.90    8.30
  -1   6  -9  -10.20   10.40
  -1  -6  -9    3.00    3.50
  -1  -6  -9    7.90    3.10
  -1   6 -10    9.40    7.70
  -1   6 -10    7.20    9.60
  -1  -6 -10    5.60    3.80
  -1  -6 -10    4.50    4.60
  -1   6 -11   29.10   11.50
  -1   6 -11   43.60   13.70
  -1  -6 -11   43.60    8.10
  -1  -6 -11   31.50    8.30
  -1   6 -12   -7.60   10.50
  -1   6 -12   -1.10    9.70
  -1  -6 -12    6.10    6.30
  -1  -6 -12   -2.50    4.60
   1   7 -12   -5.40   10.00
   1   7 -12    7.60    8.70
   1   7 -11    5.20    9.50
   1   7 -11    7.70    8.50
   1   7 -10    6.60    9.20
   1   7  -9   18.90    8.90
   1   7  -9    7.60    7.70
   1   7  -8   -7.10    5.30
   1   7  -8    5.60    7.30
   1   7  -7    3.10    5.60
   1   7  -7   -4.40    6.20
   1   7  -6  160.28   28.60
   1   7  -6  195.08   28.20
   1   7  -5   -7.10    4.90
   1   7  -5    2.20    4.80
  -1   7   4   19.00    3.80
   1   7  -4   13.30    6.50
   1   7  -4   11.70    5.90
   1   7  -3  701.23   96.19
   1   7  -3  675.43   96.19
  -1   7   3  652.03   95.09
   1   7  -2    0.10    4.00
   1   7  -2    9.10    4.80
  -1   7   2    7.10    3.60
   1   7  -1  442.26   63.19
   1   7  -1  434.56   63.19
  -1   7   1  443.66   63.09
   1   7   0   25.50    5.20
   1   7   0    7.10    4.10
  -1   7   0   13.00    5.20
  -1   7  -1   13.00    6.00
   1   7   1   28.60    5.20
   1   7   1   22.10    5.20
   1   7   2    2.00    2.50
   1   7   2   -4.30    2.20
  -1   7  -2   -0.90    4.30
  -1   7  -2    4.30    4.10
  -1   7  -3   86.49   14.70
   1   7   3   79.09   11.70
   1   7   3   82.39   11.70
  -1   7  -3   64.99   13.80
  -1   7  -4    4.70    5.60
  -1   7  -4   13.10    5.70
  -1   7  -5   16.70    6.60
  -1   7  -5   -1.20    5.10
  -1   7  -6   13.60    6.40
  -1   7  -6    1.00    6.70
  -1   7  -7  172.38   26.90
  -1   7  -7  130.59   24.40
  -1   7  -8   -1.00    7.70
  -1   7  -8   -6.00    5.20
  -1   7  -9   35.20   12.20
  -1   7  -9   38.80   11.20
  -1   7 -10    1.20    8.40
  -1   7 -10   11.60    9.90
  -1   7 -11    1.20    8.40
  -1   7 -11    8.20   11.20
   1   8 -12   34.10   13.10
   1   8 -11    7.00    8.70
   1   8 -11   27.30   12.10
   1   8 -10   42.30   12.10
   1   8 -10   12.30    8.40
   1   8  -9   20.90    7.90
   1   8  -9    2.60    9.70
   1   8  -8   29.40   10.00
   1   8  -8   24.10    8.90
   1   8  -7    1.50    5.60
   1   8  -7   -0.10    7.40
   1   8  -6    2.90    7.10
   1   8  -6   15.00    6.40
   1   8  -5    2.00    5.30
   1   8  -5    4.80    5.90
  -1   8   4   27.20    4.90
  -1   8   4   28.30    4.60
   1   8  -4   14.00    6.90
   1   8  -4   12.90    6.90
   1   8  -3   -2.70    3.90
  -1   8   3    2.00    2.70
   1   8  -3    0.30    4.30
  -1   8   3    3.40    2.90
   1   8  -2  113.79   19.00
   1   8  -2  133.99   19.40
  -1   8   2  116.69   17.40
  -1   8   2  104.79   17.60
   1   8  -1 1391.26  202.28
  -1   8   1 1490.75  202.18
  -1   8   1 1400.96  202.18
   1   8  -1 1433.06  202.38
  -1   8   0  214.48   34.30
  -1   8   0  236.58   34.70
   1   8   0  244.78   34.30
   1   8   0  240.18   34.40
   1   8   1   20.30    4.70
   1   8   1   17.30    4.90
  -1   8  -1   15.40    5.30
  -1   8  -1    6.70    5.40
  -1   8  -2   57.99   12.60
  -1   8  -2   73.09   13.60
   1   8   2   74.89   11.60
   1   8   2   78.99   11.70
   1   8   3    2.50    2.20
   1   8   3    0.60    2.10
  -1   8  -3  -12.50    4.50
  -1   8  -3    1.60    4.30
  -1   8  -4   92.69   16.70
  -1   8  -4   78.39   15.60
  -1   8  -5   -3.80    4.40
  -1   8  -5    0.10    6.60
  -1   8  -6   -3.90    5.20
  -1   8  -6   -5.70    6.60
  -1   8  -7   81.69   14.90
  -1   8  -7   33.50   10.90
  -1   8  -8    7.30    8.50
  -1   8  -8    5.50    6.50
  -1   8  -9    0.70    6.50
  -1   8  -9    8.70    9.20
  -1   8 -10   10.30   10.70
  -1   8 -10   18.60    9.90
  -1   8 -11   59.29   17.30
  -1   8 -11   81.89   19.40
   1   9 -11   11.70   11.60
   1   9 -11    4.70    9.50
   1   9 -10  -10.10    7.00
   1   9 -10   17.20   11.20
   1   9  -9   24.60   10.20
   1   9  -9   30.70   12.40
   1   9  -8   32.90   11.10
   1   9  -8   28.00    9.30
   1   9  -7   34.10   10.60
   1   9  -7   21.30    8.50
   1   9  -6   14.90    8.30
   1   9  -6    9.40    6.30
   1   9  -5   26.50    8.40
   1   9  -5    9.90    6.80
   1   9  -4   21.40    7.50
   1   9  -4   25.50    8.50
  -1   9   4   30.00    5.70
  -1   9   4   31.60    5.40
   1   9  -3   48.30   10.50
  -1   9   3   56.09    9.00
  -1   9   3   56.19    9.30
   1   9  -3   38.30   10.40
   1   9  -2   57.39   11.90
  -1   9   2   76.39   11.30
  -1   9   2   58.99   11.30
   1   9  -2   58.59   12.10
  -1   9   1   94.39   17.30
  -1   9   1  114.69   17.40
   1   9  -1  107.09   17.90
   1   9  -1  106.69   17.60
  -1   9   0   66.49   12.60
   1   9   0   73.79   12.40
  -1   9   0   80.19   13.20
   1   9   0   63.49   12.20
  -1   9  -1   20.30    6.90
   1   9   1   18.50    5.60
   1   9   1   20.10    5.20
  -1   9  -1   19.40    6.20
   1   9   2    7.10    3.20
  -1   9  -2    5.30    5.30
   1   9   2   -3.50    2.80
  -1   9  -2    0.70    4.70
   1   9   3  121.59   18.90
  -1   9  -3  142.99   22.30
  -1   9  -3  138.69   21.80
   1   9   3  131.79   19.00
  -1   9  -4   -2.70    6.40
  -1   9  -4   10.60    6.90
  -1   9  -5    0.10    6.10
  -1   9  -5   -3.10    4.80
  -1   9  -6   40.40   10.80
  -1   9  -6   14.60    8.40
  -1   9  -7   22.80    8.10
  -1   9  -7   19.50    9.40
  -1   9  -8   36.20   11.50
  -1   9  -8   40.70   12.70
  -1   9  -9   10.20   11.00
  -1   9  -9   14.80    8.70
  -1   9 -10    1.50    8.40
  -1   9 -10    0.80   10.90
   1  10 -10   14.30    9.60
   1  10 -10   21.60   12.30
   1  10  -9    1.60    9.90
   1  10  -9    3.80    7.40
   1  10  -8    7.40    9.60
   1  10  -8   -3.70    6.30
   1  10  -7   12.60    7.50
   1  10  -7    7.80    8.20
   1  10  -6    3.90    7.10
   1  10  -6    0.80    5.20
   1  10  -5   17.80    7.40
   1  10  -5   20.70    8.70
  -1  10   4   49.20    8.20
  -1  10   4   46.00    7.70
   1  10  -4   37.60   10.10
   1  10  -4   34.30   10.70
   1  10  -3   13.70    6.20
  -1  10   3   24.10    5.00
   1  10  -3   16.90    7.00
  -1  10   3   17.70    5.10
   1  10  -2   49.30   11.00
   1  10  -2   44.30   10.10
  -1  10   2   53.19    9.60
   1  10  -1   76.99   13.80
  -1  10   1   79.59   13.20
  -1  10   1   78.89   13.80
   1  10  -1   64.89   13.20
   1  10   0    4.10    4.20
  -1  10   0    5.60    5.50
  -1  10   0    1.30    4.20
   1  10   0    9.40    4.90
  -1  10  -1   31.30    8.00
   1  10   1   31.30    7.50
  -1  10  -1   21.30    7.90
   1  10   1   38.00    8.00
  -1  10  -2   -0.20    4.50
   1  10   2    1.30    3.60
  -1  10  -2    5.70    5.60
   1  10   2    0.00    3.10
   1  10   3    2.90    2.70
  -1  10  -3    3.80    6.00
  -1  10  -3   -0.30    4.80
   1  10   3   -4.00    2.60
  -1  10  -4    3.90    5.50
  -1  10  -4    4.90    6.70
  -1  10  -5   52.89   12.80
  -1  10  -5   70.29   14.30
  -1  10  -6   13.30    6.70
  -1  10  -6    8.40    8.40
  -1  10  -7   -1.60    9.00
  -1  10  -7    7.70    6.80
  -1  10  -8   -2.40    9.60
  -1  10  -8   -4.00    6.70
  -1  10  -9   15.30   11.60
  -1  10  -9    4.50    7.90
   1  11  -8   -2.20    9.20
   1  11  -8   10.10    7.80
   1  11  -7   -0.40    6.30
   1  11  -7   26.90   10.60
   1  11  -6   -1.50   12.20
   1  11  -6    9.10    7.30
   1  11  -5   -2.40    8.90
   1  11  -5   -5.60    5.10
   1  11  -4    1.20    6.80
   1  11  -4   -2.70    5.10
  -1  11   4    7.90    3.80
  -1  11   4   -0.60    2.70
  -1  11   3   30.20    6.50
   1  11  -3   20.80    7.60
   1  11  -3   45.40    9.70
  -1  11   3   28.20    7.00
   1  11  -2   39.40    9.20
   1  11  -2   23.60    7.70
  -1  11   2   27.20    6.70
  -1  11   2   32.40    7.90
   1  11  -1   51.09    9.70
  -1  11   1   27.50    8.90
   1  11  -1   40.60    9.60
  -1  11   1   49.00    8.90
   1  11   0   56.39   11.30
  -1  11   0   50.19   11.50
   1  11   0   51.09   10.70
  -1  11   0   64.29   11.20
  -1  11  -1    9.90    5.30
  -1  11  -1   15.00    7.40
   1  11   1   15.70    5.10
   1  11   1    8.10    5.00
   1  11   2    7.70    3.80
   1  11   2   -3.20    4.00
  -1  11  -2    6.00    5.10
  -1  11  -2    6.20    6.40
   1  11   3    9.40    3.60
   1  11   3    8.10    3.70
  -1  11  -3    4.80    5.40
  -1  11  -3   -2.70    6.20
  -1  11  -4   12.70   10.20
  -1  11  -4   13.20    6.50
  -1  11  -5   17.50    7.90
  -1  11  -6   -3.80    6.00
  -1  11  -6   -2.20    8.50
  -1  11  -7   21.70    9.80
  -1  11  -7    3.50   10.80
  -1  11  -8    5.00    7.80
   1  12  -7    3.20    8.90
   1  12  -7   -0.10    6.10
   1  12  -6    1.10    8.40
   1  12  -6   -0.80    6.40
   1  12  -5    2.40    7.40
   1  12  -5   -1.00    5.50
   1  12  -4   -2.60    6.60
  -1  12   4    1.10    3.80
   1  12  -4   -6.50    5.30
  -1  12   4    4.90    3.20
   1  12  -3    3.60    5.70
   1  12  -3   -1.20    6.00
  -1  12   3    8.20    4.60
  -1  12   3    4.80    4.10
  -1  12   2    5.50    5.20
   1  12  -2    1.20    5.30
   1  12  -2    6.50    6.00
  -1  12   2   -3.30    3.90
   1  12  -1    4.60    5.50
  -1  12   1    4.20    5.20
  -1  12   1   27.70    7.60
   1  12  -1   18.00    7.30
   1  12   0   30.30    9.00
  -1  12   0   31.70    9.00
  -1  12   0   66.19   11.20
   1  12   0   48.30   11.40
  -1  12  -1   22.10    8.50
  -1  12  -1   35.40    8.40
   1  12   1   30.50    7.90
   1  12   1   24.90    6.90
  -1  12  -2    8.30    7.40
   1  12   2    3.70    4.10
   1  12   2    0.70    4.50
  -1  12  -2    6.50    6.00
  -1  12  -3   15.80    7.20
  -1  12  -3   10.40    8.30
   1  12   3   16.90    4.80
   1  12   3   14.60    4.50
   1  12   4    1.90    0.80
  -1  12  -4    0.70    6.30
  -1  12  -4   11.60    8.60
  -1  12  -5   -0.70    6.30
  -1  12  -5   16.20    9.80
  -1  12  -6    6.40   10.00
  -1  12  -6   -1.40    7.40
   1  13  -4   25.90    9.70
  -1  13   4   16.80    5.30
   1  13  -4    9.70    6.70
  -1  13   4    7.90    4.10
  -1  13   3    7.10    4.60
   1  13  -3    9.10    6.90
   1  13  -3   12.80    7.90
  -1  13   3    8.30    5.60
  -1  13   2   -2.80    4.60
  -1  13   2    9.40    6.00
   1  13  -2    4.60    5.80
   1  13  -2    5.80    7.00
   1  13  -1   -1.00    4.80
  -1  13   1    1.30    4.60
  -1  13   1   -5.40    5.00
   1  13  -1   11.70    6.50
   1  13   0   10.20    5.90
   1  13   0   11.40    6.60
  -1  13   0   11.70    6.90
  -1  13   0   18.40    7.00
  -1  13  -1    3.60    6.50
   1  13   1    1.80    4.40
  -1  13  -1   -1.90    5.00
   1  13   1   -4.10    5.10
  -1  13  -2    2.90    6.00
   1  13   2   -0.10    4.60
   1  13   2   -3.10    4.00
  -1  13  -2   -4.40    6.40
   1  13   3    1.90    3.90
  -1  13  -3    4.10    6.30
  -1  13  -3   -2.10    7.30
   1  13   3    0.80    3.70
  -1  13  -4   12.30    7.30
   2   0 -14   16.40    9.00
   2   0 -14    4.40    8.00
   2   0 -13    0.20    6.70
   2   0 -13   -3.00    6.60
   2   0 -12   39.40    9.20
   2   0 -12    8.00    6.80
   2   0 -11    7.00    6.20
   2   0 -11   -1.00    2.90
   2   0 -10   16.30    6.70
  -2   0   9    1.30    5.10
   2   0  -9    2.30    4.60
   2   0  -8  101.59   14.50
  -2   0   8   56.69   12.70
   2   0  -7    2.90    4.70
  -2   0   7    4.90    4.60
   2   0  -6  189.58   27.60
  -2   0   6  179.38   27.50
  -2   0   5   -0.40    3.80
   2   0  -5    2.90    4.00
   2   0  -4    7.30    4.50
  -2   0   4    9.40    4.20
  -2   0   3   -3.80    3.00
   2   0  -3   -3.00    3.20
   2   0  -2  698.93   98.99
  -2   0   2  700.63   98.99
  -2   0   1    2.00    2.20
  -2   0   0  377.86   53.69
  -2   0  -1   -2.60    4.10
   2   0   1    2.30    3.30
   2   0   2    3.10    3.30
   2   0   3    4.00    4.20
   2   0   4  407.46   58.49
   2   0   5   -3.20    4.10
   2   0   6 1460.85  206.78
   2   0   7   -5.30    3.60
  -2   0  -7   -4.10    4.10
  -2   0  -8    3.10    4.40
  -2   0  -8   -0.50    2.30
   2   0   8   -1.00    4.50
  -2   0  -9   14.10    6.20
  -2   0  -9   -0.60    4.00
  -2   0 -10  396.06   57.49
  -2   0 -10  382.46   57.39
  -2   0 -11   -0.30    6.90
  -2   0 -11    1.90    6.50
  -2   0 -12   69.39   16.30
  -2   0 -12  101.99   20.70
  -2   0 -13    6.90    9.40
  -2   0 -13   -7.20    9.20
   2   1 -14   -1.40    7.50
   2  -1 -14    8.50    7.10
   2  -1 -14    2.10    7.70
   2   1 -13  128.09   24.90
   2   1 -13  145.59   25.60
   2  -1 -13  158.08   25.00
   2   1 -12    3.50    7.20
   2   1 -12    1.20    6.30
   2  -1 -12   17.00    7.40
   2  -1 -12   -0.60    5.70
   2   1 -11   48.90   11.10
   2   1 -11   66.59   11.80
   2  -1 -11   36.40   10.10
   2  -1 -11   34.30   10.10
   2   1 -10   -1.50    5.70
   2   1 -10   -6.40    4.30
   2  -1 -10   -0.70    4.60
   2  -1 -10    8.80    5.30
   2   1  -9    0.10    5.00
   2   1  -9    6.30    5.10
  -2   1   9   10.80    4.60
   2  -1  -9    1.00    4.50
   2  -1  -9   -2.20    7.30
   2   1  -8   89.09   16.90
  -2   1   8  100.29   16.70
   2   1  -8   98.99   17.20
   2  -1  -8  111.09   17.50
   2  -1  -8  128.29   17.70
  -2  -1   8   88.99   17.00
  -2   1   7   86.49   14.40
   2   1  -7   74.99   14.70
   2  -1  -7  100.69   14.90
  -2   1   6    9.20    4.10
   2   1  -6    5.90    4.60
   2  -1  -6   12.90    4.40
  -2  -1   6    0.50    4.70
   2   1  -5    8.70    4.60
  -2   1   5    0.00    3.70
  -2  -1   5   -4.90    3.80
   2  -1  -5    7.50    4.10
  -2   1   4  555.74   79.09
   2   1  -4  531.95   79.39
  -2  -1   4  580.64   79.39
   2  -1  -4  561.04   79.19
  -2   1   3  168.28   24.40
   2   1  -3  174.18   24.80
  -2  -1   3  166.58   24.70
   2  -1  -3  161.48   24.40
   2   1  -2   10.80    3.60
  -2   1   2   13.40    3.80
   2  -1  -2    9.80    3.40
  -2  -1   2   11.40    3.50
  -2   1   1    1.80    2.60
   2   1  -1   -1.20    2.70
   2  -1  -1   -2.10    3.00
  -2  -1   1    1.40    2.60
  -2   1   0   98.39   15.00
   2   1   0  107.99   14.80
   2  -1   0   88.49   15.00
  -2   1  -1  123.59   17.20
   2   1   1  119.19   16.90
   2  -1   1  132.19   17.90
  -2  -1  -1   94.19   16.50
   2   1   2   51.59    9.00
  -2   1  -2   68.79   10.60
   2  -1   2   48.70   10.30
  -2  -1  -2   51.69    9.20
  -2   1  -3  293.97   41.20
   2   1   3  285.87   40.80
   2  -1   3  267.27   41.10
  -2  -1  -3  282.57   40.80
  -2   1  -4    8.60    5.20
   2   1   4   -3.90    3.90
   2  -1   4   13.30    5.00
  -2  -1  -4    5.20    4.10
   2   1   5  157.18   25.70
  -2   1  -5  186.38   26.50
   2  -1   5  192.68   26.40
  -2  -1  -5  163.68   26.00
   2   1   6    5.90    4.40
  -2   1  -6   -0.20    5.00
   2  -1   6    5.60    4.70
   2   1   7   43.50    9.30
  -2   1  -7   57.09   10.80
  -2  -1  -7   49.40   10.20
   2  -1   7   48.80    9.90
  -2  -1  -7   37.20    8.50
  -2   1  -8    9.10    5.50
  -2   1  -8   -2.70    5.50
   2   1   8   13.20    5.60
  -2  -1  -8    7.50    5.50
  -2  -1  -8    9.90    5.00
   2  -1   8   -2.20    4.90
  -2   1  -9    9.00    5.80
  -2   1  -9    5.20    6.80
  -2  -1  -9   18.70    7.10
  -2  -1  -9    9.30    5.50
  -2   1 -10   -2.70    5.70
  -2   1 -10   10.20    7.80
  -2  -1 -10   12.90    6.50
  -2  -1 -10   -7.90    6.10
  -2   1 -11   -0.40   13.70
  -2   1 -11    4.40    6.60
  -2  -1 -11   -2.10    6.30
  -2  -1 -11   10.30    8.10
  -2   1 -12   16.30    9.50
  -2  -1 -12   23.30   10.80
  -2  -1 -12   26.60    9.50
  -2   1 -13   34.40   12.20
  -2  -1 -13   34.50   13.00
   2   2 -14    8.70    8.60
   2   2 -14   10.20    9.10
   2  -2 -14   -3.00    7.40
   2   2 -13   32.50   11.20
   2   2 -13   37.00   11.40
   2  -2 -13   29.50   10.50
   2  -2 -13   38.40    9.70
   2   2 -12   51.69   12.10
   2   2 -12   38.10   12.30
   2  -2 -12   58.09   12.30
   2  -2 -12   56.59   12.00
   2   2 -11   34.90    9.80
   2   2 -11   37.30   10.10
   2  -2 -11   29.40    9.00
   2  -2 -11   34.90    8.50
   2   2 -10  117.99   20.60
   2   2 -10  120.09   19.80
   2  -2 -10  118.59   18.80
   2  -2 -10   97.49   18.50
   2   2  -9   48.00   10.40
  -2   2   9   34.20    7.90
   2   2  -9   23.50    8.40
   2  -2  -9   34.20    8.10
   2  -2  -9   59.79    9.40
  -2   2   8   39.60    7.50
   2   2  -8   33.60    8.30
   2   2  -8   26.90    8.50
   2  -2  -8   29.10    7.30
  -2  -2   8   28.40    7.50
   2  -2  -8   31.70    7.20
  -2   2   7   90.39   13.80
   2   2  -7   75.59   14.50
  -2  -2   7   67.99   14.30
   2  -2  -7   92.29   13.90
   2   2  -6    2.70    4.20
  -2   2   6    4.50    3.80
   2  -2  -6   -3.50    3.60
  -2  -2   6    4.10    4.80
   2   2  -5    4.40    4.30
  -2   2   5   15.80    4.00
  -2  -2   5    5.10    5.30
   2  -2  -5    1.70    3.70
  -2   2   4  579.74   82.39
   2   2  -4  578.24   82.79
  -2  -2   4  584.14   82.89
   2  -2  -4  582.64   82.39
   2   2  -3    5.70    4.20
  -2   2   3    1.30    3.00
  -2  -2   3   -1.40    3.60
   2  -2  -3   -0.60    3.10
   2   2  -2 1720.33  236.88
  -2   2   2 1655.73  236.68
   2  -2  -2 1661.63  236.68
  -2  -2   2 1682.63  236.88
   2   2  -1   33.00    6.70
  -2   2   1   40.90    7.10
   2  -2  -1   42.70    7.30
  -2   2   0 1070.09  152.48
   2   2   0 1075.69  152.28
   2  -2   0 1063.69  152.48
  -2  -2   0 1107.19  152.28
   2   2   1   16.50    3.90
  -2   2  -1    9.70    4.60
  -2  -2  -1   11.70    3.70
   2  -2   1   25.40    5.60
   2   2   2  522.05   76.69
  -2   2  -2  583.94   77.39
  -2  -2  -2  543.85   76.69
   2  -2   2  525.35   77.29
   2   2   3    2.80    3.10
  -2   2  -3   -3.00    4.10
  -2  -2  -3   -7.60    3.20
   2  -2   3   -5.00    4.10
  -2   2  -4  554.94   79.89
   2   2   4  556.54   79.29
   2  -2   4  547.85   79.79
  -2  -2  -4  568.04   79.29
   2   2   5   22.70    6.00
  -2   2  -5   21.20    6.70
  -2  -2  -5   26.40    6.50
   2  -2   5   45.40    8.20
  -2   2  -6  981.60  139.39
   2   2   6  953.10  138.69
   2  -2   6 1001.20  139.29
  -2  -2  -6  982.50  138.79
   2   2   7   10.10    4.70
  -2   2  -7   12.50    6.30
   2  -2   7   17.30    5.90
  -2  -2  -7   13.60    6.00
  -2  -2  -7    5.30    4.20
  -2   2  -8   18.70    8.00
  -2   2  -8   23.20    7.40
  -2  -2  -8   40.20    8.30
   2  -2   8   27.00    8.10
  -2  -2  -8   25.10    6.50
  -2   2  -9    4.00    7.10
  -2   2  -9   16.90    7.50
  -2  -2  -9   10.10    6.20
  -2  -2  -9    2.60    4.60
  -2   2 -10   99.69   18.10
  -2   2 -10   68.89   15.80
  -2  -2 -10   83.79   15.60
  -2  -2 -10   90.29   16.10
  -2   2 -11    4.60    8.10
  -2   2 -11   -6.70    6.10
  -2  -2 -11    4.80    7.90
  -2  -2 -11   -3.00    7.00
  -2   2 -12   67.59   17.50
  -2  -2 -12   87.09   17.20
  -2   2 -13   -6.40   10.00
  -2   2 -13   12.90   10.50
  -2  -2 -13    1.70    9.00
   2   3 -14   13.90   10.60
   2   3 -14   -3.40    9.10
   2  -3 -14   -3.60    7.50
   2   3 -13   59.59   14.60
   2   3 -13   53.29   14.30
   2  -3 -13   70.49   13.70
   2   3 -12   40.40   10.20
   2   3 -12   16.80    9.50
   2  -3 -12   22.50    8.80
   2  -3 -12   19.50    7.10
   2   3 -11   54.19   14.50
   2   3 -11   62.99   14.10
   2  -3 -11   84.89   13.60
   2  -3 -11   72.09   13.00
   2   3 -10   40.30   10.20
   2   3 -10   21.90    8.00
   2  -3 -10   26.20    7.60
   2  -3 -10   28.50    7.10
   2   3  -9    4.00    5.90
   2   3  -9    1.40    5.80
  -2   3   9    2.00    3.90
   2  -3  -9    6.30    4.30
   2  -3  -9    0.60    4.20
   2   3  -8  345.67   49.40
   2   3  -8  355.66   49.50
  -2   3   8  340.57   48.40
   2  -3  -8  321.77   48.20
   2  -3  -8  324.67   48.40
   2   3  -7  321.87   45.70
  -2   3   7  304.07   44.60
   2  -3  -7  315.07   44.70
  -2  -3   7  299.07   45.60
  -2   3   6   14.40    4.10
   2   3  -6   14.00    5.50
  -2  -3   6   10.90    5.50
   2  -3  -6   14.60    4.50
  -2   3   5  110.29   16.90
   2   3  -5  114.09   18.80
  -2  -3   5  119.99   18.50
   2  -3  -5  112.29   17.00
  -2   3   4   66.69    9.40
   2   3  -4   53.79   10.50
  -2  -3   4   35.90    9.80
   2  -3  -4   62.59    9.40
   2   3  -3 1119.99  148.59
  -2   3   3 1058.79  147.59
   2  -3  -3 1035.00  147.59
  -2  -3   3  981.50  147.99
   2   3  -2  449.56   63.99
  -2   3   2  445.96   63.69
   2  -3  -2  449.16   63.69
   2   3  -1   17.90    4.90
  -2   3   1   20.60    5.00
  -2  -3   1   16.20    4.20
   2  -3  -1   25.50    5.00
  -2   3   0  137.09   20.80
   2   3   0  134.29   20.30
  -2  -3   0  137.99   20.20
   2  -3   0  143.49   20.80
  -2   3  -1  781.92  110.49
   2   3   1  786.02  109.89
  -2  -3  -1  778.62  109.79
   2  -3   1  763.62  110.39
   2   3   2  127.49   19.40
  -2   3  -2  142.49   20.80
  -2  -3  -2  136.09   19.40
   2  -3   2  126.49   20.70
   2   3   3  122.09   17.30
  -2   3  -3  102.49   18.50
   2  -3   3  126.39   18.80
  -2  -3  -3  114.49   17.40
   2   3   4   -0.80    3.00
  -2   3  -4   -1.30    5.30
  -2  -3  -4    6.80    3.50
   2  -3   4    1.00    3.90
   2   3   5  147.09   22.40
  -2   3  -5  167.58   24.10
   2  -3   5  151.68   23.60
  -2  -3  -5  146.79   22.70
  -2   3  -6   12.00    6.80
   2   3   6   13.40    4.40
   2  -3   6    8.70    5.10
  -2  -3  -6    9.40    4.90
  -2  -3  -6    6.70    3.70
   2   3   7   53.19    9.50
  -2   3  -7   44.80   10.80
  -2   3  -7   62.89   11.90
  -2  -3  -7   88.39   11.50
   2  -3   7   49.99   10.70
  -2  -3  -7   34.60    8.60
  -2   3  -8    4.90    6.20
  -2   3  -8    2.60    5.20
  -2  -3  -8   -3.40    3.20
  -2  -3  -8   12.30    6.20
  -2   3  -9   -3.80    6.90
  -2   3  -9    8.20    6.80
  -2  -3  -9   11.30    6.20
  -2  -3  -9    5.30    4.80
  -2   3 -10   -1.50    6.00
  -2   3 -10    3.70    8.00
  -2  -3 -10   -6.00    4.10
  -2  -3 -10    3.80    7.10
  -2   3 -11   27.70    9.00
  -2   3 -11   57.39   12.60
  -2  -3 -11   27.20    9.50
  -2  -3 -11    5.40    5.80
  -2   3 -12   12.30    9.70
  -2   3 -12   -4.20    9.90
  -2  -3 -12    6.70    9.00
  -2   3 -13   22.20   11.50
   2   4 -14  -12.00    9.10
   2   4 -14   -1.00   11.60
   2  -4 -14    2.30    7.70
   2   4 -13   92.39   18.70
   2   4 -13   66.59   16.30
   2  -4 -13   67.99   14.60
   2  -4 -13   97.09   15.70
   2   4 -12   56.19   13.40
   2   4 -12   43.50   13.40
   2  -4 -12   50.19   10.80
   2  -4 -12   47.00   10.90
   2   4 -11   11.90    8.10
   2   4 -11    5.30    6.70
   2  -4 -11   -5.50    4.10
   2   4 -10  120.09   23.10
   2   4 -10  135.29   24.10
   2  -4 -10  145.79   21.70
   2  -4 -10  132.19   21.50
   2   4  -9   51.89   12.00
   2   4  -9   32.00   10.50
   2  -4  -9   61.19   10.10
   2  -4  -9   53.39    9.60
   2   4  -8   98.29   19.10
   2   4  -8  104.99   19.40
  -2   4   8  118.19   16.80
   2  -4  -8  107.39   17.30
   2  -4  -8  106.09   17.00
   2   4  -7    5.50    5.00
  -2   4   7    6.00    3.30
   2   4  -7   -5.80    4.70
   2  -4  -7   11.30    4.10
  -2  -4   7   -1.90    5.00
  -2   4   6  269.57   40.30
   2   4  -6  306.57   41.80
  -2  -4   6  291.17   41.70
   2  -4  -6  278.27   40.40
   2   4  -5   60.79   11.60
  -2   4   5   67.79   10.10
   2  -4  -5   64.39   10.00
  -2  -4   5   49.00   11.10
   2   4  -4   -4.40    4.10
  -2   4   4    8.30    3.20
   2  -4  -4    1.60    3.00
  -2  -4   4    3.60    4.50
   2   4  -3  142.99   23.00
  -2   4   3  156.98   22.40
   2  -4  -3  149.59   22.30
  -2  -4   3  160.78   23.20
  -2   4   2 1044.50  146.99
   2   4  -2 1045.50  147.29
   2  -4  -2 1032.10  146.99
   2   4  -1 1891.91  254.87
  -2   4   1 1753.32  254.77
  -2  -4   1 1820.12  254.77
   2  -4  -1 1762.52  254.77
  -2   4   0   36.10    8.90
   2   4   0   58.39    8.90
   2  -4   0   45.40    9.20
  -2  -4   0   57.09    8.60
  -2   4  -1   29.70    8.30
   2   4   1   47.70    7.80
   2  -4   1   49.99    9.20
  -2  -4  -1   51.39    7.60
  -2   4  -2   10.10    5.30
   2   4   2    8.30    3.30
  -2  -4  -2   15.30    3.20
   2  -4   2   13.80    5.90
   2   4   3   45.00    7.20
  -2   4  -3   30.40    8.80
   2  -4   3   22.20    8.50
  -2  -4  -3   58.49    7.30
   2   4   4   16.60    3.70
  -2   4  -4    6.00    5.50
   2  -4   4   17.50    5.70
  -2  -4  -4    9.80    3.50
  -2   4  -5    2.80    5.30
   2   4   5    3.80    3.10
   2  -4   5    7.70    4.80
  -2  -4  -5    5.30    3.70
  -2  -4  -5   -1.50    2.40
   2   4   6  442.76   64.29
  -2   4  -6  446.36   65.69
  -2  -4  -6  465.85   64.29
   2  -4   6  475.65   65.69
  -2  -4  -6  432.66   64.39
  -2   4  -7    7.60    5.80
  -2   4  -7   -8.50    5.80
  -2  -4  -7    5.00    4.70
   2  -4   7    8.40    6.00
  -2  -4  -7   -2.30    3.10
  -2   4  -8   65.69   13.70
  -2  -4  -8   54.69   11.30
  -2  -4  -8   54.19   10.20
  -2   4  -9    1.20    7.50
  -2   4  -9   11.50    6.80
  -2  -4  -9    6.20    6.00
  -2  -4  -9    4.30    4.00
  -2   4 -10  156.28   23.60
  -2   4 -10   72.29   19.70
  -2  -4 -10  129.59   19.30
  -2  -4 -10  125.69   20.50
  -2   4 -11   33.70   13.30
  -2   4 -11   37.50   11.80
  -2  -4 -11   40.20   10.90
  -2  -4 -11   32.30    8.50
  -2   4 -12  115.19   21.20
  -2   4 -12   64.49   17.80
  -2  -4 -12  117.19   19.50
   2   5 -14   18.50   11.60
   2   5 -13   20.90   14.90
   2   5 -13    1.20    8.10
   2  -5 -13   19.40    8.10
   2  -5 -13   13.40    6.40
   2   5 -12    5.30    9.10
   2   5 -12   14.80    8.80
   2  -5 -12   17.30   10.00
   2  -5 -12   10.00    9.20
   2   5 -11   81.59   16.30
   2   5 -11   65.59   15.20
   2  -5 -11   75.69   12.90
   2  -5 -11   61.19   12.50
   2   5 -10   -4.50    6.90
   2   5 -10   -3.70    6.60
   2  -5 -10    4.50    4.50
   2  -5 -10    7.10    4.60
   2   5  -9    9.00    6.00
   2   5  -9    4.10    7.50
   2  -5  -9   11.70    4.50
   2  -5  -9   12.10    4.80
   2   5  -8   15.10    6.80
   2   5  -8    2.70    6.00
  -2   5   8    2.70    3.10
   2  -5  -8    3.10    3.20
   2  -5  -8    6.40    3.80
   2   5  -7  195.18   28.80
  -2   5   7  196.08   26.80
   2   5  -7  184.28   28.80
   2  -5  -7  180.98   26.60
   2  -5  -7  173.18   26.80
   2   5  -6   24.50    7.70
  -2   5   6   26.40    5.50
   2   5  -6   19.30    7.30
   2  -5  -6   38.30    5.60
  -2   5   5  252.47   36.30
   2   5  -5  226.98   37.60
  -2  -5   5  262.27   37.80
   2  -5  -5  262.37   36.20
  -2   5   4  101.99   15.50
   2   5  -4   99.19   17.20
  -2  -5   4  104.89   17.20
   2  -5  -4  105.39   15.40
  -2   5   3  296.17   42.90
   2   5  -3  303.67   43.30
   2  -5  -3  293.47   42.40
   2   5  -2  117.69   16.20
  -2   5   2   94.69   15.50
   2  -5  -2  104.89   15.50
  -2  -5   2   91.49   15.50
   2   5  -1    4.40    3.80
  -2   5   1    1.70    3.80
   2  -5  -1   -3.40    3.80
  -2  -5   1    1.30    3.50
   2   5   0    5.30    3.40
  -2   5   0   -3.20    4.00
   2  -5   0    3.10    4.10
  -2  -5   0    2.30    3.40
   2   5   1   56.49    9.30
  -2   5  -1   49.10   10.40
   2  -5   1   52.79   10.40
  -2  -5  -1   63.19    9.20
   2   5   2   -1.00    2.30
  -2   5  -2    2.50    5.20
  -2  -5  -2   -1.20    1.80
   2  -5   2   -4.30    3.60
   2   5   3   32.70    5.30
  -2   5  -3   20.40    7.20
   2  -5   3   34.10    7.30
   2   5   4   15.20    3.40
  -2   5  -4   15.40    6.90
   2  -5   4   10.80    5.80
  -2   5  -5   16.80    7.30
   2   5   5   15.60    3.70
   2  -5   5   18.30    6.80
  -2  -5  -5   16.40    3.30
  -2  -5  -5   13.10    3.00
  -2   5  -6    5.00    6.10
  -2  -5  -6   -1.60    2.90
  -2  -5  -6   -1.20    2.10
   2  -5   6    2.20    5.10
  -2   5  -7  188.58   24.40
  -2   5  -7  104.49   21.20
  -2  -5  -7  127.19   19.30
  -2  -5  -7  123.99   18.70
  -2   5  -8   75.59   14.60
  -2   5  -8   24.60    9.60
  -2  -5  -8   59.49    8.30
  -2  -5  -8   32.60    8.20
  -2   5  -9   -2.20    5.90
  -2   5  -9   -1.80    7.60
  -2  -5  -9   -1.40    3.50
  -2  -5  -9    2.50    5.70
  -2   5 -10   -4.20    6.70
  -2   5 -10   -5.20    8.40
  -2  -5 -10   -0.90    4.00
  -2   5 -11   14.60   10.40
  -2   5 -11    1.10    8.10
  -2  -5 -11   11.60    7.40
  -2  -5 -11    3.60    5.20
  -2   5 -12    7.60    9.20
  -2   5 -12   -3.80   10.10
  -2  -5 -12    4.80    7.70
   2   6 -13    9.10   11.20
   2   6 -13   24.10   10.50
   2  -6 -13    9.30    6.40
   2  -6 -13   -6.20    5.10
   2   6 -12   22.30    9.70
   2   6 -12   44.50   12.60
   2  -6 -12   16.70    6.40
   2  -6 -12   20.00    6.90
   2   6 -11   18.50   10.00
   2   6 -11   25.80    9.00
   2  -6 -11   26.10    6.10
   2  -6 -11   22.90    6.60
   2   6 -10   11.40    7.70
   2   6 -10   22.30    8.80
   2  -6 -10   31.50    5.60
   2  -6 -10   15.70    5.30
   2   6  -9   57.89   11.60
   2   6  -9    7.80    8.20
   2  -6  -9   39.20    6.40
   2  -6  -9   36.70    6.60
   2   6  -8   10.40    6.80
   2   6  -8    2.20    6.70
   2   6  -7  318.17   44.40
   2   6  -7  280.87   44.10
  -2   6   7  293.17   42.10
   2   6  -6   85.29   16.90
  -2   6   6   94.89   13.70
   2   6  -6   86.19   17.10
   2   6  -5   53.69   11.90
  -2   6   5   73.99   10.40
   2   6  -5   56.49   12.50
  -2   6   4   87.29   12.40
   2   6  -4   67.39   13.60
   2  -6  -4   77.69   11.90
  -2   6   3  138.59   19.30
   2   6  -3  132.39   20.20
   2  -6  -3  119.39   19.10
  -2   6   2   81.69   14.30
   2   6  -2   89.09   14.90
   2  -6  -2   97.39   14.40
  -2  -6   2   89.49   14.70
  -2   6   1    1.50    4.20
   2   6  -1    3.40    4.00
  -2  -6   1   -2.70    2.90
   2  -6  -1    0.10    3.30
   2   6   0  348.37   50.89
  -2   6   0  362.86   51.49
   2  -6   0  356.46   51.19
  -2   6  -1   26.60    7.80
   2   6   1   39.80    6.30
   2  -6   1   22.90    6.80
   2   6   2   15.50    3.90
  -2   6  -2   29.50    7.40
   2  -6   2   17.20    5.80
   2   6   3    1.80    2.00
  -2   6  -3   -4.50    5.50
   2  -6   3   -4.90    4.10
  -2   6  -4   28.60    8.80
   2  -6   4   33.20    8.50
  -2   6  -5  210.68   31.60
   2  -6   5  196.18   31.20
  -2   6  -6   98.19   17.50
  -2   6  -6   88.19   17.20
  -2   6  -7   -1.00    5.10
  -2   6  -7    9.60    8.30
  -2   6  -8    2.20    6.30
  -2   6  -8   32.30   11.00
  -2  -6  -8   19.60    4.60
  -2  -6  -8   21.80    4.20
  -2   6  -9    0.90    6.80
  -2   6  -9   -8.30    7.60
  -2  -6  -9   -3.80    2.80
  -2  -6  -9   -3.40    3.80
  -2   6 -10   41.60   13.40
  -2   6 -10   38.60   12.10
  -2  -6 -10   41.30    7.50
  -2  -6 -10   28.40    8.30
  -2   6 -11   15.70   11.70
  -2   6 -11  -10.50    8.10
  -2  -6 -11   -1.10    5.70
  -2  -6 -11    7.60    4.50
   2   7 -13    2.60    9.20
   2  -7 -13   18.80    5.40
   2   7 -12   27.00   11.80
   2   7 -12   14.90    9.40
   2   7 -11   15.30   10.30
   2   7 -11   35.90   10.50
   2   7 -10   51.49   13.10
   2   7 -10   15.50    8.80
   2   7  -9    0.90    5.90
   2   7  -9   -1.10    7.70
   2   7  -8   79.79   15.80
   2   7  -8   67.19   14.70
   2   7  -7  138.19   22.90
   2   7  -7  118.49   21.60
   2   7  -6   12.80    6.70
   2   7  -6    9.60    5.60
  -2   7   6   16.80    3.20
   2   7  -5   41.40   11.70
  -2   7   5   69.99    9.80
   2   7  -5   60.29   11.90
   2   7  -4  256.67   38.20
   2   7  -4  265.37   38.40
  -2   7   4  254.07   37.00
   2   7  -3   64.99   12.40
  -2   7   3   70.29   11.70
   2   7  -2    2.30    3.80
  -2   7   2    0.50    3.30
  -2   7   1    4.40    4.10
   2   7  -1    2.20    3.60
   2  -7  -1    3.80    4.60
   2   7   0  320.77   45.70
  -2   7   0  293.27   46.30
   2  -7   0  342.07   46.80
  -2   7  -1    3.00    4.80
   2   7   1    0.50    3.00
   2  -7   1   -6.10    4.40
  -2   7  -2   32.70    8.30
   2   7   2   21.90    4.80
   2  -7   2   17.80   10.30
   2   7   3   25.40    4.30
  -2   7  -3    9.90    7.20
  -2   7  -4    9.20    6.50
   2  -7   4    8.20    9.70
  -2   7  -5   98.39   18.50
  -2   7  -5  116.19   19.30
  -2   7  -6   -0.40    6.30
  -2   7  -6   -0.80    5.10
  -2   7  -7   28.00   10.40
  -2   7  -7   83.89   15.90
  -2   7  -8   41.70   13.00
  -2   7  -8   36.50   11.00
  -2   7  -9    6.20   10.00
  -2   7  -9   18.30    8.40
  -2   7 -10    7.30    7.80
  -2   7 -10   37.70   13.30
  -2   7 -11   10.50    9.60
  -2   7 -11   27.80   13.20
   2   8 -12  118.99   22.10
   2   8 -12   64.99   19.00
   2   8 -11   -4.80    9.40
   2   8 -11   -9.50    7.40
   2   8 -10   20.70    9.20
   2   8 -10   34.30   12.50
   2   8  -9   22.60    9.90
   2   8  -9   16.40    8.00
   2   8  -8   27.50    8.80
   2   8  -8   30.30   10.10
   2   8  -7   37.60    9.90
   2   8  -7   33.40   10.40
   2   8  -6   -1.50    5.80
   2   8  -6    0.30    4.70
   2   8  -5   50.59   12.30
  -2   8   5   75.49   10.30
   2   8  -5   42.40   12.10
   2   8  -4   22.00    7.40
   2   8  -4   24.10    7.50
  -2   8   4   26.20    5.70
   2   8  -3   55.79   10.70
   2   8  -3   43.40   10.10
  -2   8   3   52.59    9.40
   2   8  -2  114.29   18.10
   2   8  -2  113.09   18.30
  -2   8   2  106.09   17.30
   2   8  -1  123.99   20.70
   2   8  -1  136.39   20.90
  -2   8   1  143.89   20.90
   2   8   0  114.79   19.80
   2   8   0  123.79   19.50
  -2   8   0  157.88   21.50
   2   8   1   10.80    3.80
   2   8   1    7.10    3.50
  -2   8  -1   -1.10    4.60
  -2   8  -2   15.10    6.90
   2   8   2   20.40    4.80
   2   8   2   28.80    5.20
   2   8   3   -2.40    2.10
  -2   8  -3    5.20    5.60
   2   8   3    2.70    2.20
  -2   8  -4   44.90   11.30
  -2   8  -4  105.29   15.70
  -2   8  -5    3.10    7.30
  -2   8  -5    0.90    5.00
  -2   8  -6   36.00   11.60
  -2   8  -6   27.50    8.60
  -2   8  -7   10.90    6.50
  -2   8  -7   -0.60    7.70
  -2   8  -8   13.70   10.00
  -2   8  -8   -8.70    6.60
  -2   8  -9   -5.40    9.40
  -2   8  -9   -3.90    6.70
  -2   8 -10   -1.90   11.60
  -2   8 -10    5.30    8.00
   2   9 -11   22.70   10.90
   2   9 -11   30.60   14.10
   2   9 -10    1.30   10.20
   2   9 -10   -3.50    7.10
   2   9  -9   -2.70    8.70
   2   9  -9    0.70    6.20
   2   9  -8   67.19   14.90
   2   9  -8   65.49   15.10
   2   9  -7   37.30   10.60
   2   9  -7   52.09   12.20
   2   9  -6    6.80    5.90
   2   9  -6    0.70    6.40
   2   9  -5   57.89   11.80
   2   9  -5   40.80   10.20
   2   9  -4    2.40    5.10
   2   9  -4   12.40    6.30
  -2   9   4    7.00    4.00
   2   9  -3   11.40    6.20
   2   9  -3    5.70    4.80
  -2   9   3    3.50    4.00
   2   9  -2   68.29   13.80
   2   9  -2   76.79   13.80
  -2   9   2   87.09   13.70
   2   9  -1   42.20    8.70
   2   9  -1   39.40    8.30
  -2   9   1   29.40    8.20
  -2   9   0    8.50    5.70
   2   9   0    5.80    3.80
   2   9   0    3.80    3.70
   2   9   1   97.29   15.60
   2   9   1  101.99   16.00
  -2   9  -1   98.29   17.50
   2   9   2   25.50    6.00
   2   9   2   35.00    6.40
  -2   9  -2   35.90    9.30
   2   9   3    0.20    2.70
   2   9   3    4.60    2.60
  -2   9  -3    9.20    5.30
  -2   9  -3   13.50    7.60
  -2   9  -4   16.90    7.90
  -2   9  -4   19.00    7.10
  -2   9  -5   63.49   14.50
  -2   9  -5   93.49   16.90
  -2   9  -6   -3.20    8.20
  -2   9  -6    1.90    5.90
  -2   9  -7    1.30    9.00
  -2   9  -7   -6.90    5.30
  -2   9  -8   11.50    8.00
  -2   9  -8    5.60    9.90
  -2   9  -9    0.10    9.50
  -2   9  -9   -9.40   10.60
   2  10 -10    7.10   10.60
   2  10 -10    1.60    7.00
   2  10  -9   32.10   11.80
   2  10  -9   58.49   14.00
   2  10  -8    4.80    8.30
   2  10  -8    7.80    7.00
   2  10  -7    2.00    7.70
   2  10  -7   21.70    8.20
   2  10  -6   38.10    9.80
   2  10  -6   28.00   10.10
   2  10  -5    1.10    5.80
  -2  10   5    1.80    2.20
   2  10  -5   -4.80    4.40
  -2  10   5    0.10    3.10
   2  10  -4   -0.40    4.70
  -2  10   4    5.20    3.50
   2  10  -4   10.20    6.10
  -2  10   4    5.30    4.00
   2  10  -3   25.80    8.00
  -2  10   3   28.30    6.90
   2  10  -3   26.90    7.70
  -2  10   3   24.00    6.00
  -2  10   2   -3.40    3.40
   2  10  -2    3.20    4.80
   2  10  -2   -5.70    4.20
  -2  10   2    8.00    4.60
  -2  10   1   21.90    6.20
   2  10  -1   16.90    5.80
   2  10  -1   24.40    7.00
  -2  10   1    8.90    6.10
  -2  10   0   37.40    8.50
  -2  10   0   33.60    9.00
   2  10   0   33.30    7.70
   2  10   0   30.80    7.60
  -2  10  -1    0.70    4.50
   2  10   1   -2.40    3.30
  -2  10  -1    3.20    5.80
   2  10   1    3.20    3.50
   2  10   2    5.30    3.80
   2  10   2   13.20    4.10
  -2  10  -2    5.90    6.30
  -2  10  -2    9.60    5.80
   2  10   3    3.40    2.90
  -2  10  -3    7.10    5.30
  -2  10  -3    0.50    6.50
   2  10   3    0.20    2.80
  -2  10  -4  -12.10    6.60
  -2  10  -4    8.30    6.30
  -2  10  -5   57.69   13.20
  -2  10  -5   63.89   14.70
  -2  10  -6    6.50    6.60
  -2  10  -6    0.20    8.00
  -2  10  -7   -0.30    8.50
  -2  10  -7   -2.00    6.90
  -2  10  -8   -2.30    7.40
  -2  10  -8    5.60   10.70
   2  11  -9    3.60    9.30
   2  11  -9    0.30    7.20
   2  11  -8    8.50    7.30
   2  11  -8    2.70    9.40
   2  11  -7   21.30   10.20
   2  11  -7   16.50    8.00
   2  11  -6    4.10    7.50
   2  11  -6   -8.50    7.10
  -2  11   5   17.10    4.10
  -2  11   5   22.30    5.00
   2  11  -5    4.60    6.10
   2  11  -4   38.30   12.00
  -2  11   4   68.99   11.30
  -2  11   4   66.09   10.50
   2  11  -4   61.69   16.20
  -2  11   3    0.10    3.70
   2  11  -3    8.70    6.90
  -2  11   3   13.90    5.50
   2  11  -3    4.70    5.30
  -2  11   2  103.19   17.10
   2  11  -2   94.79   17.10
   2  11  -2   93.99   17.30
  -2  11   1   -2.00    4.40
   2  11  -1    1.80    5.10
  -2  11   1   -5.60    4.30
   2  11  -1    1.10    4.40
   2  11   0  142.19   20.00
   2  11   0   94.29   19.20
  -2  11   0  115.79   20.00
  -2  11   0  136.99   21.40
  -2  11  -1    6.30    5.60
   2  11   1   -0.50    3.80
  -2  11  -1   -1.20    5.60
   2  11   1    1.10    4.20
  -2  11  -2   -1.20    5.30
  -2  11  -2   -4.10    6.40
   2  11   2    1.20    3.50
   2  11   2   -2.60    3.60
  -2  11  -3    7.40    6.20
   2  11   3    6.40    3.30
  -2  11  -3    3.70    8.30
   2  11   3    1.70    3.10
  -2  11  -4   -7.00    4.80
  -2  11  -5   13.80   10.70
  -2  11  -5   10.80    8.10
  -2  11  -6    8.70    8.00
  -2  11  -6   16.30   10.20
  -2  11  -7   24.40   12.50
  -2  11  -7    6.70    7.50
   2  12  -7    5.50    9.70
   2  12  -7    2.00    6.60
   2  12  -6    2.60    6.40
   2  12  -6   11.60    8.80
   2  12  -5    4.30    5.90
  -2  12   5    7.20    3.40
   2  12  -5   -0.10    7.40
  -2  12   5   17.20    4.50
   2  12  -4    2.20    6.30
  -2  12   4    1.00    3.40
   2  12  -4   -1.30    5.50
  -2  12   4   -4.90    4.10
  -2  12   3    3.50    3.90
  -2  12   3    4.10    5.10
   2  12  -3    3.00    5.50
   2  12  -3    4.30    6.60
  -2  12   2   49.30   10.40
   2  12  -2   41.70   10.30
  -2  12   2   37.80    8.90
   2  12  -2   46.20   10.70
   2  12  -1    6.60    5.50
  -2  12   1    4.00    5.00
   2  12  -1    3.60    5.30
  -2  12   1    1.20    5.40
  -2  12   0   11.90    6.80
   2  12   0    1.50    4.70
  -2  12   0    2.40    5.20
   2  12   0   10.70    5.90
   2  12   1    9.40    5.30
  -2  12  -1   13.20    6.20
  -2  12  -1    1.20    6.70
   2  12   1    7.90    5.10
   2  12   2   -4.40    3.90
  -2  12  -2   -1.50    6.60
  -2  12  -2   12.30    6.60
   2  12   2    1.10    3.90
  -2  12  -3   25.80   10.20
   2  12   3   49.30    8.40
   2  12   3   49.70    8.30
  -2  12  -3   68.69   14.40
  -2  12  -4    4.40    9.40
  -2  12  -4    5.00    6.80
  -2  12  -5    9.90    7.00
  -2  12  -5    1.80    9.10
  -2  13   5    0.10    3.40
  -2  13   5    8.20    4.20
   2  13  -5    2.90    6.40
   2  13  -4    2.60    6.60
  -2  13   4   10.00    5.20
   2  13  -4    4.70    7.40
  -2  13   4    3.50    3.90
  -2  13   3    6.80    4.90
   2  13  -3   -3.50    5.40
  -2  13   3   -2.50    5.00
   2  13  -3    8.20    7.00
   2  13  -2   22.80    8.50
   2  13  -2   42.60   10.30
  -2  13   2   27.10    7.80
  -2  13   2   46.20    9.50
  -2  13   1   42.80   10.50
  -2  13   1   41.60    9.60
   2  13  -1   32.70    9.50
   2  13  -1   39.00   10.30
   2  13   0    8.50    5.30
  -2  13   0   -1.10    5.80
   2  13   0    2.00    6.10
  -2  13   0   -0.10    5.20
   2  13   1    2.60    4.90
   2  13   1    3.90    5.30
  -2  13  -1   -1.40    5.30
  -2  13  -1   -0.20    6.40
  -2  13  -2   16.20    8.40
  -2  13  -2   35.70   11.30
   2  13   2   35.00    7.40
   2  13   2   25.00    6.60
   2  13   3   -2.50    3.40
  -2  13  -3   -2.60    7.80
  -2  13  -3    9.10    6.50
   2  13   3    8.70    4.00
   3   0 -15    3.80    8.00
   3   0 -15    3.40    9.80
   3   0 -14  264.17   38.90
   3   0 -14  235.98   38.80
   3   0 -13   -0.90    6.20
   3   0 -13   -1.30    5.00
   3   0 -12   76.49   15.20
   3   0 -11   -1.10    5.20
  -3   0  11   -4.90    5.50
   3   0 -10  177.38   29.20
  -3   0  10  204.58   29.50
   3   0  -9    0.80    4.30
  -3   0   9    0.20    4.80
   3   0  -8  341.27   50.19
  -3   0   8  346.37   50.09
  -3   0   7   -3.20    4.20
   3   0  -7   -2.80    4.30
  -3   0   6   74.59   13.20
   3   0  -6   79.59   13.30
   3   0  -5   -0.30    4.30
  -3   0   5   -3.10    4.20
   3   0  -4  162.98   24.60
  -3   0   4  164.68   24.50
   3   0  -3    0.90    3.70
  -3   0   3   -1.90    3.50
   3   0  -2  964.00  140.19
  -3   0   2 1020.20  140.19
  -3   0   1   -1.50    3.80
  -3   0   0   16.50    4.80
   3   0   0   12.80    4.50
   3   0   1   -6.30    3.70
  -3   0  -1   -6.60    4.30
  -3   0  -2  187.38   25.60
   3   0   2  154.58   25.30
   3   0   3   -1.80    3.40
   3   0   4  324.47   47.10
   3   0   5    3.30    4.50
   3   0   6    6.40    4.60
   3   0   7    0.00    4.70
   3   0   8   93.99   16.60
  -3   0  -9    1.60    5.60
   3   0   9   -3.70    5.60
  -3   0  -9   -1.80    4.10
  -3   0 -10  163.68   23.60
  -3   0 -10  107.39   21.70
  -3   0 -11   10.50    9.10
  -3   0 -11   21.80   13.70
  -3   0 -12   14.20    9.10
   3   1 -15   17.30   10.20
   3  -1 -15   29.20   10.90
   3   1 -14   -6.70    8.40
   3   1 -14   -3.00    7.20
   3  -1 -14    2.80    6.90
   3  -1 -14    3.50    7.70
   3   1 -13    7.20    7.40
   3   1 -13    5.20    7.80
   3  -1 -13   -5.50    6.10
   3  -1 -13   -0.70    6.70
   3   1 -12    7.50    6.90
   3   1 -12   -6.30    5.80
   3  -1 -12   -0.70    5.40
   3  -1 -12    3.20    5.90
  -3   1  11    0.10    5.00
   3   1 -11    1.00    5.80
   3   1 -11    0.30    5.70
  -3  -1  11   -2.10    5.50
   3  -1 -11   -1.30    5.10
   3  -1 -11    2.60    5.00
  -3   1  10    0.00    4.50
   3   1 -10    1.10    4.80
   3   1 -10    2.60    5.20
  -3  -1  10    3.70    5.90
   3  -1 -10    2.30    4.10
   3   1  -9  163.78   25.30
  -3   1   9  150.98   24.60
   3  -1  -9  164.58   25.60
  -3  -1   9  163.58   25.10
  -3   1   8  162.08   23.00
   3   1  -8  154.18   23.50
   3  -1  -8  137.09   23.00
  -3  -1   8  141.89   23.20
  -3   1   7    9.80    5.00
   3   1  -7   13.90    5.30
  -3  -1   7    9.50    5.70
   3  -1  -7    8.90    5.00
  -3   1   6   55.09    9.50
   3   1  -6   40.00    9.30
  -3  -1   6   47.80    9.70
   3  -1  -6   50.09    9.30
  -3   1   5    2.70    3.90
   3   1  -5   -4.50    4.10
  -3  -1   5    3.00    4.20
   3  -1  -5   -0.80    4.00
  -3   1   4    1.50    3.80
   3   1  -4    0.10    4.20
   3  -1  -4   -6.50    3.70
  -3  -1   4    3.30    4.60
  -3   1   3    0.90    4.00
   3   1  -3   -3.80    3.70
   3  -1  -3    2.90    3.70
  -3  -1   3   -0.20    4.00
  -3   1   2   56.69    9.80
   3   1  -2   61.79   10.40
   3  -1  -2   52.09    9.70
  -3  -1   2   61.79   10.10
   3   1  -1 1064.09  148.89
  -3   1   1 1030.40  148.89
  -3  -1   1 1110.09  148.89
   3  -1  -1 1008.80  148.89
  -3   1   0  313.87   46.70
   3   1   0  339.57   46.60
   3  -1   0  319.97   46.70
   3   1   1  147.69   23.50
  -3   1  -1  171.38   24.00
   3  -1   1  158.78   23.80
   3   1   2  152.18   23.60
  -3   1  -2  155.88   24.00
   3  -1   2  168.88   24.00
  -3   1  -3  389.86   58.89
   3   1   3  389.26   58.59
  -3  -1  -3  429.06   58.69
   3  -1   3  430.76   59.09
   3   1   4   22.10    6.20
  -3   1  -4   19.60    6.90
  -3  -1  -4   38.90    6.90
   3  -1   4   15.30   10.90
  -3   1  -5   19.90    6.60
   3   1   5    9.80    4.80
  -3  -1  -5    3.90    5.20
   3   1   6    7.00    4.50
  -3   1  -6   11.60    5.60
   3  -1   6    1.90    6.20
  -3  -1  -6    7.70    5.90
  -3   1  -7  121.69   21.70
   3   1   7  148.19   20.60
   3  -1   7  110.39   21.20
  -3  -1  -7  122.69   22.00
   3   1   8   -1.70    4.80
  -3   1  -8   -0.10    6.40
  -3  -1  -8   10.90    6.60
   3  -1   8    8.00    5.70
  -3   1  -9  189.78   28.40
   3   1   9  135.59   26.60
  -3  -1  -9  177.68   26.70
   3  -1   9  167.58   27.70
  -3  -1  -9  183.68   28.10
  -3   1 -10    0.40    6.30
  -3   1 -10    5.90    7.70
  -3  -1 -10   -1.60    7.10
  -3  -1 -10    4.80    6.20
  -3   1 -11   15.90   12.80
  -3   1 -11   12.30    8.30
  -3  -1 -11   12.20    9.00
  -3  -1 -11   21.00    8.50
  -3   1 -12   10.80    9.20
  -3  -1 -12   24.00   10.30
  -3  -1 -12    0.40    7.50
   3   2 -15    6.00    9.30
   3   2 -15    3.50   10.50
   3  -2 -15    7.50    8.80
   3   2 -14  130.89   25.30
   3  -2 -14  148.79   24.90
   3   2 -13    2.10    7.50
   3   2 -13   -5.70    7.20
   3  -2 -13   -6.30    7.10
   3   2 -12   -2.70    6.30
   3   2 -12   -0.40    6.70
   3  -2 -12   10.00    6.40
   3  -2 -12   -6.10    5.00
  -3   2  11   24.50    6.90
   3   2 -11   24.80    9.00
   3   2 -11   21.80    8.20
   3  -2 -11   26.30    7.40
   3  -2 -11   18.60    7.10
  -3   2  10  378.66   54.79
   3   2 -10  408.16   55.69
   3   2 -10  367.66   55.49
  -3  -2  10  393.56   55.59
   3  -2 -10  351.26   54.69
   3  -2 -10  371.86   54.69
   3   2  -9    5.00    5.30
  -3   2   9    1.70    4.20
  -3  -2   9    2.30    5.30
   3  -2  -9    2.20    4.10
  -3   2   8  743.73  106.29
   3   2  -8  721.63  106.79
  -3  -2   8  718.03  106.79
   3  -2  -8  824.32  107.99
  -3   2   7    3.90    4.00
   3   2  -7   12.90    6.30
  -3  -2   7    1.80    4.70
   3  -2  -7    6.30    4.50
  -3   2   6   13.10    5.80
   3   2  -6   22.50    7.40
   3  -2  -6   27.60    5.90
  -3  -2   6   27.30    7.00
  -3   2   5    6.80    4.00
   3   2  -5   -5.20    4.70
  -3  -2   5    2.10    4.40
   3  -2  -5   -0.70    4.20
   3   2  -4  321.47   45.80
  -3   2   4  320.97   45.30
  -3  -2   4  321.87   45.70
   3  -2  -4  299.97   45.20
  -3   2   3   46.40    8.90
   3   2  -3   47.50    9.40
   3  -2  -3   55.49    9.00
  -3  -2   3   54.19    9.30
  -3   2   2  400.96   57.89
   3   2  -2  410.26   57.99
  -3  -2   2  431.86   57.99
   3  -2  -2  380.86   57.89
   3   2  -1   23.80    5.20
  -3   2   1   16.50    5.00
   3  -2  -1   12.50    5.10
  -3   2   0  396.46   56.89
   3   2   0  398.06   56.69
   3  -2   0  383.06   56.89
  -3  -2   0  408.56   56.59
  -3   2  -1   56.69   12.10
   3   2   1   79.69   11.90
  -3  -2  -1   77.59   11.80
   3  -2   1   75.59   12.60
  -3   2  -2   30.80    7.20
   3   2   2   26.80    5.80
   3  -2   2   10.70    5.70
  -3  -2  -2   32.50    6.30
  -3   2  -3    2.70    4.90
   3   2   3   -2.70    3.10
   3  -2   3   -8.90    4.50
  -3  -2  -3  -10.60    3.90
   3   2   4  421.66   62.89
  -3   2  -4  475.45   63.69
   3  -2   4  452.75   63.59
  -3  -2  -4  422.06   63.09
  -3   2  -5   51.99   12.00
   3   2   5   50.49   10.80
   3  -2   5   66.09   12.30
  -3  -2  -5   90.59   12.30
  -3   2  -6   17.30    6.40
   3   2   6    1.50    4.60
   3  -2   6   10.60    5.30
  -3  -2  -6   12.80    5.10
  -3   2  -7   -0.30    5.50
   3   2   7    6.20    4.60
  -3  -2  -7   -0.60    4.70
   3  -2   7    5.50    6.00
  -3   2  -8   57.19   12.00
   3   2   8   45.60    9.20
  -3  -2  -8   28.10    7.60
   3  -2   8   37.30    9.70
  -3  -2  -8   56.99   10.80
  -3   2  -9    9.80    7.70
  -3   2  -9   11.30    7.30
   3   2   9   -0.60    5.50
  -3  -2  -9    4.60    5.10
  -3  -2  -9   10.60    7.00
   3  -2   9    3.60    6.40
  -3   2 -10    9.40    8.90
  -3   2 -10    1.20    7.20
  -3  -2 -10   14.80    8.00
  -3  -2 -10   -3.60    4.90
  -3   2 -11    9.60    7.80
  -3   2 -11    9.80    9.80
  -3  -2 -11    6.50    6.90
  -3  -2 -11    1.90    8.00
  -3   2 -12   45.30   12.70
  -3   2 -12   36.80   13.30
  -3  -2 -12   60.19   14.50
   3   3 -14   11.80    9.60
   3   3 -14    2.10    9.50
   3  -3 -14   25.10    9.20
   3   3 -13    2.10    7.30
   3   3 -13   16.00    8.60
   3  -3 -13   12.10    7.50
   3  -3 -13   -4.50    5.20
   3   3 -12    5.10    7.00
   3   3 -12    6.80    7.50
   3  -3 -12   15.30    6.60
   3  -3 -12    5.90    5.20
  -3   3  11   26.80    7.10
   3   3 -11   23.50    8.60
   3   3 -11   26.90    9.60
   3  -3 -11   27.70    7.20
   3  -3 -11   19.00    6.80
   3   3 -10    1.90    6.00
   3   3 -10    3.10    6.00
  -3   3  10    5.80    4.80
   3  -3 -10   19.20    5.70
   3  -3 -10    9.60    4.80
  -3  -3  10   10.60    6.60
   3   3  -9   44.60   11.50
  -3   3   9   62.69   10.50
   3  -3  -9   60.09   10.90
  -3  -3   9   48.40   11.00
  -3   3   8    5.50    4.00
   3   3  -8    1.60    4.80
   3  -3  -8    4.00    4.30
   3   3  -7   49.99   10.10
  -3   3   7   48.60    9.00
  -3  -3   7   42.40   10.40
   3  -3  -7   54.59    9.60
  -3   3   6   94.69   13.50
   3   3  -6   64.69   14.10
   3  -3  -6   89.29   13.40
  -3  -3   6   71.09   14.30
  -3   3   5   94.99   15.60
   3   3  -5  103.29   16.70
   3  -3  -5  112.39   15.90
  -3  -3   5   91.39   16.70
  -3   3   4  297.07   41.40
   3   3  -4  286.87   42.00
   3  -3  -4  284.17   41.40
  -3  -3   4  279.97   41.90
   3   3  -3  788.22  114.29
  -3   3   3  813.72  113.99
  -3  -3   3  805.92  114.29
   3  -3  -3  810.42  113.99
   3   3  -2  496.25   72.19
  -3   3   2  500.75   72.09
   3  -3  -2  520.55   72.09
   3   3  -1  893.21  123.79
  -3   3   1  894.91  123.89
   3  -3  -1  847.82  123.79
  -3  -3   1  861.81  123.69
   3   3   0   36.30    7.40
  -3   3   0   39.70    8.40
  -3  -3   0   53.19    8.80
   3  -3   0   33.70    7.80
   3   3   1   22.20    5.80
  -3   3  -1   32.10    7.10
  -3  -3  -1   29.00    5.80
   3  -3   1   26.40    7.00
  -3   3  -2  110.59   19.00
   3   3   2  112.99   18.20
  -3  -3  -2  125.59   18.20
   3  -3   2  139.69   19.80
  -3   3  -3   28.90    7.90
   3   3   3   16.40    5.20
  -3  -3  -3   27.30    5.70
   3  -3   3   23.50    6.80
   3   3   4   49.99    8.90
  -3   3  -4   43.50   10.20
   3  -3   4   50.49   10.40
  -3  -3  -4   48.50    9.00
   3   3   5    6.80    4.10
  -3   3  -5   10.20    6.10
   3  -3   5    2.60    5.40
  -3  -3  -5    9.90    4.90
   3   3   6    0.20    3.90
  -3   3  -6    6.30    6.60
   3  -3   6   -2.20    3.80
  -3  -3  -6   -1.20    4.60
  -3   3  -7   72.09   13.50
   3   3   7   48.00   10.30
  -3  -3  -7   75.49   11.90
   3  -3   7   40.50   11.00
   3   3   8    2.90    4.60
  -3   3  -8    1.00    6.60
  -3  -3  -8    3.70    4.30
  -3  -3  -8   13.20    6.30
   3  -3   8   18.60    6.80
  -3   3  -9  279.87   41.80
  -3  -3  -9  246.08   40.40
   3  -3   9  288.67   41.30
  -3  -3  -9  269.57   39.80
  -3   3 -10    2.40    8.10
  -3   3 -10    1.20    7.60
  -3  -3 -10    9.40    7.80
  -3  -3 -10    0.80    4.70
  -3   3 -11   45.30   13.70
  -3   3 -11  110.99   18.10
  -3  -3 -11   60.19   14.90
  -3   3 -12   10.40    9.00
  -3   3 -12    1.90   10.30
  -3  -3 -12   -3.10    9.00
   3   4 -14   82.49   19.20
   3   4 -14   87.69   19.40
   3  -4 -14   94.99   17.30
   3   4 -13   13.40    9.70
   3   4 -13    8.40    9.00
   3  -4 -13    2.70    5.90
   3  -4 -13   17.60    7.70
   3   4 -12   18.20    9.00
   3   4 -12    7.40    8.60
   3  -4 -12    6.90    6.00
   3  -4 -12    6.50    6.60
   3   4 -11    9.90    7.60
  -3   4  11   10.80    5.40
   3   4 -11   22.00    8.50
   3  -4 -11   18.50    6.10
   3  -4 -11   15.40    6.10
   3   4 -10   84.59   17.20
  -3   4  10   89.59   15.40
   3  -4 -10   97.19   15.30
   3  -4 -10   97.79   16.10
   3   4  -9   27.10    9.30
   3   4  -9   43.20   10.60
  -3   4   9   45.40    8.10
   3  -4  -9   44.30    8.60
  -3  -4   9   35.90    9.70
   3   4  -8  410.26   58.19
  -3   4   8  404.46   56.99
   3  -4  -8  366.06   56.99
  -3  -4   8  426.46   58.39
   3   4  -7  104.49   17.60
  -3   4   7   98.39   16.00
  -3  -4   7   95.69   17.90
   3  -4  -7  112.09   16.20
  -3   4   6    6.90    3.50
   3   4  -6   -3.00    4.70
  -3  -4   6   -1.20    5.00
   3  -4  -6    0.20    4.00
   3   4  -5    1.20    4.80
  -3   4   5    2.20    3.50
   3  -4  -5    2.50    3.50
  -3  -4   5    1.60    4.50
  -3   4   4  558.94   77.09
   3   4  -4  523.15   77.59
   3  -4  -4  553.14   76.99
  -3  -4   4  523.65   77.59
  -3   4   3    6.00    3.80
   3   4  -3    0.40    4.40
   3  -4  -3   13.50    4.10
  -3  -4   3   -2.50    3.80
   3   4  -2   63.99   11.60
  -3   4   2   69.19   11.70
   3  -4  -2   69.69   11.40
   3   4  -1   61.79   10.50
  -3   4   1   57.09   10.90
   3  -4  -1   70.59   11.40
  -3  -4   1   56.19   10.30
  -3   4   0  463.95   68.29
   3   4   0  507.75   67.99
   3  -4   0  464.75   68.29
  -3  -4   0  467.65   67.89
  -3   4  -1   12.60    5.30
   3   4   1    6.80    3.40
  -3  -4  -1   -1.50    3.30
   3  -4   1    6.70    4.60
   3   4   2  162.28   24.40
  -3   4  -2  147.89   25.50
  -3  -4  -2  171.38   24.30
   3  -4   2  183.58   25.70
  -3   4  -3   -3.80    4.30
   3   4   3    1.00    2.80
  -3  -4  -3   -0.20    3.20
   3  -4   3    4.00    5.00
   3   4   4   79.19   10.30
  -3   4  -4   54.49   11.10
  -3  -4  -4   44.30    9.40
   3  -4   4   55.89   11.20
   3   4   5  275.37   41.10
  -3   4  -5  300.97   42.80
   3  -4   5  290.67   42.40
  -3  -4  -5  284.17   41.20
  -3   4  -6   13.70    7.30
   3   4   6   12.40    4.30
   3  -4   6   -2.50    5.10
  -3  -4  -6   -3.20    4.20
  -3   4  -7    3.00    7.90
   3   4   7   20.80    5.90
  -3  -4  -7   12.80    5.80
   3  -4   7   36.20    8.50
  -3  -4  -7   18.70    4.90
   3   4   8   18.30    5.60
  -3   4  -8    6.60    6.60
  -3   4  -8    8.70    7.30
  -3  -4  -8   16.60    5.20
   3  -4   8    5.90    7.20
  -3  -4  -8   11.30    6.20
  -3   4  -9   12.10    7.50
  -3   4  -9   12.90    8.30
  -3  -4  -9    0.30    6.40
  -3  -4  -9    6.10    4.50
  -3   4 -10   84.39   16.10
  -3   4 -10   39.10   11.60
  -3  -4 -10   47.10   11.50
  -3   4 -11   -5.00    9.10
  -3   4 -11   -4.20    6.90
  -3  -4 -11   10.10    8.30
  -3  -4 -11   -0.60    4.80
  -3   4 -12   20.90   11.20
  -3   4 -12   22.50   12.80
  -3  -4 -12   20.70   10.40
   3   5 -14   68.29   22.50
   3   5 -14   63.19   16.40
   3  -5 -14   45.40   12.30
   3   5 -13    6.50    9.60
   3  -5 -13    7.70    6.30
   3   5 -12   -3.20    6.90
   3  -5 -12   -1.80    5.40
   3  -5 -12   -2.70    5.50
   3   5 -11   -9.40    5.90
   3  -5 -11    0.80    4.80
   3  -5 -11   -3.10    4.60
   3   5 -10   12.20   10.30
   3   5 -10   -2.70    5.90
  -3   5  10    8.00    4.50
   3  -5 -10   16.30    5.60
   3  -5 -10   17.40    5.00
   3   5  -9  159.98   25.30
  -3   5   9  152.98   21.50
   3   5  -9  140.89   26.70
   3  -5  -9  133.19   21.60
   3  -5  -9  136.49   21.30
  -3   5   8   29.10    5.90
   3   5  -8   20.50    8.00
   3  -5  -8   25.40    6.20
  -3  -5   8   20.50    7.90
   3   5  -7   79.19   15.30
  -3   5   7   95.09   13.70
  -3  -5   7   66.39   15.00
   3  -5  -7   96.09   14.00
   3   5  -6   17.10    6.20
  -3   5   6    8.70    4.00
  -3  -5   6    4.60    5.40
   3  -5  -6   19.70    4.50
   3   5  -5    6.90    5.00
  -3   5   5    9.90    4.10
   3  -5  -5   14.10    4.10
  -3  -5   5    6.70    5.40
  -3   5   4   18.00    5.20
   3   5  -4   22.80    7.10
  -3  -5   4   15.10    5.60
   3  -5  -4   17.70    5.00
   3   5  -3  149.59   23.40
  -3   5   3  173.28   23.00
   3  -5  -3  137.49   22.80
   3   5  -2   10.90    4.60
  -3   5   2   -1.20    3.90
   3  -5  -2    6.20    4.00
  -3  -5   2    3.60    4.00
   3   5  -1   83.69   12.80
  -3  -5   1   68.69   12.30
   3  -5  -1   74.39   12.80
  -3   5   0    7.40    5.10
   3   5   0   -0.70    3.20
  -3  -5   0    4.90    3.60
   3  -5   0    1.80    4.30
  -3   5  -1  193.78   28.70
   3   5   1  180.08   27.60
   3  -5   1  198.58   28.70
  -3  -5  -1  192.08   27.50
   3   5   2   -1.60    3.00
  -3   5  -2   -7.90    4.80
   3  -5   2   -1.50    4.60
  -3  -5  -2    0.30    2.80
  -3   5  -3  236.38   30.50
   3   5   3  186.38   28.50
   3  -5   3  198.78   30.10
  -3  -5  -3  194.08   28.40
   3   5   4   34.30    6.10
  -3   5  -4   18.30    7.90
   3  -5   4   34.80    8.50
  -3  -5  -4   31.30    5.90
  -3   5  -5  109.99   19.00
   3   5   5  114.29   16.30
  -3  -5  -5   99.09   16.10
   3  -5   5  105.79   18.10
   3   5   6   11.60    4.40
  -3   5  -6   25.60    9.40
  -3  -5  -6   12.30    3.60
   3  -5   6   19.60    7.30
  -3  -5  -6    9.60    4.50
   3   5   7   -6.60    5.70
  -3   5  -7    0.30    7.50
   3  -5   7    3.90    6.60
  -3  -5  -7    3.50    4.80
  -3  -5  -7    0.90    3.10
  -3   5  -8   11.90    7.30
  -3   5  -8   22.30    9.50
   3  -5   8   24.70    8.50
  -3  -5  -8   17.80    4.90
  -3  -5  -8    2.20    5.90
  -3   5  -9  184.18   26.20
  -3  -5  -9  131.59   20.30
  -3  -5  -9  117.89   21.30
  -3   5 -10    9.10    8.60
  -3   5 -10   -3.20    9.30
  -3  -5 -10    5.90    4.50
  -3   5 -11  -13.90    7.70
  -3   5 -11   21.50   12.40
  -3  -5 -11    2.00    7.80
  -3  -5 -11    1.90    4.70
   3   6 -13    6.90    8.60
   3   6 -13    0.70   10.00
   3  -6 -13    7.30    6.10
   3  -6 -13    2.40    6.10
   3   6 -12    1.90    7.60
   3   6 -12  -14.60    7.60
   3  -6 -12    2.90    5.00
   3  -6 -12   -2.80    6.40
   3   6 -11   10.40    9.60
   3   6 -11   -1.10    7.80
   3  -6 -11   13.20    5.10
   3  -6 -11    5.60    4.60
  -3   6  10  101.09   15.30
   3   6 -10   93.69   19.30
   3   6 -10   77.09   18.10
   3  -6 -10   77.49   16.30
   3  -6 -10  116.09   15.80
   3   6  -9   -2.40    5.60
   3   6  -9    2.40    6.20
  -3   6   9    0.30    3.30
   3  -6  -9    3.10    3.00
   3  -6  -9   -2.20    3.60
   3   6  -8   64.59   15.30
  -3   6   8   81.59   13.00
   3   6  -8   82.99   16.50
   3  -6  -8   91.79   13.20
  -3   6   7  204.58   27.70
   3   6  -7  193.68   29.60
   3  -6  -7  183.08   27.60
  -3  -6   7  173.18   29.40
   3   6  -6    7.40    5.70
  -3   6   6   20.90    4.80
   3  -6  -6   28.10    4.90
  -3  -6   6   10.30    5.90
  -3   6   5   74.19   11.60
   3   6  -5   66.09   13.00
  -3  -6   5   56.79   12.50
   3  -6  -5   73.19   11.40
   3   6  -4   99.09   17.10
  -3   6   4  116.79   16.30
  -3  -6   4  109.89   17.40
   3  -6  -4   90.29   15.60
   3   6  -3   16.30    5.70
  -3   6   3   18.40    5.20
   3  -6  -3   22.20    5.50
   3   6  -2  230.78   30.60
  -3   6   2  191.18   30.20
   3  -6  -2  197.78   30.20
   3   6  -1  374.76   52.19
  -3   6   1  350.16   52.39
   3  -6  -1  369.86   52.39
  -3  -6   1  355.96   52.09
  -3   6   0   41.40    9.00
   3   6   0   40.20    8.10
  -3  -6   0   49.00    8.30
   3  -6   0   49.70    9.70
   3   6   1  115.89   17.30
  -3   6  -1  114.69   18.80
   3  -6   1  136.09   19.00
  -3  -6  -1  103.89   17.00
  -3   6  -2   61.49   12.00
   3   6   2   60.79    9.40
   3  -6   2   37.30   10.50
  -3  -6  -2   56.49    8.80
   3   6   3    1.10    2.60
  -3   6  -3    6.30    5.80
   3  -6   3    5.70    5.10
  -3  -6  -3    3.70    2.00
   3   6   4   83.99   12.70
  -3   6  -4   68.39   15.20
   3  -6   4  101.49   16.00
  -3   6  -5   53.79   12.20
   3   6   5   56.69    9.20
   3  -6   5   53.69   12.00
  -3   6  -6   -7.10    5.90
   3   6   6   -2.00    2.80
  -3  -6  -6    2.70    4.10
   3  -6   6    4.40    5.70
  -3  -6  -6   -2.80    1.90
  -3   6  -7   18.00    9.70
  -3  -6  -7   20.90    5.10
  -3  -6  -7   23.00    4.70
   3  -6   7   45.10   10.10
  -3   6  -8    6.20    6.90
  -3   6  -8   12.00    8.90
  -3  -6  -8   11.50    3.70
  -3  -6  -8   11.20    5.00
  -3   6  -9   17.00    8.90
  -3   6  -9   -0.40    8.80
  -3  -6  -9   -2.10    3.30
  -3  -6  -9    0.70    5.00
  -3   6 -10    3.60   10.70
  -3   6 -10   21.30    9.50
  -3  -6 -10    1.60    5.90
  -3  -6 -10    5.70    4.30
  -3   6 -11   18.50   12.50
  -3   6 -11    9.90    9.20
  -3  -6 -11   10.40    7.20
  -3  -6 -11    2.60    5.30
   3   7 -13   40.10   13.90
   3   7 -13   24.20   11.70
   3  -7 -13   18.30    5.80
   3  -7 -13   15.60    6.20
   3   7 -12   -1.70    9.30
   3   7 -12   -8.60    7.00
   3  -7 -12    1.40    4.00
   3   7 -11    7.70    9.50
   3   7 -11   -1.80    8.20
   3  -7 -11    8.00    3.70
   3  -7 -11    2.30    3.60
   3   7 -10    0.40    7.40
   3   7 -10    4.10    6.60
   3   7  -9    7.40    7.10
   3   7  -9   11.40    8.00
  -3   7   9    2.30    2.90
   3  -7  -9   -0.40    0.60
  -3   7   8   -0.30    2.70
   3   7  -8    2.90    6.40
   3   7  -8    8.30    6.20
  -3   7   7    6.90    3.00
   3   7  -7    3.70    5.90
   3   7  -7    2.60    5.20
   3   7  -6  144.89   27.60
  -3   7   6  186.58   25.90
   3  -7  -6  178.78   25.40
  -3   7   5    8.20    4.20
   3   7  -5    9.00    5.10
   3  -7  -5   17.20    4.10
  -3  -7   5    9.40    5.70
  -3   7   4   -3.60    3.40
   3   7  -4    0.40    4.50
   3  -7  -4    6.30    3.80
   3   7  -3  380.16   59.09
  -3   7   3  418.46   58.69
  -3  -7   3  415.86   59.09
   3  -7  -3  416.16   58.59
  -3   7   2  131.19   20.40
   3   7  -2  130.69   20.60
   3  -7  -2  136.69   20.60
  -3  -7   2  133.49   20.60
   3   7  -1  175.28   25.30
  -3   7   1  160.08   25.40
  -3  -7   1  162.88   25.00
   3  -7  -1  173.58   25.50
   3   7   0   12.10    4.30
  -3   7   0    7.10    5.50
  -3  -7   0   11.40    3.90
   3  -7   0    8.80    5.20
  -3   7  -1   19.50    6.70
   3   7   1   14.40    4.30
   3  -7   1   21.50    6.20
  -3  -7  -1   10.30    3.80
   3   7   2    0.60    2.70
  -3   7  -2    3.30    6.20
   3  -7   2   -4.40    3.80
   3   7   3  103.59   15.30
  -3   7  -3  102.49   18.10
   3  -7   3   98.09   17.60
  -3   7  -4   -0.90    6.90
   3   7   4    4.90    2.30
   3  -7   4    6.70    5.80
   3   7   5   35.50    6.20
  -3   7  -5   40.70   11.00
   3  -7   5   46.50   10.90
  -3   7  -6   -7.60    7.40
   3  -7   6   12.10    7.40
  -3   7  -7   56.69   13.20
  -3   7  -7   27.60    9.20
  -3   7  -8   12.30    8.00
  -3   7  -8   19.70   10.30
  -3   7  -9  172.68   31.40
  -3   7 -10    8.00   11.70
  -3   7 -10    2.80    7.60
   3   8 -12    0.70    9.70
   3   8 -12    1.30    8.00
   3   8 -11   -6.90    8.50
   3   8 -11    7.50    9.20
   3   8 -10   59.19   14.10
   3   8 -10   29.30   10.50
   3   8  -9    2.10    6.30
   3   8  -9   11.00    7.90
   3   8  -8   33.00    9.40
  -3   8   8   35.70    6.10
   3   8  -8   34.40   11.00
   3   8  -7   24.40    8.50
   3   8  -7   26.80    8.20
  -3   8   7   21.00    4.60
   3   8  -6   72.69   14.80
   3   8  -6   50.09   12.90
  -3   8   6   69.19   10.80
   3   8  -5  123.49   21.10
  -3   8   5  129.69   18.80
   3  -8  -5  119.49   18.20
   3   8  -4   10.60    5.40
  -3   8   4   23.10    5.40
   3  -8  -4   12.50    4.30
   3   8  -3   11.10    5.80
  -3   8   3   21.50    5.40
   3  -8  -3    6.20    4.00
   3   8  -2   44.30    9.30
  -3   8   2   61.39    9.70
   3  -8  -2   36.30    8.70
   3   8  -1   -2.20    3.90
  -3   8   1    4.80    4.80
   3  -8  -1    0.20    4.00
  -3   8   0   17.60    6.90
   3   8   0   21.90    5.60
   3  -8   0   22.80    6.60
  -3   8  -1   11.70    5.90
   3   8   1   13.70    4.40
   3  -8   1   18.40    6.30
   3   8   2  206.28   29.50
  -3   8  -2  211.98   31.50
   3  -8   2  188.08   31.00
   3   8   3    4.80    2.80
  -3   8  -3    4.20    6.70
   3  -8   3   -6.60    4.80
  -3   8  -4  110.39   19.10
   3  -8   4   85.29   17.60
  -3   8  -5  105.89   18.10
   3  -8   5   71.89   16.40
  -3   8  -6   10.90    9.60
  -3   8  -6    7.80    7.00
  -3   8  -7    2.40    9.60
  -3   8  -7    9.40    6.60
  -3   8  -8   -7.50    8.00
  -3   8  -8    0.20    6.40
  -3   8  -9    0.10   10.10
  -3   8  -9   -0.10    7.50
  -3   8 -10    1.10    8.30
   3   9 -11   10.20    9.80
   3   9 -11  -12.90   10.20
   3   9 -10   28.20   11.30
   3   9 -10   55.29   13.70
   3   9  -9   32.90   10.10
   3   9  -9   31.90   10.90
   3   9  -8   -7.90    6.50
   3   9  -8    8.40    6.40
   3   9  -7   37.60   10.30
   3   9  -7   33.30    9.50
  -3   9   7   34.10    6.00
  -3   9   6   41.20    6.30
   3   9  -6   16.20    7.80
   3   9  -6   21.40    8.60
  -3   9   5   -2.70    3.60
   3   9  -5   -1.50    5.20
   3   9  -5    5.50    5.80
   3   9  -4    5.30    5.70
  -3   9   4   -2.80    4.00
   3   9  -4   -2.60    4.60
  -3   9   3   28.40    7.00
   3   9  -3   26.60    7.90
   3   9  -3   28.60    8.20
  -3   9   2   -1.50    4.40
   3   9  -2    2.80    4.20
   3  -9  -2    3.90    4.10
   3   9  -1  110.29   20.10
  -3   9   1  125.39   21.00
   3  -9  -1  150.68   21.00
  -3   9   0   35.50    9.00
   3   9   0   40.70    8.00
   3  -9   0   33.50    8.50
   3   9   1    6.80    6.30
  -3   9  -1    3.20    5.30
   3  -9   1    5.70    5.30
  -3   9  -2   -2.30    6.00
   3   9   2    0.20    3.00
   3  -9   2    8.60    6.10
   3   9   3  174.08   25.00
  -3   9  -3  142.49   27.90
   3  -9   3  195.18   28.50
  -3   9  -4    6.50    7.40
  -3   9  -5   81.79   17.60
  -3   9  -6    9.70    7.00
  -3   9  -6    1.10    8.10
  -3   9  -7    0.90    9.20
  -3   9  -7   -2.60    6.00
  -3   9  -8   -3.60    9.40
  -3   9  -8    3.70    7.40
  -3   9  -9   24.10   11.00
  -3   9  -9   30.50   13.70
   3  10 -10   13.50    8.70
   3  10 -10   14.80   10.40
   3  10  -9   -5.60    8.20
   3  10  -9   -5.40    6.30
   3  10  -8   -5.60    6.10
   3  10  -8    7.60    9.20
   3  10  -7   -1.40    6.90
   3  10  -7    5.00    5.80
   3  10  -6   46.10   12.10
  -3  10   6   35.30    7.10
   3  10  -5    9.90    6.20
  -3  10   5    5.80    4.30
   3  10  -5    4.30    6.40
   3  10  -4   13.40    6.90
   3  10  -4   13.60    6.80
  -3  10   4   24.20    6.00
   3  10  -3    3.60    5.80
  -3  10   3   19.40    6.10
   3  10  -3   18.30    6.30
  -3  10   2   25.50    7.40
   3  10  -2   16.50    6.80
   3  10  -2   24.90    6.80
   3  10  -1  112.49   18.10
  -3  10   1  130.69   19.30
   3  10  -1   89.29   17.50
   3  10   0    2.40    4.00
   3  10   0    1.50    4.00
  -3  10   0    1.60    5.60
  -3  10  -1   11.80    7.00
   3  10   1    8.80    4.30
   3  10   1   10.80    4.60
  -3  10  -2   45.30   11.40
   3  10   2   28.20    7.00
   3  10   2   43.80    7.60
  -3  10  -3   -5.80    6.80
   3  10   3    0.80    2.70
   3  10   3   -4.10    2.80
  -3  10  -4   -2.70    5.30
  -3  10  -4    5.50    8.10
  -3  10  -5    6.60    7.20
  -3  10  -5    5.30    9.40
  -3  10  -6   14.40    8.70
  -3  10  -6   18.40   10.50
  -3  10  -7   19.30   13.20
  -3  10  -7   26.00    9.60
  -3  10  -8  -10.90    9.90
  -3  10  -8   -1.10    7.10
   3  11  -9   -9.90    9.40
   3  11  -9   -2.40    7.00
   3  11  -8   22.60   10.50
   3  11  -8   14.80    8.60
   3  11  -7   -2.70    7.60
   3  11  -7   -1.10    5.90
   3  11  -6   34.60   11.10
  -3  11   6   43.00    8.40
   3  11  -6   41.60   11.00
  -3  11   6   42.00    7.20
  -3  11   5    0.70    4.30
   3  11  -5   -2.10    6.90
   3  11  -5    0.90    5.30
  -3  11   4   -1.00    5.00
   3  11  -4    9.50    6.00
   3  11  -4    4.60    9.20
   3  11  -3   90.19   16.50
   3  11  -2   15.60    6.00
   3  11  -1    7.70    4.90
   3  11   0    1.10    4.20
   3  11   1    0.40    3.90
  -3  11  -1    2.90    5.30
   3  11   2   -1.10    3.50
  -3  11  -2    2.20    5.40
   3  11   3   31.40    6.40
   3  11   3   38.30    7.10
  -3  11  -3   27.70    9.00
  -3  11  -3   34.00   12.60
  -3  11  -4    5.50    6.60
  -3  11  -4   14.00    9.90
  -3  11  -5   -2.30    5.70
  -3  11  -5   -0.60    8.40
  -3  11  -6   11.70   10.00
  -3  11  -6   22.60    9.70
   3  12  -7  -11.50    7.50
   3  12  -7   -5.40    6.20
   3  12  -6    0.40    7.80
  -3  12   6    3.70    3.60
  -3  12   6    5.20    3.00
   3  12  -6    8.40    6.80
   3  12  -5    6.40    6.50
  -3  12   5    2.90    3.60
  -3  12   5    3.50    4.90
   3  12  -5    5.90    7.50
   3  12  -4   23.40    8.50
   3  12  -4    1.20    6.10
  -3  12   4   10.30    4.90
  -3  12   4   12.90    6.20
   3  12  -3   -3.40    4.80
  -3  12   3    5.60    4.70
   3  12  -3   -0.40    5.60
  -3  12   3    0.30    5.10
   3  12  -2   10.70    5.90
  -3  12   2    7.00    6.90
   3  12  -2    9.10    6.60
  -3  12   2    9.10    6.30
   3  12  -1    8.50    5.50
  -3  12   1    2.00    5.50
   3  12  -1    8.90    5.70
  -3  12   1   -9.70    4.00
  -3  12   0   -2.30    6.00
   3  12   0    6.60    5.20
   3  12   0    2.10    4.70
  -3  12   0   -0.90    5.00
   3  12   1   28.60    6.70
   3  12   1   20.00    6.40
  -3  12  -1   14.00    7.00
  -3  12  -1   17.80    8.60
  -3  12  -2    5.00    8.10
   3  12   2   24.50    5.90
   3  12   2   25.60    6.00
  -3  12  -2   11.40    7.30
  -3  12  -3    5.40    8.10
   3  12   3    8.50    3.70
   3  12   3    8.20    3.80
  -3  12  -3   -0.60    6.20
  -3  12  -4    4.30    8.30
  -3  12  -4   -7.20    6.00
  -3  12  -5    1.20    9.80
  -3  12  -5    3.00    7.70
  -3  13   5    7.30    4.00
   3  13  -5    2.00    6.70
  -3  13   5    5.40    4.90
   3  13  -4    2.10    7.00
  -3  13   4   -3.70    5.30
  -3  13   4    2.90    4.30
   3  13  -4   -0.40    5.80
  -3  13   3   -1.40    4.20
   3  13  -3    1.90    5.60
  -3  13   3    1.00    5.60
   3  13  -3    5.60    6.70
  -3  13   2    6.60    5.40
  -3  13   2    3.60    5.80
   3  13  -2    3.60    6.00
   3  13  -2    6.20    6.00
   3  13  -1   15.20    6.60
   3  13  -1   10.40    6.20
  -3  13   1   19.40    8.00
  -3  13   1    6.50    6.20
  -3  13   0   10.30    6.20
   3  13   0   16.50    6.20
  -3  13   0    0.40    6.80
   3  13   0   11.60    5.80
   3  13   1    0.40    4.90
  -3  13  -1    6.50    6.60
  -3  13  -1    0.60    6.80
   3  13   1    8.00    5.20
  -3  13  -2   -4.90    7.40
   3  13   2    8.60    4.50
  -3  13  -2    7.60    6.90
   3  13   2    1.30    4.50
   4   0 -15    4.00    7.50
   4   0 -15   -5.90    7.10
   4   0 -14   -0.60    5.30
   4   0 -14   10.70    7.90
   4   0 -13    0.10    5.90
   4   0 -13   -2.10    6.20
  -4   0  13    0.50    6.50
   4   0 -12   12.90    6.80
  -4   0  12    3.50    6.50
   4   0 -11    3.40    5.70
  -4   0  11    2.70    5.90
   4   0 -10   44.80   10.60
  -4   0  10   54.69   10.90
  -4   0   9   -4.40    4.60
   4   0  -8   33.40    7.80
  -4   0   8   28.40    7.80
   4   0  -7   -3.40    4.20
   4   0  -6  334.47   48.50
  -4   0   6  332.27   48.40
   4   0  -5   -1.10    4.80
  -4   0   5    4.00    4.20
   4   0  -4  539.05   80.09
  -4   0   4  584.24   80.09
   4   0  -3   -5.50    3.90
  -4   0   3   -3.10    4.70
   4   0  -2  782.32  112.99
  -4   0   2  811.12  112.99
  -4   0   1    3.40    4.80
   4   0  -1    2.30    4.10
  -4   0   0    8.20    4.60
   4   0   0   -3.50    4.80
   4   0   1    3.70    4.60
  -4   0  -1   -5.00    4.80
  -4   0  -2  205.88   30.70
   4   0   3   -2.60    4.20
  -4   0  -3    4.20    5.00
  -4   0  -4  166.88   26.30
   4   0   4  146.89   23.50
   4   0   5    0.20    4.30
   4   0   6  491.95   71.09
   4   0   7   -5.20    4.50
   4   0   8   27.30    7.50
  -4   0  -8    0.20    5.40
   4   0   9    2.10    6.30
  -4   0  -9   -2.60    4.00
  -4   0 -10    5.40    7.40
  -4   0 -10   -5.00    5.70
   4   0  10   -1.90    6.70
  -4   0 -11    0.80    8.90
  -4   0 -11   -4.60    6.30
   4   1 -15    3.00    8.10
   4   1 -15    2.00    8.50
   4  -1 -15    5.00    8.30
   4  -1 -15   -3.70    8.60
   4   1 -14    3.20    7.90
   4   1 -14   -3.30   11.50
   4  -1 -14  -10.30    6.50
   4  -1 -14    4.40    7.50
  -4   1  13   15.30    8.60
   4   1 -13   37.60   10.20
   4   1 -13   51.79   11.50
   4  -1 -13   29.40    9.90
   4  -1 -13   37.20   10.00
  -4   1  12    4.10    6.20
   4   1 -12    4.40    6.40
   4   1 -12   -0.10    6.20
  -4  -1  12    3.00    6.70
   4  -1 -12    8.70   10.90
   4  -1 -12    4.50    5.90
   4   1 -11  326.97   49.30
  -4   1  11  335.67   49.00
   4  -1 -11  344.97   49.00
  -4  -1  11  316.87   49.20
   4   1 -10    5.50    5.40
  -4   1  10    7.70    5.20
  -4  -1  10   -7.30    4.50
   4  -1 -10    6.70    5.60
  -4   1   9   36.20    8.50
   4   1  -9   18.50    8.10
   4  -1  -9   41.70    8.90
  -4  -1   9   42.00    8.90
   4   1  -8   16.90    6.30
  -4   1   8   21.80    5.80
   4  -1  -8    7.70    5.60
  -4  -1   8   10.40    5.70
   4   1  -7  723.83  102.09
  -4   1   7  707.43  101.79
  -4  -1   7  703.83  101.99
   4  -1  -7  722.33  101.79
  -4   1   6    0.60    4.10
   4   1  -6    0.50    4.70
   4  -1  -6   -2.30    4.10
  -4  -1   6    8.40    5.20
  -4   1   5  108.59   16.30
   4   1  -5   91.39   15.90
   4  -1  -5   88.39   15.70
  -4  -1   5  104.89   16.40
  -4   1   4   40.90   10.10
   4   1  -4   75.49   11.60
  -4  -1   4   76.99   11.20
   4  -1  -4   52.89   10.40
  -4   1   3  122.29   19.10
   4   1  -3  125.59   19.40
  -4  -1   3  126.89   19.30
   4  -1  -3  118.89   19.20
  -4   1   2    1.90    4.80
   4   1  -2    9.30    4.80
  -4  -1   2    5.30    4.60
   4  -1  -2    6.30    4.40
   4   1  -1   20.00    5.50
  -4   1   1   26.20    5.90
  -4  -1   1   23.10    5.70
   4  -1  -1    8.70    5.10
  -4   1   0   79.69   14.20
   4   1   0   85.59   14.10
  -4  -1   0   92.79   15.40
   4  -1   0   92.79   14.70
   4   1   1  206.78   31.30
  -4   1  -1  206.88   31.50
   4  -1   1  222.08   31.50
   4   1   2   33.00    7.20
  -4   1  -2   37.90    8.30
   4  -1   2   32.60    8.00
  -4   1  -3  111.29   18.10
   4   1   3   94.59   17.20
   4  -1   3  123.09   18.30
  -4   1  -4   29.70    8.70
   4   1   4   41.50    8.10
  -4  -1  -4   32.70    7.70
   4  -1   4   31.90    8.00
  -4   1  -5  110.99   19.20
   4   1   5  105.79   18.30
   4  -1   5  109.29   19.20
  -4  -1  -5  129.29   19.30
  -4   1  -6   17.70    7.40
   4  -1   6   16.90    7.00
  -4  -1  -6   15.40    6.50
  -4   1  -7   11.00    6.90
   4   1   7   15.60    6.60
   4  -1   7   20.70    8.40
   4   1   8   -4.50    4.50
  -4   1  -8   -0.20    6.60
  -4  -1  -8   11.80    7.00
   4   1   9  116.59   22.10
  -4   1  -9  176.48   25.00
  -4  -1  -9  158.68   24.20
   4  -1   9   98.69   23.90
  -4   1 -10   27.90   10.30
   4   1  10   18.20    8.00
  -4   1 -10    2.40    6.70
  -4  -1 -10   12.10    7.00
   4  -1  10   10.80    8.80
  -4  -1 -10   10.80    9.10
  -4   1 -11   46.90   15.90
  -4   1 -11   12.10    9.00
  -4  -1 -11   56.79   13.40
  -4  -1 -11   23.80    9.20
  -4   1 -12   -6.20    7.80
  -4  -1 -12   -3.40    9.30
   4   2 -15   -5.20    7.90
   4   2 -15   12.70    9.70
   4  -2 -15   -6.30    8.00
   4   2 -14   30.10   10.40
   4   2 -14   12.60    9.30
   4  -2 -14   13.50    8.50
   4  -2 -14   11.80    8.40
   4   2 -13    7.70    8.10
  -4   2  13    5.40    7.50
   4   2 -13   27.70    9.80
   4  -2 -13   21.40    8.00
   4  -2 -13   22.70    8.00
   4   2 -12   94.69   16.90
   4   2 -12   63.49   14.70
  -4   2  12   80.99   14.90
   4  -2 -12   80.99   14.60
  -4  -2  12   73.39   14.90
   4  -2 -12   77.89   15.10
   4   2 -11    1.80    5.70
  -4   2  11   -0.40    5.50
  -4  -2  11    6.30    6.60
   4  -2 -11    5.60    5.00
   4   2 -10   74.59   14.30
  -4   2  10   71.59   12.80
  -4  -2  10   82.49   14.00
   4  -2 -10   46.90   12.10
  -4   2   9  122.59   19.50
   4   2  -9  114.99   20.30
  -4  -2   9  119.19   20.00
   4  -2  -9  110.09   19.40
  -4   2   8  158.48   24.50
   4   2  -8  161.58   25.40
  -4  -2   8  159.88   25.40
   4  -2  -8  167.58   24.90
   4   2  -7   28.50    7.40
  -4   2   7   30.70    7.00
   4  -2  -7   30.20    7.10
  -4  -2   7   32.30    7.60
   4   2  -6   15.60    5.90
  -4   2   6   12.10    5.30
   4  -2  -6   15.10    5.30
  -4  -2   6    9.70    5.30
   4   2  -5  175.38   24.50
  -4   2   5  160.38   23.80
  -4  -2   5  154.58   24.20
   4  -2  -5  144.99   23.70
  -4   2   4  157.08   24.90
   4   2  -4  149.49   25.20
  -4  -2   4  183.28   25.30
   4  -2  -4  176.98   25.10
   4   2  -3    9.50    5.60
  -4   2   3    5.70    4.40
  -4  -2   3    5.10    4.40
   4  -2  -3    6.10    4.40
   4   2  -2   90.89   15.50
  -4   2   2   86.99   15.60
  -4  -2   2  102.39   15.80
   4  -2  -2  114.39   15.90
   4   2  -1    4.10    4.30
  -4   2   1    3.10    5.10
   4  -2  -1    5.00    4.90
  -4   2   0   81.39   14.00
   4   2   0   80.19   13.50
   4  -2   0   84.99   14.00
  -4   2  -1    0.30    4.70
   4   2   1    3.80    4.40
   4  -2   1    7.50    5.20
  -4  -2  -1   11.00    4.10
  -4   2  -2  216.98   33.50
   4   2   2  223.78   32.90
  -4  -2  -2  231.28   34.10
   4  -2   2  230.18   33.50
  -4   2  -3   63.39   12.30
   4   2   3   69.49   11.50
  -4  -2  -3   73.59   11.80
   4  -2   3   53.49   11.70
   4   2   4    8.40    4.30
  -4   2  -4   -0.50    5.00
   4  -2   4    0.40    4.40
  -4  -2  -4    0.50    4.60
  -4   2  -5   44.60    8.80
   4   2   5   24.00    6.70
   4  -2   5   34.40    8.00
  -4  -2  -5   13.90    6.90
  -4   2  -6  108.79   21.60
   4   2   6  116.99   20.50
   4  -2   6  121.49   21.40
  -4  -2  -6  170.38   22.30
  -4   2  -7   11.80    7.00
   4   2   7   12.50    5.90
  -4  -2  -7   -0.20    6.20
   4  -2   7    5.70    6.60
  -4   2  -8  136.69   24.00
   4   2   8  118.99   22.40
   4  -2   8  137.69   24.60
  -4  -2  -8  174.18   24.50
   4   2   9   11.40    6.60
  -4   2  -9    5.30    8.60
  -4  -2  -9   -3.20    4.70
  -4  -2  -9    1.10    7.30
   4  -2   9   -7.00    6.40
   4   2  10  147.19   25.20
  -4   2 -10  157.98   27.30
  -4  -2 -10  115.99   25.40
   4  -2  10  180.08   26.90
  -4  -2 -10  179.48   27.40
  -4   2 -11   19.70   11.00
  -4   2 -11   -2.60    8.40
  -4  -2 -11    4.10    9.30
  -4   2 -12   40.40   12.80
   4   3 -15   -0.70    9.50
   4   3 -15   -6.00    7.80
   4  -3 -15   11.50    8.70
   4   3 -14    8.20    9.00
   4   3 -14   -6.60    7.70
   4  -3 -14  -10.70    6.90
   4   3 -13   19.70    9.40
   4   3 -13    1.60    7.40
  -4   3  13   -0.50    5.20
   4  -3 -13    8.00    7.90
   4  -3 -13    7.40    6.70
   4   3 -12  -10.40    6.10
  -4   3  12   -1.30    5.40
   4   3 -12   -5.20    6.00
   4  -3 -12    1.80    5.30
   4  -3 -12  -10.80    4.80
  -4  -3  12  -12.00    5.40
   4   3 -11  142.59   25.30
  -4   3  11  141.69   23.10
   4  -3 -11  158.88   24.00
  -4  -3  11  130.49   24.00
  -4   3  10   10.00    5.40
  -4  -3  10    6.30    6.10
   4  -3 -10    3.60    4.60
   4   3  -9    0.60    4.80
  -4   3   9   -1.50    3.60
   4  -3  -9   -6.00    4.00
  -4  -3   9    0.30    5.90
   4   3  -8   -3.80    5.00
  -4   3   8    7.10    4.60
  -4  -3   8    4.10    5.70
   4  -3  -8    3.30    4.40
  -4   3   7  584.14   82.29
   4   3  -7  592.24   83.09
   4  -3  -7  541.85   82.19
  -4  -3   7  597.84   82.99
  -4   3   6   59.29   10.10
   4   3  -6   43.10   10.80
  -4  -3   6   38.40   10.30
   4  -3  -6   64.59   10.20
   4   3  -5  421.06   61.29
  -4  -3   5  439.56   61.29
   4  -3  -5  414.46   60.69
   4   3  -4   30.50    7.70
  -4   3   4   36.60    7.30
   4  -3  -4   29.20    6.90
  -4  -3   4   26.20    7.20
   4   3  -3   69.89   12.70
  -4   3   3   71.49   12.10
   4  -3  -3   70.29   12.00
  -4  -3   3   64.59   11.80
  -4   3   2  154.48   20.20
   4   3  -2  115.69   19.20
   4  -3  -2  110.99   19.20
   4   3  -1   53.19    9.40
  -4   3   1   44.20    9.40
   4  -3  -1   49.99    9.50
   4   3   0   51.19    9.00
  -4   3   0   52.19   10.10
   4  -3   0   39.30    9.30
  -4  -3   0   44.40    8.80
   4   3   1   78.89   12.90
  -4   3  -1   71.29   13.40
  -4  -3  -1   89.89   12.80
   4  -3   1   64.89   13.00
   4   3   2    6.80    4.30
  -4   3  -2   11.60    6.30
   4  -3   2   11.10    5.70
  -4  -3  -2    7.60    4.70
   4   3   3   17.80    5.20
  -4   3  -3   31.40    8.00
  -4  -3  -3   10.00    4.80
   4  -3   3   22.10    6.50
   4   3   4   -4.70    3.50
  -4   3  -4    3.90    5.30
   4  -3   4    2.70    5.30
  -4  -3  -4    0.00    4.30
  -4   3  -5   52.29   11.00
   4   3   5   38.40    8.30
  -4  -3  -5   28.70    8.20
   4  -3   5   50.79   10.00
   4   3   6    4.00    4.30
  -4   3  -6   -2.20    5.80
  -4  -3  -6    1.10    5.20
   4  -3   6    2.30    5.60
   4   3   7   52.89    9.60
  -4   3  -7   29.80   10.20
  -4  -3  -7   34.80    9.00
   4  -3   7   36.60   10.20
  -4   3  -8    3.50    7.20
   4   3   8    3.30    5.40
  -4  -3  -8    8.10    6.70
   4  -3   8    9.70    7.30
  -4   3  -9   36.20   11.80
   4   3   9   33.30    8.20
  -4  -3  -9   21.40    8.90
   4  -3   9   44.60   11.40
  -4  -3  -9   19.40    6.40
  -4   3 -10    5.10    7.00
   4   3  10    0.80    6.70
  -4   3 -10   11.20   10.70
   4  -3  10    6.90    7.90
  -4  -3 -10   13.10    8.50
  -4   3 -11    4.40   10.30
  -4   3 -11   10.50    9.80
  -4  -3 -11    1.40    9.40
   4   4 -14   11.10    9.20
   4   4 -14   10.90    8.90
   4  -4 -14    4.90    7.70
   4   4 -13   18.60    9.30
   4   4 -13   41.20   12.50
   4  -4 -13   -0.10    5.80
   4  -4 -13   24.30    7.60
   4   4 -12   -1.00    7.70
  -4   4  12    1.40    6.50
   4   4 -12    7.50    9.20
   4  -4 -12    9.40    5.90
   4  -4 -12   12.30    6.10
  -4   4  11   30.50    7.70
   4   4 -11   29.20    9.70
   4   4 -11   42.10   10.70
   4  -4 -11   30.10    8.10
  -4  -4  11   14.20    9.00
  -4   4  10    2.00    4.20
   4   4 -10    0.20    5.90
  -4  -4  10    0.10    6.00
   4  -4 -10    5.20    5.20
  -4   4   9  124.59   20.70
   4   4  -9  144.99   23.10
  -4  -4   9  127.09   22.80
   4  -4  -9  149.19   21.90
  -4   4   8   -2.30    3.70
   4   4  -8    4.00    5.20
  -4  -4   8   -2.80    5.10
   4  -4  -8    2.70    4.30
   4   4  -7  232.48   35.30
  -4   4   7  234.68   34.10
  -4  -4   7  231.68   35.20
  -4   4   6  550.44   77.99
   4   4  -6  526.25   78.69
  -4  -4   6  545.95   78.69
   4  -4  -6  559.94   77.99
   4   4  -5   29.40    7.70
  -4   4   5   26.60    7.00
   4  -4  -5   47.20    7.80
  -4  -4   5   32.60    7.90
  -4   4   4  385.86   54.29
   4   4  -4  397.06   54.79
   4  -4  -4  367.06   54.19
  -4  -4   4  362.96   54.59
   4   4  -3   47.40   10.30
  -4   4   3   60.79   10.40
   4  -4  -3   69.39   10.90
  -4  -4   3   51.79   10.60
   4   4  -2   10.40    4.90
  -4   4   2   16.90    5.60
   4  -4  -2    7.20    4.90
  -4   4   1   40.80    8.30
   4   4  -1   22.60    6.70
  -4  -4   1   37.20    7.30
   4  -4  -1   37.70    7.70
   4   4   0   58.99    9.90
  -4   4   0   48.80   10.40
  -4  -4   0   74.09   10.20
   4  -4   0   37.30   10.20
  -4   4  -1    6.30    4.80
   4   4   1   -3.00    3.50
   4  -4   1   -2.60    4.40
  -4  -4  -1    3.00    3.60
  -4   4  -2   50.89   10.10
   4   4   2   46.80    9.00
   4  -4   2   58.59   10.30
  -4  -4  -2   40.50    8.30
   4   4   3  102.29   14.40
  -4   4  -3  100.49   16.60
   4  -4   3   89.69   15.90
  -4  -4  -3   72.89   13.90
   4   4   4   18.20    5.00
  -4   4  -4   10.10    6.50
  -4  -4  -4   12.20    5.00
   4  -4   4   15.80    6.80
  -4   4  -5  148.09   22.60
   4   4   5  130.59   20.00
   4  -4   5  124.49   22.00
  -4  -4  -5  124.49   20.20
  -4   4  -6  162.18   24.90
   4   4   6  143.29   21.20
   4  -4   6  128.49   22.70
  -4  -4  -6  125.29   21.90
  -4   4  -7   11.50    8.30
   4   4   7   21.10    6.20
   4  -4   7   28.30    8.20
  -4   4  -8   17.30    9.20
   4   4   8   19.70    6.80
   4  -4   8   21.10    8.40
  -4  -4  -8   13.70    7.40
  -4  -4  -8   13.70    5.10
  -4   4  -9   74.49   14.90
  -4   4  -9   33.50   10.60
   4   4   9   51.09    9.90
  -4  -4  -9   31.70    8.50
  -4  -4  -9   41.30   10.70
   4  -4   9   36.70   11.20
  -4   4 -10   -5.10    9.60
  -4   4 -10    4.90    7.20
  -4  -4 -10   11.00    5.50
  -4  -4 -10   -0.10    8.00
   4  -4  10    3.00    8.60
  -4   4 -11   17.90    9.90
  -4   4 -11    8.60   11.40
  -4  -4 -11    0.00    9.10
   4   5 -14    1.50    9.50
   4   5 -14  -13.10    9.70
   4  -5 -14    6.40   10.40
   4   5 -13   35.40   12.70
   4   5 -13   53.89   13.80
   4  -5 -13   47.20   10.80
   4  -5 -13   58.19   11.60
   4   5 -12    0.10    7.80
   4   5 -12    9.00    8.40
  -4   5  12    2.70    4.80
   4  -5 -12   -1.80    5.00
   4  -5 -12    5.20    5.40
   4   5 -11  185.38   31.60
  -4   5  11  197.38   28.80
   4   5 -11  211.88   33.40
   4  -5 -11  204.68   28.70
   4  -5 -11  166.08   28.80
   4   5 -10    5.80    7.90
  -4   5  10   13.70    5.30
   4  -5 -10   25.60    7.10
  -4  -5  10    8.30    7.40
  -4   5   9   71.29   11.50
   4   5  -9   42.30   12.30
  -4  -5   9   71.59   21.40
   4  -5  -9   73.59   11.80
  -4   5   8   22.10    6.70
   4   5  -8   42.40    9.50
   4  -5  -8   38.50    7.50
  -4  -5   8   41.00    9.40
   4   5  -7   73.59   16.80
  -4   5   7   99.89   15.30
   4  -5  -7  106.29   15.40
  -4  -5   7   93.29   17.10
  -4   5   6    7.30    4.10
   4   5  -6    2.30    5.40
  -4  -5   6    7.70    5.20
   4  -5  -6   -4.20    6.30
   4   5  -5  166.38   28.00
  -4   5   5  179.88   27.30
  -4  -5   5  191.28   28.10
   4  -5  -5  196.18   27.40
   4   5  -4   26.60    7.00
  -4   5   4   15.30    6.00
  -4  -5   4   28.80    6.70
   4  -5  -4   30.60    6.70
   4   5  -3   47.20   10.40
  -4   5   3   54.19   10.00
   4  -5  -3   57.09   10.00
  -4   5   2   52.79    8.50
   4   5  -2   16.80    6.60
  -4  -5   2   30.80    7.00
   4  -5  -2   41.50    8.10
  -4   5   1  233.58   35.70
   4   5  -1  259.77   35.50
   4  -5  -1  230.08   35.70
  -4  -5   1  243.38   35.40
  -4   5   0    4.70    4.60
   4   5   0    0.10    3.60
   4  -5   0   -5.70    4.40
  -4  -5   0    5.20    3.90
  -4   5  -1   98.29   17.00
   4   5   1   83.29   14.80
   4  -5   1  100.09   16.20
  -4  -5  -1   98.99   14.80
   4   5   2    2.70    3.70
  -4  -5  -2    4.30    3.50
   4  -5   2    0.20    5.40
   4   5   3   10.80    4.50
  -4   5  -3    7.20   11.30
   4  -5   3   24.70    7.30
  -4  -5  -3   21.30    4.80
   4   5   4   41.40    7.00
  -4   5  -4   24.00    9.40
   4  -5   4   21.10    8.70
  -4  -5  -4   39.10    7.10
   4   5   5   -0.60    3.30
  -4   5  -5    0.20    7.20
   4  -5   5   -6.40    5.80
  -4  -5  -5   -2.40    3.80
   4   5   6   12.20    4.60
  -4   5  -6    7.80    8.70
   4  -5   6    9.10    6.10
  -4  -5  -6    6.00    4.90
  -4   5  -7   -3.40    8.50
   4   5   7    8.40    8.20
   4  -5   7    0.70    5.80
  -4  -5  -7   16.10    6.10
  -4   5  -8   54.39   17.20
   4   5   8   45.40    8.90
  -4  -5  -8   34.70    8.00
   4  -5   8   43.20   12.20
  -4  -5  -8   46.70   10.30
   4   5   9   15.60    6.50
  -4   5  -9    6.90    8.90
  -4   5  -9   46.40   19.90
  -4  -5  -9   15.50    8.20
   4  -5   9    7.40    9.00
  -4   5 -10   14.10   21.20
  -4   5 -10   22.90    9.90
  -4  -5 -10    9.40    6.20
  -4  -5 -10   10.30    9.70
  -4   5 -11   17.10   10.50
  -4   5 -11   64.89   28.80
  -4  -5 -11   29.30   10.20
   4   6 -14   18.70   11.30
   4   6 -13    7.70    9.30
   4   6 -13   19.20   10.70
   4  -6 -13    1.90    6.50
   4  -6 -13   18.20    6.90
   4   6 -12   40.30   11.80
   4   6 -12   41.60   12.90
  -4   6  12   21.60    7.30
   4  -6 -12   38.30   10.20
   4  -6 -12   40.40    8.40
   4   6 -11   22.10    9.30
  -4   6  11   12.60    5.10
   4   6 -11    9.60    8.70
   4  -6 -11   10.20    6.40
   4   6 -10   11.60    8.60
   4   6 -10   27.90   10.20
  -4   6  10   13.50    5.20
   4  -6 -10   23.50    6.20
  -4  -6  10   21.30    8.80
  -4   6   9   58.29    9.50
   4   6  -9   51.89   13.10
  -4  -6   9   35.40   11.20
   4  -6  -9   51.29    9.80
  -4   6   8   17.80    5.00
   4   6  -8   29.60    8.70
  -4  -6   8    8.10    6.80
   4  -6  -8   16.60    5.10
  -4   6   7   34.40    7.20
   4   6  -7   38.80    9.10
  -4  -6   7   28.90    9.30
   4  -6  -7   41.40    7.90
   4   6  -6   28.70    9.00
  -4   6   6   25.80    7.20
   4  -6  -6   43.00    7.60
  -4  -6   6   56.59    9.90
   4   6  -5   21.10    7.20
  -4   6   5   25.10    6.30
   4  -6  -5   31.10    6.30
  -4  -6   5   18.30    6.80
  -4   6   4   68.69   11.60
   4   6  -4   47.40   11.30
  -4  -6   4   59.09   12.40
   4  -6  -4   80.09   12.40
   4   6  -3  148.99   23.40
  -4   6   3  156.58   23.30
   4  -6  -3  149.79   23.00
   4   6  -2    2.80    4.40
  -4   6   2    1.30    4.30
  -4  -6   2    5.30    4.10
   4  -6  -2   -7.90    3.80
   4   6  -1    6.50    4.50
  -4   6   1   16.70    5.80
   4  -6  -1    0.40    4.60
  -4  -6   1    2.90    4.20
   4   6   0   22.00    6.00
  -4   6   0   35.60    8.40
  -4  -6   0   29.10    6.00
   4  -6   0   23.30    6.80
  -4   6  -1   18.30    6.90
   4   6   1    9.80    4.40
  -4  -6  -1   19.60    4.70
   4  -6   1    7.80    5.70
   4   6   2   15.90    5.00
  -4   6  -2   23.60    7.40
   4  -6   2   18.10    7.40
  -4  -6  -2   27.40    5.10
   4   6   3  120.09   20.80
  -4   6  -3  150.68   23.70
  -4  -6  -3  145.69   20.70
   4  -6   3  173.18   23.10
   4   6   4    2.40    5.20
  -4   6  -4  -13.60    4.90
  -4  -6  -4    2.30    3.00
   4  -6   4   -6.80    5.30
  -4   6  -5   50.09   12.30
   4   6   5   50.99    9.30
   4  -6   5   61.69   13.00
  -4  -6  -5   54.99    9.30
  -4   6  -6  138.39   21.10
   4   6   6  107.39   16.80
   4  -6   6   97.69   19.40
  -4  -6  -6  103.29   16.70
  -4   6  -7   30.70   10.50
   4   6   7   21.00    5.40
   4  -6   7   14.30    8.00
  -4  -6  -7   11.20    4.00
  -4  -6  -7    9.80    5.30
  -4   6  -8   20.40   11.00
   4   6   8   46.90    7.70
   4  -6   8   19.90   10.10
  -4  -6  -8   25.10    6.20
  -4  -6  -8   25.80    7.60
  -4   6  -9   -2.00    7.60
  -4   6  -9   -0.20   10.40
  -4  -6  -9   -3.20    6.10
  -4  -6  -9   -1.80    3.80
  -4   6 -10   59.09   15.00
  -4   6 -10   70.69   16.90
  -4  -6 -10   37.00    9.30
  -4  -6 -10   28.40    7.70
   4   7 -13   10.80    9.90
   4   7 -13    6.60   10.60
   4  -7 -13    4.40    5.60
   4  -7 -13   10.00    5.50
   4   7 -12    4.60    8.80
   4   7 -12   -3.90    7.50
   4  -7 -12   15.00    5.90
   4  -7 -12    5.90    5.10
   4   7 -11   54.59   13.60
  -4   7  11   31.10    8.00
   4  -7 -11   59.49    9.40
   4  -7 -11   38.10    7.80
   4   7 -10    6.70    7.30
  -4   7  10    6.40    4.10
   4   7 -10    2.40    6.20
   4  -7 -10   -0.70    3.90
   4  -7 -10    6.10    3.50
   4   7  -9   27.00   11.10
  -4   7   9   41.30    7.70
   4   7  -9   42.60   11.10
   4  -7  -9   45.00    8.10
  -4   7   8   -2.70    3.40
   4   7  -8   -2.30    5.60
   4  -7  -8    0.90    3.70
  -4  -7   8   -2.20    5.00
  -4   7   7  101.09   15.20
   4   7  -7   94.29   17.40
  -4  -7   7   85.89   16.90
   4  -7  -7   94.99   15.00
  -4   7   6    2.60    4.10
   4   7  -6   11.20    6.70
   4  -7  -6    7.80    4.20
  -4  -7   6    3.60    5.40
  -4   7   5  183.68   27.30
   4   7  -5  193.38   28.50
   4  -7  -5  184.78   27.20
  -4  -7   5  171.08   28.20
  -4   7   4   15.90    5.20
   4   7  -4    4.40    5.00
   4  -7  -4    9.60    4.90
   4   7  -3  128.49   21.90
  -4   7   3  146.19   21.80
   4  -7  -3  136.19   20.90
  -4  -7   3  129.89   21.00
   4   7  -2  256.47   40.50
  -4   7   2  289.97   40.70
  -4  -7   2  263.47   40.30
   4  -7  -2  299.77   40.70
  -4   7   1   24.70    7.10
   4   7  -1   20.70    6.30
  -4  -7   1   26.90    6.40
   4  -7  -1   19.20    6.70
   4   7   0    5.80    4.00
  -4   7   0   -3.90    5.40
  -4  -7   0   -2.40    3.50
   4  -7   0    3.60    5.20
  -4   7  -1   27.80    7.20
   4   7   1    7.80    4.20
   4  -7   1   11.80    6.30
  -4  -7  -1   14.60    4.10
   4   7   2   28.60    6.10
  -4   7  -2   22.20    7.60
   4  -7   2   20.70    7.20
  -4  -7  -2   21.10    4.90
   4   7   3   21.80    4.60
  -4   7  -3   12.80    7.50
  -4  -7  -3   18.10    3.80
   4  -7   3    6.70    6.00
   4   7   4   11.40    3.70
  -4   7  -4    0.10    6.40
   4  -7   4   10.40    6.30
  -4   7  -5   38.80   10.90
   4   7   5   36.60    6.70
   4  -7   5   25.90    9.70
   4   7   6    1.00    3.20
  -4   7  -6   11.00    8.50
   4  -7   6   13.30    7.70
   4   7   7   47.00    8.00
  -4   7  -7   32.40   12.80
   4  -7   7   33.20   11.20
  -4   7  -8   16.40   11.50
  -4   7  -8    1.60    7.70
   4  -7   8    8.20    8.10
  -4   7  -9   -2.80    6.20
  -4   7  -9  -11.80   10.30
  -4  -7  -9    1.90    3.90
  -4   7 -10   27.80   11.50
  -4   7 -10   33.50   14.20
  -4  -7 -10   21.80    5.10
  -4  -7 -10   16.60    5.70
   4   8 -12   34.20   12.10
   4   8 -12   45.80   13.60
   4   8 -11    9.60    9.00
   4   8 -11    5.60    7.90
   4   8 -10   -1.70    6.70
  -4   8  10    4.10    3.60
   4   8 -10   -0.80    7.10
   4   8  -9   20.80    9.10
   4   8  -9   28.20    9.00
  -4   8   9   22.40    5.30
   4   8  -8   -0.90    6.50
   4   8  -8    0.30    6.20
  -4   8   8    1.60    3.30
   4  -8  -8    3.40    2.90
   4   8  -7  101.19   20.70
  -4   8   7  126.69   18.70
  -4  -8   7  121.69   21.70
   4  -8  -7  126.59   18.30
   4   8  -6   60.39   14.60
  -4   8   6   82.69   13.20
  -4  -8   6   62.09   14.30
   4  -8  -6   89.59   12.80
   4   8  -5   26.10    8.30
  -4   8   5   31.40    7.60
   4  -8  -5   34.20    6.90
  -4  -8   5   24.10    8.30
   4   8  -4   22.40    6.70
  -4   8   4   41.20    7.10
   4  -8  -4   27.60    6.40
  -4  -8   4    7.60    4.90
   4   8  -3   77.49   18.10
  -4   8   3  138.49   19.20
   4  -8  -3  144.89   19.20
  -4  -8   3  105.49   18.80
  -4   8   2   20.10    6.80
   4   8  -2   18.80    6.30
  -4  -8   2   32.00    6.90
   4  -8  -2   22.90    6.70
  -4   8   1   14.20    6.00
   4   8  -1   -1.70    4.00
  -4  -8   1    7.30    4.40
   4  -8  -1   25.80    6.70
  -4   8   0  135.69   21.00
   4   8   0  116.79   18.70
  -4  -8   0  112.99   18.50
   4  -8   0  134.29   20.70
   4   8   1   12.40    4.60
  -4   8  -1   11.70    6.40
   4  -8   1    8.80    6.80
  -4  -8  -1   13.40    4.10
   4   8   2  136.09   21.90
  -4   8  -2  152.98   24.70
   4  -8   2  138.69   24.10
  -4  -8  -2  154.18   21.50
  -4   8  -3   32.60   11.20
   4   8   3   43.60    7.60
   4  -8   3   36.20    9.60
  -4   8  -4    4.50    7.10
   4   8   4   11.70    3.50
   4  -8   4   12.00    6.80
   4   8   5   11.20    3.50
  -4   8  -5   19.60    8.60
   4  -8   5    5.30    7.40
  -4   8  -6   64.19   14.10
   4   8   6   40.70    7.10
   4  -8   6   37.00   11.90
  -4   8  -7   10.80    9.50
   4  -8   7   11.60    9.10
  -4   8  -8    4.30    6.90
  -4   8  -8    1.90    9.90
  -4   8  -9    7.50   11.60
  -4   8  -9    5.20    8.20
   4   9 -11   33.20   13.00
   4   9 -11   23.00   11.10
   4   9 -10   18.70    9.60
   4   9 -10    6.00    8.40
   4   9  -9    0.20    8.30
  -4   9   9    1.10    3.00
   4   9  -9    5.60    7.80
  -4   9   8    0.80    3.10
   4   9  -8    2.90    6.50
   4   9  -8   -6.00    6.80
  -4   9   7    6.80    4.20
   4   9  -7    6.80    6.50
   4   9  -7   24.40    8.20
   4   9  -6    1.60    5.80
  -4   9   6   -0.90    3.90
   4  -9  -6   -0.30    3.00
   4   9  -5   43.60   10.40
  -4   9   5   49.20    9.30
   4  -9  -5   43.10    8.40
   4   9  -4   18.30    7.50
  -4   9   4   41.70    7.90
   4  -9  -4   28.70    7.40
  -4   9   3    5.20    5.00
   4   9  -3    5.20    5.20
  -4  -9   3    5.80    5.30
   4  -9  -3   11.60    4.80
   4   9  -2   10.70    5.00
  -4   9   2   -1.80    4.40
  -4  -9   2    5.40    4.80
   4  -9  -2    9.90    4.80
  -4   9   1   15.30    6.50
   4   9  -1    4.30    4.50
   4  -9  -1   -2.80    4.10
   4   9   0   -0.20    3.40
  -4   9   0    6.40    5.60
   4  -9   0    0.10    5.10
  -4   9  -1  106.09   18.30
   4   9   1   92.19   16.60
   4  -9   1   92.69   17.30
  -4   9  -2   15.90    7.70
   4   9   2   15.70    4.70
   4  -9   2    8.40    6.40
  -4   9  -3    6.50    7.70
   4   9   3    8.90    3.60
   4  -9   3    2.00    6.30
   4   9   4    0.20    2.30
  -4   9  -4   11.00    7.70
   4  -9   4    2.20    6.70
  -4   9  -5   15.80    8.80
   4  -9   5    8.70    7.80
  -4   9  -6    3.90    9.20
  -4   9  -7   -7.90    5.40
  -4   9  -7   -9.50    9.10
  -4   9  -8   19.40   15.80
  -4   9  -8   34.90   13.20
   4  10 -10    6.30    8.40
   4  10 -10    4.40    8.50
   4  10  -9   29.60   11.20
   4  10  -9   37.30   12.60
   4  10  -8   63.79   14.10
   4  10  -8   62.59   14.90
  -4  10   7   10.40    4.70
   4  10  -7   21.80    8.90
   4  10  -7    3.40    6.90
   4  10  -6   33.60   10.60
   4  10  -6   44.80   11.10
  -4  10   6   45.60    8.80
   4  10  -5    3.80    5.60
  -4  10   5   -1.80    4.30
   4  10  -5   -3.70    5.90
  -4  10   4   33.30    7.80
   4  10  -4   14.60    7.00
   4 -10  -4   31.30    6.80
  -4  10   3   84.29   15.90
   4  10  -3   81.09   16.00
   4 -10  -3  100.29   15.60
   4  10  -2   10.30    5.90
  -4  10   2   36.60    8.10
   4 -10  -2   39.30    7.90
   4  10  -1   -3.50    3.80
  -4  10   1    4.80    5.80
   4 -10  -1   -0.30    4.60
   4  10   0    3.80    4.40
  -4  10   0    4.70    6.10
   4 -10   0    2.80    5.80
   4  10   1    7.30    4.60
  -4  10  -1   14.60    7.40
   4 -10   1    5.90    6.30
   4  10   2    0.70    3.90
  -4  10  -2    7.30    6.70
   4 -10   2    0.60    6.20
  -4  10  -3    6.60    8.00
   4  10   3   18.40    4.50
   4 -10   3   25.60    9.10
  -4  10  -4   16.20    9.60
   4 -10   4   21.10   10.30
  -4  10  -5    3.00    9.10
  -4  10  -6   27.10   11.90
  -4  10  -6   15.70    8.20
  -4  10  -7   14.10    9.30
  -4  10  -7   -3.80    9.40
   4  11  -9    2.10    9.40
   4  11  -9   -2.70    6.60
   4  11  -8    7.10    6.80
   4  11  -8   -0.70    8.00
  -4  11   7    6.30    4.00
   4  11  -7    9.80    8.50
   4  11  -7    0.60    6.00
  -4  11   6    2.40    4.40
   4  11  -6   -2.90    5.70
   4  11  -6    8.50    7.10
   4  11  -5   17.10    8.20
   4  11  -5   21.20    8.00
  -4  11   5   31.60    7.20
   4  11  -4   -2.00    5.10
  -4  11   4    5.10    5.60
   4  11  -4   -8.40    5.20
   4  11  -3   21.50    8.10
   4  11  -3   22.40    7.20
  -4  11   3   20.50    7.90
   4  11  -2   24.20    7.20
   4  11  -2   20.00    6.80
  -4  11   2   18.00    7.40
  -4  11   1   85.39   17.50
   4  11  -1   93.39   16.70
   4  11  -1  112.79   17.30
   4  11   0   -3.20    4.20
  -4  11   0    2.90    6.30
   4  11   0   -2.70    4.00
  -4  11  -1   20.80    8.90
   4  11   1   13.90    5.40
   4  11   1   14.30    5.80
   4  11   2    5.70    4.40
  -4  11  -2    8.60    8.10
   4  11   2   11.00    4.40
   4  11   3   -0.70    3.00
  -4  11  -3   -0.60    8.00
   4  11   3    0.60    3.20
  -4  11  -4   14.80    7.50
  -4  11  -4   33.90   10.80
  -4  11  -5   -2.60    6.10
  -4  11  -5    3.00   10.00
  -4  11  -6   -8.20   10.80
  -4  11  -6   -0.10    6.90
   4  12  -7   -0.60    6.60
  -4  12   7    0.10    2.90
   4  12  -7   -5.80    7.40
  -4  12   7    4.00    3.90
   4  12  -6    1.00    6.20
   4  12  -6    2.30    8.10
  -4  12   6   -4.00    4.00
   4  12  -5   15.50    8.70
  -4  12   5   29.10    6.90
   4  12  -5   13.10    7.60
   4  12  -4   42.30    9.50
  -4  12   4   13.90    6.90
   4  12  -4   10.90    6.70
   4  12  -3    2.70    5.70
  -4  12   3    1.20    5.80
   4  12  -3   12.30    6.90
   4  12  -2    8.60    6.60
   4  12  -2   17.00    6.90
  -4  12   2   23.50    7.80
   4  12  -1    0.30    5.30
  -4  12   1   -3.30    5.80
   4  12  -1   -2.30    4.80
   4  12   0   17.60    6.40
   4  12   0    7.90    5.40
  -4  12   0    4.40    6.90
   4  12   1    5.50    4.70
   4  12   1   -3.80    4.10
  -4  12  -1    6.80    7.10
  -4  12  -2   -0.20    5.70
   4  12   2   -5.00    3.70
   4  12   2    3.20    4.40
  -4  12  -3   -1.80    5.70
  -4  12  -3   10.70    9.00
   4  12   3   11.90    4.00
   4  12   3    6.10    3.80
  -4  12  -4    0.30    6.60
  -4  12  -4   10.30    9.10
  -4  13   4    9.60    6.60
   4  13  -4   -2.60    5.80
   4  13  -4   13.10    7.80
  -4  13   4   -2.50    4.60
   4  13  -3   -2.20    6.00
  -4  13   3    3.40    5.30
  -4  13   3   10.20    7.30
   4  13  -3   -1.40    5.60
  -4  13   2    4.60    7.00
   4  13  -2    1.20    5.70
   4  13  -2    5.60    6.50
  -4  13   2    1.00    5.50
   4  13  -1    1.60    4.90
  -4  13   1   -0.30    5.60
   4  13  -1    3.70    5.80
  -4  13   1   -3.40    6.70
   4  13   0    4.10    5.20
  -4  13   0    2.70    5.80
  -4  13   0    4.80    8.00
   4  13   0   -1.40    5.20
  -4  13  -1   -4.40    5.60
  -4  13  -1    2.90    8.10
   4  13   1   -4.40    4.40
   5   0 -15    7.50    8.20
   5   0 -15    7.90    6.10
   5   0 -14  142.49   30.00
  -5   0  14   99.69   19.60
   5   0 -13    6.80    7.80
  -5   0  13   -2.40    6.20
   5   0 -12   -0.30    6.00
  -5   0  12   16.20    7.10
   5   0 -11   -2.20    5.70
  -5   0  11   -7.40    4.80
  -5   0  10  614.04   83.39
   5   0 -10  541.85   83.29
   5   0  -9    3.10    5.40
  -5   0   9    4.80    5.20
   5   0  -8 1664.03  232.78
  -5   0   8 1623.24  232.68
   5   0  -7    4.70    5.60
   5   0  -6   52.79   11.50
  -5   0   6   75.79   12.30
  -5   0   5   13.20    5.10
   5   0  -5    4.20    4.70
  -5   0   4   91.09   15.20
   5   0  -4   94.19   15.30
   5   0  -3    5.60    5.00
  -5   0   3    5.50    5.90
  -5   0   2  139.59   21.00
   5   0  -2  129.49   21.10
   5   0  -1   -2.30    4.50
  -5   0   1    5.00    5.10
   5   0   0   39.20    9.10
  -5   0   0   44.80    9.40
  -5   0  -1   -0.30    4.90
   5   0   2  200.68   30.60
  -5   0  -2  210.08   31.10
  -5   0  -3    6.10    6.10
   5   0   3   -0.90    4.30
  -5   0  -4 1296.97  176.98
   5   0   4 1198.28  176.88
  -5   0  -5    7.60    6.20
   5   0   5    2.70    4.70
   5   0   6  121.09   20.70
   5   0   7   17.10    7.30
   5   0   8  202.68   31.90
   5   0   9    2.70    6.50
  -5   0  -9    1.20    4.60
  -5   0 -10   61.49   15.50
  -5   0 -10   96.49   18.70
   5   0  10   87.79   16.50
   5   0  11    7.50    8.70
  -5   0 -11   -5.00    6.80
  -5   0 -11   15.70   10.10
   5   1 -15   29.60   11.10
   5   1 -15   34.40   11.60
   5  -1 -15   17.80    9.90
   5  -1 -15   46.00   12.10
  -5   1  14   13.30    7.80
   5   1 -14   13.90    8.70
   5   1 -14   12.70    8.50
   5  -1 -14    5.00    7.80
  -5  -1  14   14.40   13.40
   5  -1 -14   11.40    7.80
   5   1 -13   21.70    8.90
  -5   1  13   10.10    7.00
   5  -1 -13   16.70    8.30
  -5  -1  13   23.90    9.50
   5   1 -12    9.50    7.00
  -5   1  12    6.00    5.80
   5  -1 -12    9.50    6.60
  -5  -1  12   32.30    8.50
   5   1 -11   21.40    8.30
  -5   1  11   38.60    9.00
   5  -1 -11   42.50    9.30
  -5  -1  11   26.80    8.80
  -5   1  10   19.60    6.60
   5   1 -10   16.70    7.20
  -5  -1  10    7.80    6.40
   5  -1 -10    8.70    6.00
  -5   1   9   41.30    9.30
   5   1  -9   41.80   10.50
  -5  -1   9   32.20    9.60
   5  -1  -9   57.49   10.60
   5   1  -8   43.10   10.70
  -5   1   8   44.70    9.90
  -5  -1   8   58.09   10.60
   5  -1  -8   46.30   10.00
   5   1  -7   18.60    6.90
  -5   1   7   24.10    6.80
   5  -1  -7   22.70    6.70
  -5  -1   7   18.40    6.40
   5   1  -6   20.90    7.00
  -5   1   6   18.30    6.60
   5  -1  -6   29.80    7.40
  -5  -1   6   37.40    7.40
  -5   1   5   61.29   10.60
   5   1  -5   53.19   10.50
   5  -1  -5   39.10    9.70
  -5  -1   5   59.79   10.90
  -5   1   4   22.10    6.30
   5   1  -4   12.60    6.20
  -5  -1   4   22.10    6.50
   5  -1  -4   32.60    7.50
  -5   1   3  180.28   28.70
   5   1  -3  195.48   28.60
   5  -1  -3  206.58   28.90
  -5  -1   3  183.28   28.70
  -5   1   2   -1.00    4.70
   5   1  -2    7.70    5.30
  -5  -1   2    4.80    4.40
   5  -1  -2    1.40    4.60
  -5   1   1  454.65   64.19
   5   1  -1  448.46   64.09
  -5  -1   1  458.05   64.09
   5  -1  -1  424.96   64.09
   5   1   0    5.80    4.60
  -5   1   0   -0.10    4.70
  -5  -1   0   12.70    5.40
   5  -1   0    3.70    4.80
  -5   1  -1  117.19   17.10
   5   1   1   78.09   15.50
   5  -1   1   99.99   16.40
   5   1   2    7.50    5.20
  -5   1  -2   20.60    6.10
   5  -1   2    2.60    5.00
  -5   1  -3   -9.20    5.00
   5   1   3   -6.20    3.80
   5  -1   3    2.10    4.90
  -5   1  -4   25.10    8.60
   5   1   4   25.10    7.00
   5  -1   4   25.40    7.20
   5   1   5  100.49   16.70
  -5   1  -5  125.19   18.30
   5  -1   5  105.89   17.30
  -5  -1  -5   70.19   16.10
  -5   1  -6   18.80    8.00
   5   1   6   18.90    7.00
   5  -1   6   20.00    7.50
  -5  -1  -6   17.30    7.30
   5   1   7  212.28   33.40
  -5   1  -7  250.27   35.90
   5  -1   7  199.58   33.60
  -5  -1  -7  226.68   34.20
   5   1   8    1.90    6.10
  -5   1  -8    5.90    7.90
   5  -1   8    5.90    6.70
  -5  -1  -8    8.60    7.70
  -5   1  -9   21.10    9.90
   5   1   9   22.60    8.70
   5  -1   9   31.70   11.40
  -5  -1  -9   20.00   10.20
   5   1  10   21.70    8.90
  -5   1 -10    6.10    9.90
  -5  -1 -10   27.90   11.10
  -5  -1 -10   14.20    7.40
   5   1  11   28.40   10.50
  -5   1 -11    7.50    8.00
  -5   1 -11   12.60   13.30
   5  -1  11   14.20   12.70
  -5  -1 -11   14.90    8.20
  -5  -1 -11   45.80   12.90
   5   2 -15    0.20    8.50
   5   2 -15    1.20    9.10
   5  -2 -15   -8.80    7.30
   5  -2 -15    0.70    8.00
   5   2 -14  168.78   31.00
  -5   2  14  209.48   29.40
   5   2 -14  221.48   32.70
   5  -2 -14  186.48   29.70
  -5  -2  14  125.79   29.00
   5  -2 -14  202.38   30.80
  -5   2  13  -10.00    8.10
   5   2 -13    3.20    6.60
  -5  -2  13   -6.40    6.60
   5  -2 -13   -0.40    6.30
  -5   2  12   23.10    7.70
   5   2 -12   21.30    8.20
   5  -2 -12   21.40    7.80
  -5  -2  12    6.40    7.60
  -5   2  11   11.30    6.00
   5   2 -11    0.70    6.30
  -5  -2  11    7.30    7.10
   5  -2 -11    1.50    5.50
  -5   2  10  111.59   17.80
   5   2 -10   94.69   18.70
   5  -2 -10  107.29   18.00
  -5  -2  10   94.99   18.30
  -5   2   9   85.59   13.40
   5   2  -9   54.09   12.90
  -5  -2   9   71.99   13.30
   5  -2  -9   73.89   13.10
   5   2  -8  641.34   91.59
  -5   2   8  600.44   91.09
   5  -2  -8  678.03   91.69
   5   2  -7    1.00    5.00
  -5   2   7    8.20    5.10
  -5  -2   7    0.50    5.00
   5  -2  -7   -0.70    4.40
   5   2  -6    4.70    5.50
  -5   2   6    1.00    4.40
  -5  -2   6   -6.30    4.50
   5  -2  -6   -1.30    4.30
  -5   2   5   16.20    5.60
   5   2  -5   13.90    5.70
   5  -2  -5   10.80    5.20
  -5  -2   5    0.90    4.50
  -5   2   4  470.55   65.09
   5   2  -4  449.46   65.19
  -5  -2   4  456.35   65.19
   5  -2  -4  435.76   65.09
  -5   2   3   77.49   13.80
   5   2  -3   78.19   14.00
  -5  -2   3   72.09   13.90
   5  -2  -3  106.79   14.60
   5   2  -2  267.47   41.60
  -5   2   2  295.17   41.80
  -5  -2   2  291.97   41.70
   5  -2  -2  289.77   41.70
   5   2  -1   15.00    5.60
  -5   2   1   27.30    6.90
   5  -2  -1    4.90    5.10
  -5   2   0   65.69   11.80
   5   2   0   64.39   11.00
   5  -2   0   46.80   10.30
   5   2   1    8.40    4.70
  -5   2  -1   -1.40    5.40
  -5  -2  -1    6.00    3.70
   5  -2   1   -5.10    5.00
  -5   2  -2  353.26   52.09
   5   2   2  348.87   51.49
   5  -2   2  387.96   52.09
  -5  -2  -2  343.07   51.49
   5   2   3   29.00    6.70
  -5   2  -3   17.90    7.10
   5  -2   3   24.10    7.30
   5   2   4  156.38   27.10
  -5   2  -4  173.28   28.00
  -5  -2  -4  185.08   27.50
   5  -2   4  216.98   28.20
  -5   2  -5   -2.50    6.10
   5   2   5   17.30    5.70
   5  -2   5   13.90    6.40
  -5  -2  -5   -8.30    4.70
   5   2   6  184.88   27.00
  -5   2  -6  196.58   28.90
   5  -2   6  196.18   27.90
  -5  -2  -6  133.39   27.10
   5   2   7    5.50    5.70
  -5   2  -7    9.30    7.60
   5  -2   7    4.50    6.00
  -5  -2  -7    5.70    7.00
  -5   2  -8   33.70   12.90
   5   2   8   56.99   12.30
  -5  -2  -8   57.39   12.60
   5  -2   8   79.79   13.70
  -5   2  -9    1.50    8.10
   5   2   9   -5.30    6.10
  -5  -2  -9   15.60    9.00
   5  -2   9    1.20    7.00
  -5   2 -10    6.90   10.10
   5   2  10    2.40    6.70
   5  -2  10   -1.50    7.30
  -5  -2 -10    8.60    9.10
  -5  -2 -10    4.00    6.10
   5   2  11    7.20    8.00
  -5   2 -11   -1.20    8.30
  -5   2 -11    9.80   10.30
   5  -2  11  -11.80    7.50
  -5  -2 -11    2.00    9.80
   5   3 -15   15.50    9.70
   5   3 -15    7.70   10.20
   5  -3 -15    8.30    8.40
   5   3 -14   -6.90    7.40
  -5   3  14   -1.90    6.40
   5   3 -14    9.00    8.50
   5  -3 -14    1.00    7.10
  -5   3  13   -0.70    5.50
   5   3 -13    1.10    7.40
   5   3 -13   -5.20    7.20
   5  -3 -13    8.90    6.70
  -5  -3  13   11.10    8.00
   5   3 -12    5.00    6.80
  -5   3  12    0.90    5.40
  -5  -3  12   -1.60    6.40
   5  -3 -12    4.50    5.60
   5   3 -11   88.99   17.00
  -5   3  11   76.29   15.30
   5  -3 -11   94.59   16.10
  -5  -3  11   91.79   17.00
  -5   3  10   90.69   14.50
   5   3 -10   69.39   15.30
   5  -3 -10   82.09   14.60
  -5  -3  10   72.39   15.10
  -5   3   9  142.99   22.00
   5   3  -9  130.99   23.20
   5  -3  -9  142.89   22.20
  -5  -3   9  146.79   23.70
  -5   3   8   68.79   11.50
   5   3  -8   52.69   11.80
   5  -3  -8   62.79   11.40
  -5  -3   8   46.00   11.40
  -5   3   7  249.97   36.40
   5   3  -7  258.67   37.20
   5  -3  -7  234.98   36.30
  -5  -3   7  247.68   37.00
  -5   3   6   35.20    8.20
   5   3  -6   33.20    9.00
  -5  -3   6   38.50    8.30
   5  -3  -6   33.20    8.00
   5   3  -5    9.30    5.10
  -5   3   5    7.80    4.60
   5  -3  -5    5.00    4.50
  -5  -3   5    1.60    5.50
  -5   3   4   22.20    7.10
   5   3  -4   31.80    7.90
  -5  -3   4   40.40    8.80
   5  -3  -4   32.50    7.40
   5   3  -3   95.59   18.60
  -5   3   3  121.59   19.10
   5  -3  -3  123.99   19.00
  -5  -3   3  132.29   18.90
  -5   3   2   11.50    6.10
   5   3  -2   21.20    5.80
   5  -3  -2   21.90    6.10
   5   3  -1  121.79   20.80
  -5   3   1  155.78   22.30
   5  -3  -1  139.59   21.30
  -5   3   0   -2.20    4.60
   5   3   0    0.10    4.30
  -5  -3   0   -0.80    4.20
  -5   3  -1   12.10    5.60
   5   3   1    6.00    5.20
   5  -3   1    4.60    5.00
  -5  -3  -1   16.30    5.40
  -5   3  -2   55.09   11.80
   5   3   2   65.19   10.70
  -5  -3  -2   59.69   10.50
   5  -3   2   41.30   10.20
   5   3   3  146.19   22.40
  -5   3  -3  163.78   23.80
  -5  -3  -3  135.69   22.60
   5  -3   3  149.99   23.80
   5   3   4   32.00    7.30
  -5   3  -4   22.60    8.30
  -5  -3  -4   29.80    7.90
   5  -3   4   43.70    9.50
   5   3   5   18.20    6.00
  -5   3  -5   10.40    7.10
   5  -3   5   13.50    6.80
  -5  -3  -5   19.90    6.70
   5   3   6   -0.80    4.60
   5  -3   6   15.10    6.80
  -5  -3  -6    8.60    5.80
   5   3   7   39.80    8.80
  -5   3  -7   28.30    9.80
  -5  -3  -7   26.00    9.10
   5  -3   7   33.00    9.80
  -5   3  -8    4.70    8.40
   5   3   8    8.10    5.90
  -5  -3  -8    2.00    7.80
   5  -3   8   12.40    7.80
   5   3   9   62.99   11.70
  -5   3  -9   38.60   12.90
   5  -3   9   50.79   13.10
  -5  -3  -9   37.70   12.20
   5   3  10   11.40    7.70
  -5   3 -10   23.30   11.30
  -5   3 -10    4.00    9.20
  -5  -3 -10   24.60   10.90
   5  -3  10    2.00    8.90
  -5   3 -11   -6.60    7.50
   5  -3  11   23.40   10.90
  -5  -3 -11    4.70   10.40
   5   4 -15    9.00   13.80
  -5   4  14   87.49   16.30
   5   4 -14  101.99   19.70
   5   4 -14  109.89   20.10
   5  -4 -14   72.59   16.00
   5   4 -13   -4.90    7.30
  -5   4  13    0.60    5.60
   5   4 -13   -7.00    7.30
   5  -4 -13   -0.40    6.00
  -5  -4  13   12.90    8.60
   5  -4 -13    0.00    5.70
   5   4 -12    4.80    6.80
  -5   4  12   -3.60    4.60
   5  -4 -12   -2.80    4.70
  -5  -4  12    2.00    7.20
   5   4 -11   12.90    7.20
  -5   4  11    1.50    4.80
   5  -4 -11   14.70    5.90
  -5  -4  11    5.50    7.30
  -5   4  10  133.29   21.70
   5   4 -10  127.59   23.50
   5  -4 -10  141.29   22.10
  -5  -4  10  139.09   23.70
  -5   4   9    3.40    4.70
   5   4  -9    6.20    6.00
   5  -4  -9   14.80    5.90
  -5  -4   9    2.60    5.80
  -5   4   8  553.54   79.89
   5   4  -8  570.74   80.89
   5  -4  -8  526.05   79.89
  -5  -4   8  599.64   80.89
  -5   4   7    5.40    4.60
   5   4  -7   11.20    5.60
  -5  -4   7    1.80    5.50
   5  -4  -7    2.70    4.40
  -5   4   6   49.90    9.60
   5   4  -6   41.30    9.80
  -5  -4   6   75.99   11.50
   5  -4  -6   41.30    9.30
  -5   4   5    2.60    4.50
   5   4  -5   -2.70    4.40
  -5  -4   5    3.30    5.20
   5  -4  -5   -3.90    4.50
  -5   4   4  243.98   36.30
   5   4  -4  250.17   36.60
  -5  -4   4  244.18   36.50
   5  -4  -4  247.08   36.20
   5   4  -3   11.70    5.40
  -5   4   3   12.20    5.90
  -5  -4   3   15.10    6.00
   5  -4  -3   15.90    5.60
   5   4  -2  182.78   27.80
  -5   4   2  188.08   28.20
   5  -4  -2  184.28   27.80
  -5   4   1   29.90    8.00
   5   4  -1   30.40    7.20
  -5  -4   1   33.00    7.30
   5  -4  -1   34.90    7.80
  -5   4   0    4.50    4.70
   5   4   0   -0.20    4.20
  -5  -4   0    3.10    4.00
   5  -4   0   -5.60    4.20
  -5   4  -1   -2.80    5.40
   5   4   1    2.30    4.20
  -5  -4  -1    1.00    4.20
   5  -4   1   -3.80    3.70
  -5   4  -2  148.99   22.00
   5   4   2  113.69   19.50
  -5  -4  -2  135.29   19.50
   5  -4   2  118.69   21.10
  -5   4  -3   26.60    8.00
   5   4   3   10.10    4.90
  -5  -4  -3   10.40    4.80
   5  -4   3   20.30    7.10
  -5   4  -4  215.08   29.30
   5   4   4  183.88   27.60
   5  -4   4  189.28   28.90
  -5  -4  -4  165.38   27.80
   5   4   5    9.40    5.20
  -5   4  -5   27.90    8.40
  -5  -4  -5    2.80    5.30
   5  -4   5   19.40    7.60
  -5   4  -6   61.19   14.00
   5   4   6   52.29   10.80
   5  -4   6   87.39   14.20
  -5  -4  -6   46.00   11.40
  -5   4  -7   66.19   15.20
   5   4   7   72.39   13.00
  -5  -4  -7   51.79   13.60
   5  -4   7   81.49   15.90
   5   4   8  116.69   19.00
  -5   4  -8  107.59   21.10
  -5  -4  -8   90.19   19.00
   5  -4   8  136.49   22.00
  -5   4  -9   22.50   11.00
   5   4   9   26.50    7.60
  -5  -4  -9    5.20    5.00
   5  -4   9   33.90   11.00
  -5  -4  -9   14.70    8.60
   5   4  10   10.10    7.10
  -5   4 -10   27.80   12.10
  -5   4 -10   15.20   10.20
  -5  -4 -10    8.50    9.20
   5  -4  10   18.50   11.10
  -5   5  14    0.00    5.60
   5   5 -14   -2.70    9.70
   5   5 -14    7.10    9.40
   5  -5 -14    1.50    6.80
   5   5 -13   19.50    9.70
   5   5 -13    9.80    9.40
  -5   5  13    3.90    5.50
   5  -5 -13    5.00    6.40
   5  -5 -13   19.90    7.90
   5   5 -12    9.10    7.50
  -5   5  12    2.20    4.90
  -5  -5  12    0.00    6.50
   5  -5 -12   -5.50    5.20
   5   5 -11   -4.00    6.20
  -5   5  11    4.80    4.90
   5  -5 -11    1.20    5.20
  -5  -5  11    6.00    7.40
   5   5 -10   38.30   11.20
  -5   5  10   44.60    9.20
   5  -5 -10   52.19   10.00
  -5  -5  10   41.00   11.30
  -5   5   9    1.20    4.00
   5   5  -9    6.80    6.50
  -5  -5   9   -0.90    5.80
   5  -5  -9    9.90    5.40
   5   5  -8  155.28   23.90
  -5   5   8  128.79   20.20
  -5  -5   8  106.39   21.40
   5  -5  -8  139.29   20.90
  -5   5   7    0.50    4.30
   5   5  -7    3.10    5.90
  -5  -5   7   -1.60    5.10
   5  -5  -7   -0.70    4.30
  -5   5   6    2.80    4.10
   5   5  -6   -2.40    4.50
  -5  -5   6    5.80    5.20
   5  -5  -6    4.80    4.30
  -5   5   5   14.50    5.30
   5   5  -5   10.00    5.60
  -5  -5   5   11.40    5.70
   5  -5  -5   15.40    5.70
   5   5  -4   -6.40    3.90
  -5   5   4    3.00    4.70
   5  -5  -4   -2.50    4.40
  -5  -5   4   -0.60    4.20
   5   5  -3   99.29   16.40
  -5   5   3   95.29   16.30
   5  -5  -3   91.99   16.10
   5   5  -2   68.19   12.90
  -5   5   2   91.99   14.00
  -5  -5   2   59.79   12.10
   5  -5  -2   77.99   12.90
  -5   5   1   73.09   14.30
   5   5  -1   86.49   14.10
   5  -5  -1   96.39   15.30
  -5  -5   1   81.29   14.00
   5   5   0   50.59    8.90
  -5   5   0   61.59   10.80
   5  -5   0   38.50    9.00
  -5  -5   0   36.40    8.50
  -5   5  -1   -1.30    5.00
   5   5   1    4.40    4.00
   5  -5   1   -0.70    5.30
  -5  -5  -1   -5.30    3.80
  -5   5  -2   58.59   11.60
   5   5   2   71.39   10.60
  -5  -5  -2   44.50    9.60
   5  -5   2   49.99   11.30
   5   5   3   -4.50    3.40
  -5   5  -3    4.00    6.50
   5  -5   3    5.40    6.40
  -5  -5  -3   -0.30    3.90
   5   5   4  102.59   14.50
  -5   5  -4   78.79   15.90
  -5  -5  -4   80.19   14.20
   5  -5   4   73.39   15.60
   5   5   5   52.09   10.30
  -5   5  -5   63.19   12.80
  -5  -5  -5   48.40   10.40
   5  -5   5   61.69   13.00
  -5   5  -6   20.70    9.20
   5   5   6   10.30    5.40
   5  -5   6   14.50    8.90
  -5  -5  -6   22.90    6.50
   5   5   7  100.39   16.20
  -5   5  -7  111.89   20.30
   5  -5   7   72.49   17.40
  -5   5  -8   12.00   10.40
   5   5   8   11.30    5.90
  -5  -5  -8   -5.40    6.60
   5  -5   8   11.50    9.40
  -5   5  -9   -9.70    9.50
   5   5   9    5.30    6.20
  -5  -5  -9   -2.40    4.40
  -5  -5  -9   11.70    8.20
   5  -5   9    2.50    8.80
  -5   5 -10   15.00   11.90
  -5   5 -10    4.90    8.10
  -5  -5 -10   -9.10    8.50
   5  -5  10   10.90   10.60
   5   6 -14   60.79   15.00
   5   6 -14   39.30   15.10
   5  -6 -14   53.99   11.70
   5   6 -13    5.80    7.70
   5   6 -13    5.80    9.90
  -5   6  13    2.90    5.60
   5  -6 -13    1.10    6.20
   5  -6 -13    5.00    6.10
   5   6 -12   -2.30    7.60
  -5   6  12    9.40    5.40
   5   6 -12   16.30   10.60
  -5  -6  12   13.50    8.30
   5  -6 -12    4.90    7.60
  -5   6  11   -4.40    4.20
  -5  -6  11   -1.80    6.70
   5  -6 -11   -0.50    5.40
   5   6 -10   36.50   11.70
  -5   6  10   58.29   10.30
   5  -6 -10   51.79   10.60
  -5  -6  10   80.49   14.60
  -5   6   9   22.80    6.30
   5   6  -9   17.80    8.40
   5  -6  -9   36.30    7.40
  -5  -6   9    7.90    7.60
   5   6  -8  198.08   32.70
  -5   6   8  220.78   31.20
   5  -6  -8  215.48   31.40
  -5  -6   8  196.88   32.50
  -5   6   7   13.60    5.50
   5   6  -7    9.50    6.40
   5  -6  -7   28.90    6.40
  -5  -6   7   23.80    7.70
   5   6  -6    6.90    5.30
  -5   6   6    2.80    4.20
  -5  -6   6   -0.90    4.70
   5  -6  -6   -0.80    4.20
  -5   6   5    2.20    4.30
   5   6  -5    4.20    5.30
   5  -6  -5    3.90    4.50
  -5  -6   5   -1.20    4.80
   5   6  -4  205.58   31.50
  -5   6   4  205.58   31.00
   5  -6  -4  212.08   31.00
  -5   6   3   16.80    6.20
   5   6  -3   24.60    6.10
  -5  -6   3   12.30    5.00
  -5   6   2   89.19   17.10
   5   6  -2  104.39   17.10
   5  -6  -2  113.19   17.40
  -5  -6   2  102.59   16.90
   5   6  -1   49.10    9.50
  -5   6   1   48.00   10.40
  -5  -6   1   49.50    9.40
   5  -6  -1   44.70    9.70
   5   6   0   67.39   11.10
  -5   6   0   59.79   12.30
   5  -6   0   53.49   12.40
  -5  -6   0   63.69   11.00
   5   6   1   61.19   12.10
  -5   6  -1   66.69   14.00
   5  -6   1   84.29   14.50
  -5  -6  -1   75.79   12.10
   5   6   2   87.49   14.90
  -5   6  -2   76.49   16.30
   5  -6   2   87.79   16.20
  -5  -6  -2  105.19   14.70
   5   6   3   12.50    4.60
   5  -6   3    5.90    6.70
  -5  -6  -3   16.80    5.10
  -5   6  -4   59.19   13.60
   5   6   4   60.09    9.90
  -5  -6  -4   40.80    9.30
   5  -6   4   59.69   12.20
   5   6   5    4.80    4.10
  -5   6  -5   12.00    8.80
  -5  -6  -5    3.30    4.60
   5  -6   5   13.10    7.90
  -5   6  -6   32.90   11.30
   5   6   6   59.49    8.80
  -5  -6  -6   32.30    8.00
   5  -6   6   20.80    9.40
   5   6   7   43.50    7.50
  -5   6  -7   45.30   13.50
   5  -6   7   -4.20    7.60
  -5  -6  -7   38.10   10.50
   5   6   8   50.09   10.80
  -5   6  -8   92.29   17.60
   5  -6   8   80.09   15.30
  -5  -6  -8   41.00   10.90
  -5   6  -9   -3.80    9.40
   5   6   9    0.60    5.40
  -5  -6  -9    1.30    6.90
  -5  -6  -9    2.60    4.40
  -5   6 -10    4.80    9.60
  -5  -6 -10    1.30    7.30
  -5   7  13   -1.20    4.90
   5   7 -13   -9.00   10.50
   5   7 -13   -2.00    8.20
   5  -7 -13    0.00    5.40
   5  -7 -13   -4.00    5.50
  -5   7  12   -5.20    4.20
   5   7 -12    0.90    8.50
   5   7 -12   11.60    9.40
   5  -7 -12    7.50    5.00
   5  -7 -12    0.10    5.80
   5   7 -11   22.70   10.00
  -5   7  11   23.70    6.20
   5   7 -11   16.70    9.40
   5  -7 -11   15.80    7.40
  -5  -7  11   12.80    8.60
  -5   7  10   26.90    6.40
   5   7 -10   32.00   10.20
   5  -7 -10   24.30    6.50
  -5  -7  10   17.90    9.00
   5   7  -9  116.79   22.10
  -5   7   9  125.59   19.20
   5  -7  -9  146.49   19.60
  -5  -7   9   78.19   20.30
   5   7  -8   23.70    8.10
  -5   7   8   31.20    6.50
  -5  -7   8    5.50    7.20
   5  -7  -8   30.40    6.80
  -5   7   7   11.60    5.30
   5   7  -7   25.00    7.50
  -5  -7   7    2.00    5.90
   5  -7  -7   12.10    5.30
   5   7  -6    0.90    4.40
  -5   7   6    3.80    4.20
   5  -7  -6    7.50    4.80
  -5  -7   6    5.10    5.60
   5   7  -5   37.50   10.20
  -5   7   5   56.39   10.20
  -5  -7   5   55.99   11.20
   5  -7  -5   51.59   10.00
  -5   7   4    6.80    4.50
   5   7  -4    2.50    4.60
   5  -7  -4    2.40    4.80
   5   7  -3    7.40    5.00
  -5   7   3   -4.20    4.20
  -5  -7   3   -4.00    4.10
   5  -7  -3   -2.00    3.90
  -5   7   2   31.90    7.80
   5   7  -2   24.70    6.60
  -5  -7   2   16.20    6.10
   5  -7  -2   28.90    7.40
   5   7  -1    9.10    5.10
  -5   7   1   18.20    6.70
  -5  -7   1   17.30    5.40
   5  -7  -1   25.40    6.90
   5   7   0   22.90    6.00
  -5   7   0   14.40    7.20
   5  -7   0   25.90    8.20
  -5  -7   0   20.90    5.80
  -5   7  -1   10.70    6.60
   5   7   1   10.60    4.30
  -5  -7  -1    9.70    4.60
   5  -7   1    9.50    5.90
  -5   7  -2   16.40    8.00
   5   7   2    9.40    5.00
   5  -7   2    7.10    6.60
  -5  -7  -2   33.30    5.60
  -5   7  -3  152.38   25.00
   5   7   3  137.69   21.50
   5  -7   3  171.98   24.70
  -5  -7  -3  134.09   21.10
  -5   7  -4   22.10   10.00
   5   7   4   33.00    6.80
  -5  -7  -4   32.60    6.60
   5  -7   4   43.40   10.30
  -5   7  -5   28.70    9.80
   5   7   5   20.00    5.30
   5  -7   5   18.90    7.90
  -5  -7  -5   15.40    4.80
   5   7   6   41.10    7.50
  -5   7  -6   28.40   11.70
  -5  -7  -6   28.30    6.90
   5  -7   6   46.40   12.40
  -5   7  -7    7.70    8.90
   5   7   7    7.40    4.40
   5  -7   7    3.90    7.80
  -5  -7  -7   -0.10    4.20
  -5  -7  -7    2.50    3.10
   5   7   8    5.00    4.90
  -5   7  -8   -8.40    8.90
  -5  -7  -8   -1.00    3.70
   5  -7   8   -1.40    9.20
  -5  -7  -8    4.60    5.20
  -5   7  -9   12.50   12.40
  -5   7  -9   22.20   11.00
  -5  -7  -9   21.50    6.80
  -5  -7  -9   30.80    5.90
   5  -7   9   22.20   12.20
   5   8 -12   -0.20    8.00
   5   8 -12   11.50    9.10
  -5   8  12   17.20    5.70
   5  -8 -12   13.00    4.70
   5  -8 -12   11.40    5.20
   5   8 -11   12.00   10.30
   5   8 -11   18.90    9.10
  -5   8  11   30.50    6.30
   5  -8 -11   18.90    5.10
   5  -8 -11   19.60    6.30
  -5   8  10   -2.30    4.20
   5   8 -10    6.70    9.20
   5   8 -10    0.70    6.50
   5  -8 -10   -2.30    4.10
  -5   8   9   11.50    5.10
   5   8  -9   17.30    8.10
   5  -8  -9   18.50    5.30
  -5  -8   9    6.80    6.80
  -5   8   8    6.50    4.30
   5   8  -8    3.80    6.30
  -5  -8   8   -1.90    7.10
   5  -8  -8   -1.90    4.50
  -5   8   7    3.70    4.50
   5   8  -7    1.80    5.40
   5  -8  -7   13.50    5.20
  -5  -8   7   -0.30    6.00
   5   8  -6   -4.40    4.30
  -5   8   6    2.50    4.80
   5  -8  -6    0.80    4.20
  -5  -8   6    1.60    5.60
   5   8  -5    9.90    5.60
  -5   8   5   15.90    5.90
   5  -8  -5    3.70    4.60
   5   8  -4   18.60    6.40
  -5   8   4    5.40    5.30
   5  -8  -4   24.50    6.30
  -5  -8   4   11.90    5.30
  -5   8   3    6.20    5.80
   5   8  -3    5.60    5.10
  -5  -8   3    7.20    5.10
   5  -8  -3    6.80    5.10
  -5   8   2  100.99   18.00
   5   8  -2  117.29   17.90
  -5  -8   2   94.09   17.20
   5  -8  -2  105.99   18.10
   5   8  -1   23.00    6.50
  -5   8   1   24.10    7.60
   5  -8  -1   24.10    7.60
  -5  -8   1   18.60    6.20
  -5   8   0    8.50    6.30
   5   8   0    8.60    4.70
  -5  -8   0    8.50    4.40
   5  -8   0    8.50    6.30
  -5   8  -1    2.20    6.20
   5   8   1   10.40    5.00
   5  -8   1   10.70    7.40
  -5  -8  -1   10.20    4.10
   5   8   2   24.00    6.70
  -5   8  -2   31.00    9.40
  -5  -8  -2   40.40    6.60
   5  -8   2   26.60    9.00
  -5   8  -3   11.00    7.70
   5   8   3    5.90    3.90
   5  -8   3    2.10    6.60
   5   8   4    4.50    3.60
  -5   8  -4   -9.60    6.60
   5  -8   4   -5.00    5.60
  -5  -8  -4   -2.70    2.20
   5   8   5   58.89    9.80
  -5   8  -5   50.49   13.60
   5  -8   5   50.19   13.10
   5   8   6   22.70    5.70
  -5   8  -6   36.10   11.50
   5  -8   6   26.30   10.00
  -5   8  -7   17.60   10.50
   5   8   7   23.50    5.70
   5  -8   7   13.30    9.50
  -5   8  -8   49.60   14.50
   5  -8   8   31.40   12.70
   5   9 -12    8.80    9.80
   5   9 -11    2.80    7.90
  -5   9  11    3.30    4.00
   5   9 -11    8.90    9.00
  -5   9  10   42.50    7.60
   5   9 -10   37.30   12.20
   5   9 -10   22.30   10.80
   5   9  -9    7.10    7.80
  -5   9   9    2.20    4.10
   5   9  -9    6.00    7.50
   5  -9  -9    8.80    3.60
   5   9  -8   -4.90    5.60
  -5   9   8    1.10    4.20
   5  -9  -8   -0.10    3.80
  -5  -9   8    7.80    6.80
   5   9  -7    1.20    5.50
  -5   9   7   13.20    5.10
  -5  -9   7    8.90    6.40
   5  -9  -7    1.80    4.10
   5   9  -6    3.20    5.50
  -5   9   6   -1.20    4.30
  -5  -9   6   -4.30    5.20
   5  -9  -6    3.30    4.80
   5   9  -5    1.70    5.00
  -5   9   5    1.70    4.90
  -5  -9   5   -0.20    3.00
   5  -9  -5   19.10    5.90
   5   9  -4    0.20    4.80
  -5   9   4   -0.90    4.70
  -5  -9   4   -1.00    5.50
   5  -9  -4    4.30    5.10
  -5   9   3    4.10    5.40
   5   9  -3    2.00    4.70
   5  -9  -3   10.60    5.90
  -5  -9   3   -2.10    4.80
   5   9  -2   63.29   13.00
  -5   9   2   83.99   14.80
   5  -9  -2   88.19   14.70
  -5  -9   2   67.99   13.20
  -5   9   1   16.40    6.40
   5   9  -1    3.50    4.30
  -5  -9   1    1.20    4.40
   5  -9  -1    2.80    5.80
   5   9   0   28.50    8.10
  -5   9   0   36.60   10.00
   5  -9   0   50.39   10.80
  -5  -9   0   45.80    8.20
   5   9   1    6.10    4.90
  -5   9  -1    3.20    6.40
   5  -9   1   19.00    8.40
  -5  -9  -1   15.50    4.80
   5   9   2   67.99   12.10
  -5   9  -2   63.19   14.40
   5  -9   2   75.09   14.50
  -5   9  -3  133.19   21.70
   5   9   3  108.79   17.60
   5  -9   3  109.29   20.50
  -5   9  -4   -0.70    6.80
   5   9   4   -0.20    3.20
   5  -9   4   -4.20    7.10
   5   9   5    9.90    3.60
  -5   9  -5    3.50    8.50
   5  -9   5    4.70    8.30
   5   9   6    2.90    2.90
  -5   9  -6   -9.80    8.30
   5  -9   6    6.80    9.70
  -5   9  -7   11.00   11.30
   5  -9   7   13.30   11.00
  -5  10  10    3.50    3.60
   5  10 -10    5.20    7.20
   5  10 -10   -3.30    8.80
  -5  10   9    3.90    4.10
   5  10  -9   -0.40    6.20
   5  10  -9   -7.50    7.80
   5  10  -8   48.90   12.30
   5  10  -8   10.00    9.70
  -5  10   8   47.40    8.20
  -5  10   7    3.00    4.40
   5  10  -7    4.90    6.60
   5 -10  -7   -1.70    3.50
   5  10  -6    4.00    6.40
   5 -10  -6   15.30    4.90
   5  10  -5    1.60    5.70
  -5  10   5    1.20    4.90
   5 -10  -5    7.70    5.60
  -5  10   4   18.80    7.10
   5  10  -4   13.10    6.70
  -5 -10   4   11.70    6.90
   5 -10  -4   24.40    7.10
  -5  10   3    0.80    5.20
   5  10  -3    2.10    4.90
   5 -10  -3    3.60    5.80
  -5 -10   3   10.60    5.50
  -5  10   2   -1.10    5.40
   5  10  -2   -1.30    4.40
   5 -10  -2   -0.20    5.00
  -5 -10   2    2.60    4.60
  -5  10   1    6.40    6.90
   5  10  -1    6.40    5.00
   5 -10  -1    6.70    5.90
  -5 -10   1   -0.50    4.10
  -5  10   0    0.00    6.20
   5 -10   0   -2.60    5.60
   5  10   1    4.60    5.00
  -5  10  -1   14.60    7.60
   5 -10   1   13.90    7.70
  -5  10  -2   53.99   13.00
   5  10   2   55.39   10.70
   5 -10   2   67.59   14.10
  -5  10  -3   -3.20    7.30
   5  10   3    6.60    4.30
   5 -10   3    5.40    7.60
   5  10   4   10.60    3.80
  -5  10  -4   22.50    9.60
   5 -10   4   23.60   10.10
  -5  10  -5    1.80    9.70
   5 -10   5    5.70   10.10
  -5  10  -6   -3.40    9.20
   5 -10   6    6.20   10.70
   5  11  -9    4.60    8.00
   5  11  -9   21.80    9.70
  -5  11   9   16.70    4.60
  -5  11   8    2.50    4.40
   5  11  -8    4.20    8.90
   5  11  -8    5.80    7.70
   5  11  -7   -3.40    7.20
  -5  11   7   -2.50    4.30
  -5  11   6   34.80    7.80
   5  11  -6   18.80    8.80
   5  11  -6   33.40   10.50
  -5  11   5   -1.60    5.50
   5  11  -5   -2.40    5.10
   5 -11  -5    4.70    5.10
  -5  11   4    9.60    6.10
   5  11  -4    1.40    5.50
   5 -11  -4    3.40    5.70
  -5  11   3   -2.00    5.90
   5  11  -3    0.00    5.30
   5 -11  -3    5.90    7.00
  -5  11   2   13.10    7.10
   5  11  -2    5.90    5.30
   5 -11  -2   -0.40    8.90
   5  11  -1   14.40    6.30
  -5  11   1   29.10    9.20
   5 -11  -1   21.70   13.50
  -5  11   0    8.90    7.40
   5  11   0    2.10    4.90
   5 -11   0   12.30    9.80
   5  11   1    0.60    4.20
  -5  11  -1    2.30    6.80
   5 -11   1    1.40    8.10
  -5  11  -2    7.80    8.50
   5  11   2   -1.20    4.30
   5 -11   2    1.50    8.00
  -5  11  -3    6.80    9.10
   5  11   3   28.50    6.00
   5 -11   3   27.50   10.60
  -5  11  -4    1.60    9.30
   5 -11   4   -3.40    8.10
  -5  11  -5    6.60    9.80
   5  12  -7   11.50    7.70
  -5  12   7   20.70    6.30
   5  12  -7   27.50   10.10
  -5  12   6    2.20    5.50
   5  12  -6    3.10    6.80
   5  12  -6    3.50    7.20
   5  12  -5   22.30    8.00
  -5  12   5   -1.00    5.60
   5  12  -5    6.10    7.10
  -5  12   4   -1.10    5.70
   5  12  -4   -0.80    6.10
   5  12  -4    3.10    5.90
   5  12  -3    3.00    5.60
   5  12  -3    9.20    6.80
  -5  12   3   12.50    7.60
   5  12  -2   31.40    9.30
   5  12  -2   43.00   10.00
  -5  12   2   52.59   12.10
   5  12  -1    5.20    5.60
   5  12  -1   13.20    6.50
  -5  12   1   -0.70    6.40
   5  12   0    5.70    5.30
  -5  12   0    7.50    7.50
   5  12   0    1.70    4.90
  -5  12  -1   -3.00    7.20
   5  12   1    9.30    5.40
   5  12   1   13.50    5.30
  -5  12  -2    6.50    8.80
   5  12   2    3.30    4.80
   5  12   2   -0.50    4.20
  -5  12  -3    9.30    9.40
   5  12   3   17.50    4.60
   5  12   3    3.10    3.90
   5  13  -4   -3.20    5.80
   5  13  -3    7.60    6.50
  -5  13   3    1.50    6.80
   5  13  -2   10.90    6.80
   5  13  -2   10.40    6.90
  -5  13   2    3.30    7.20
  -5  13   1    0.40    7.30
   5  13  -1   -1.10    5.00
  -6   0  15   -2.70    8.10
   6   0 -15   -6.30    7.30
   6   0 -14    6.80    8.10
  -6   0  14    9.70    9.60
   6   0 -13   -3.00    6.80
  -6   0  13    3.60    7.00
   6   0 -12   31.40    8.90
  -6   0  12   27.70    8.90
   6   0 -11    6.80    6.00
  -6   0  11    3.80    5.80
  -6   0  10   96.99   14.10
   6   0 -10   44.20   12.40
  -6   0   9   -8.00    5.00
   6   0  -9   -0.30    5.80
   6   0  -8    0.20    4.90
  -6   0   8   11.90    6.20
   6   0  -7    5.50    4.70
  -6   0   7   -3.00    9.00
   6   0  -6    3.60    4.80
  -6   0   6    1.50    4.60
   6   0  -5   -3.90    4.30
  -6   0   5   -1.20    4.60
   6   0  -4   83.29   13.30
  -6   0   4   54.89   11.80
   6   0  -3    0.40    5.30
  -6   0   3   -1.60    4.80
  -6   0   2   10.10    5.20
   6   0  -2    7.20    4.90
  -6   0   1    8.70    5.60
   6   0  -1   -1.80    4.30
  -6   0   0  317.97   43.30
   6   0   0  271.07   43.10
   6   0   1    2.90    4.90
  -6   0  -1    7.80    6.00
   6   0   2   -0.90    4.80
  -6   0  -2    8.30    5.40
  -6   0  -3   -0.50    5.10
   6   0   3    3.20    4.70
   6   0   4   -2.30    3.80
  -6   0  -4   -0.70    5.00
   6   0   5   -6.00    5.20
  -6   0  -5   -4.80    5.30
   6   0   6  262.67   40.30
  -6   0  -6  275.17   42.10
   6   0   7   -6.00    6.00
   6   0   8  105.89   19.60
  -6   0  -9    0.60    5.90
   6   0   9   -1.10    6.60
   6   0  10    5.70    8.60
  -6   0 -10    3.30    8.40
   6   1 -15   24.60   11.70
  -6   1  15   46.70   12.30
   6   1 -15   40.00   12.00
   6  -1 -15   46.00   11.90
   6  -1 -15   41.20   12.20
  -6  -1  15   29.40   11.10
  -6   1  14    8.00    8.10
   6   1 -14   14.40    8.80
  -6  -1  14   15.40    9.10
   6  -1 -14   17.50    9.20
  -6   1  13    5.10    6.40
   6   1 -13   -3.70    6.60
  -6  -1  13    8.10    6.80
   6  -1 -13   -1.60    6.20
   6   1 -12   30.50    9.70
  -6   1  12   13.40    7.00
  -6  -1  12   14.20    8.30
   6  -1 -12   26.60    8.30
  -6   1  11  416.36   60.99
   6   1 -11  406.26   61.29
  -6  -1  11  421.56   61.29
   6  -1 -11  423.06   61.19
   6   1 -10   51.19   11.00
  -6   1  10   36.40   10.20
  -6  -1  10   76.29   12.30
   6  -1 -10   40.20   10.50
  -6   1   9    2.80    5.40
   6   1  -9   13.50    6.20
  -6  -1   9    0.10    5.10
   6  -1  -9    4.30    5.60
  -6   1   8   97.39   17.90
   6   1  -8   97.49   18.20
   6  -1  -8  123.69   19.10
  -6  -1   8  114.69   18.50
  -6   1   7  133.79   21.60
   6   1  -7  105.29   21.00
   6  -1  -7  146.59   22.00
  -6  -1   7  156.68   22.50
   6   1  -6   17.40    7.50
  -6   1   6   43.90    8.90
   6  -1  -6   44.40    9.00
  -6  -1   6   23.10    8.10
   6   1  -5  536.55   74.69
  -6   1   5  500.85   74.59
   6  -1  -5  525.75   74.59
  -6  -1   5  514.05   74.59
  -6   1   4   -0.80    4.70
   6   1  -4   -0.40    4.50
  -6  -1   4   -0.90    4.70
   6  -1  -4    0.90    5.20
   6   1  -3    4.30    5.40
  -6   1   3    6.60    5.20
   6  -1  -3    8.00    5.10
  -6  -1   3   -2.50    5.00
  -6   1   2   11.70    5.90
   6   1  -2   20.80    6.00
   6  -1  -2   22.50    7.30
  -6  -1   2   14.30    6.10
   6   1  -1  453.85   67.99
  -6   1   1  490.95   68.09
   6  -1  -1  481.05   68.09
  -6  -1   1  466.65   67.99
  -6   1   0    6.00    5.70
   6   1   0   -6.20    3.90
   6  -1   0    0.70    4.60
  -6  -1   0    5.90    5.60
  -6   1  -1 1228.68  173.08
   6   1   1 1193.88  172.88
  -6  -1  -1 1243.98  172.88
   6  -1   1 1211.48  172.98
   6   1   2  114.89   19.20
  -6   1  -2  106.59   19.30
   6  -1   2  124.49   19.70
   6   1   3   91.09   15.30
  -6   1  -3   77.79   15.60
   6  -1   3  101.79   16.30
  -6   1  -4    3.20    5.70
   6   1   4    6.50    4.90
   6  -1   4   -0.50    5.00
   6   1   5  295.47   41.70
  -6   1  -5  267.07   42.00
   6  -1   5  274.27   41.90
   6   1   6    6.00    5.40
  -6   1  -6   -1.90    6.30
   6  -1   6    3.40    6.00
  -6  -1  -6   -1.40    5.70
  -6   1  -7   76.19   15.00
   6   1   7   65.99   13.40
  -6  -1  -7   45.60   13.00
   6  -1   7   66.79   14.00
  -6   1  -8    8.30    8.90
   6   1   8   -1.30    6.10
  -6  -1  -8    5.90   12.50
   6  -1   8   -4.40    6.10
  -6   1  -9    5.00    8.80
   6   1   9    5.20    6.90
   6  -1   9    6.00    7.60
  -6  -1  -9   -2.10    8.80
   6   1  10    0.20    7.60
  -6   1 -10  -11.10    8.90
  -6  -1 -10    7.40   10.00
   6  -1  10    9.90    8.80
   6   2 -15    2.00    8.70
  -6   2  15    8.50    8.00
   6   2 -15   -3.70    7.60
   6  -2 -15    3.20    7.30
  -6  -2  15   -2.10    8.00
   6  -2 -15    9.70    8.10
   6   2 -14    8.60    8.70
  -6   2  14    8.60    7.50
  -6  -2  14   -3.20    7.30
   6  -2 -14    7.90    8.20
  -6   2  13    2.50    6.40
   6   2 -13   -3.30    7.70
  -6  -2  13   -5.30    7.00
   6  -2 -13   -6.10    5.10
   6   2 -12   24.90    9.00
  -6   2  12   22.00    7.40
  -6  -2  12   15.90    7.80
   6  -2 -12   15.50    7.80
  -6   2  11   17.50    7.50
   6   2 -11   37.30   10.20
   6  -2 -11   36.40    8.80
  -6  -2  11   19.10    8.00
  -6   2  10    5.30    5.70
   6   2 -10   26.20   13.10
  -6  -2  10    4.40    6.00
   6  -2 -10    9.80    5.80
   6   2  -9    0.00    5.00
  -6   2   9    2.20    5.00
   6  -2  -9    8.40    5.50
  -6  -2   9    1.50    5.70
  -6   2   8   27.30    7.70
   6   2  -8   24.30    8.00
  -6  -2   8   36.40   12.70
  -6   2   7   12.80    5.70
   6   2  -7   -1.00    5.10
   6  -2  -7   -2.80    4.30
  -6  -2   7   -2.80    5.30
   6   2  -6   70.59   13.40
  -6   2   6   74.59   13.40
   6  -2  -6   67.89   13.00
  -6  -2   6   83.29   13.70
  -6   2   5   20.90    6.40
   6   2  -5   11.60    6.10
  -6  -2   5   14.90    6.50
   6  -2  -5   26.70    6.70
   6   2  -4   50.79   10.80
  -6   2   4   52.99   11.00
  -6  -2   4   58.99   11.10
   6  -2  -4   62.69   10.90
  -6   2   3    2.40    5.30
   6   2  -3    4.70    4.60
  -6  -2   3    5.20    5.20
   6  -2  -3    3.60    5.40
   6   2  -2  208.88   32.60
  -6   2   2  211.48   32.00
  -6  -2   2  213.48   31.80
   6  -2  -2  215.58   31.90
  -6   2   1   66.69   11.00
   6   2  -1   29.60    8.70
  -6  -2   1   44.10    9.00
   6  -2  -1   59.69   10.80
   6   2   0  323.87   46.80
  -6   2   0  329.87   47.10
   6  -2   0  307.97   47.00
  -6   2  -1   12.30    6.90
   6   2   1   14.70    5.70
   6  -2   1    8.10    5.80
   6   2   2  530.75   78.29
  -6   2  -2  554.84   78.89
   6  -2   2  540.95   78.69
  -6  -2  -2  559.74   78.39
   6   2   3    9.70    5.10
  -6   2  -3   15.30    7.20
  -6  -2  -3   12.50    6.00
   6  -2   3    2.70    5.20
   6   2   4  169.08   27.10
  -6   2  -4  204.38   28.20
   6  -2   4  185.98   27.90
  -6  -2  -4  151.98   28.30
   6   2   5   -5.60    4.70
  -6   2  -5   -3.40    6.10
  -6  -2  -5    0.00    5.30
   6  -2   5    6.70    5.80
   6   2   6   36.70    8.90
  -6   2  -6   34.20   10.20
   6  -2   6   17.40    8.60
  -6  -2  -6   30.80    9.20
   6   2   7   11.00    6.90
  -6   2  -7   16.00    9.10
  -6  -2  -7    6.30    7.90
   6  -2   7   30.20    9.60
   6   2   8   86.59   16.30
  -6   2  -8   63.49   17.20
   6  -2   8  119.39   18.70
  -6  -2  -8   78.09   16.90
   6   2   9    1.90    7.20
  -6   2  -9    6.80    9.30
  -6  -2  -9    2.50   10.20
   6  -2   9    5.80    8.60
  -6   2 -10  -10.80    8.90
   6   2  10    8.90    7.90
   6  -2  10   -2.00    8.90
  -6  -2 -10    7.60   10.30
   6   3 -15   15.10   17.70
  -6   3  15   22.10    8.90
   6   3 -15   16.50   10.10
  -6  -3  15    8.20   10.10
   6  -3 -15   -1.50    7.60
  -6   3  14   28.70    9.00
   6   3 -14    8.40    9.20
  -6  -3  14   13.70    8.70
   6   3 -13   -3.40    7.00
  -6   3  13    3.70    6.30
   6  -3 -13   10.70    7.70
  -6  -3  13   18.70    9.40
  -6   3  12   -2.30    5.50
   6   3 -12    5.50    6.80
  -6  -3  12   -1.60    6.60
   6  -3 -12   -5.50    5.70
  -6   3  11  297.97   40.80
   6   3 -11  295.37   41.90
  -6  -3  11  262.37   41.50
   6  -3 -11  241.78   40.70
   6   3 -10    3.70    5.70
  -6   3  10    8.80    5.80
   6  -3 -10    3.50    5.20
  -6  -3  10    6.20    6.50
  -6   3   9    9.10    5.30
   6   3  -9    8.80    6.90
   6  -3  -9    3.10    5.00
  -6  -3   9   10.20    6.70
   6   3  -8    8.90    6.70
  -6   3   8    7.80    4.90
  -6  -3   8   -2.60    4.80
   6  -3  -8   -6.60    4.60
   6   3  -7   19.10    7.70
  -6   3   7   27.80    7.50
  -6  -3   7   25.50    7.70
   6  -3  -7   23.40    6.80
  -6   3   6  111.49   18.00
   6   3  -6  122.39   19.00
  -6  -3   6   82.69   17.30
   6  -3  -6  110.09   17.60
  -6   3   5  198.88   27.10
   6   3  -5  156.18   27.20
  -6  -3   5  174.38   27.20
   6  -3  -5  179.58   26.90
   6   3  -4    0.90    5.10
  -6  -3   4    0.00    4.80
   6  -3  -4   -2.70    5.10
   6   3  -3   -1.00    7.90
  -6   3   3   -5.20    4.80
  -6  -3   3   -1.90    4.20
   6  -3  -3    5.30    5.10
   6   3  -2   53.49   10.60
  -6   3   2   49.40   10.10
  -6  -3   2   42.00    9.60
   6  -3  -2   56.69   10.50
  -6   3   1  166.88   25.70
   6   3  -1  157.38   25.10
   6  -3  -1  169.68   25.60
  -6   3   0   10.60    6.50
   6   3   0    9.10    5.20
  -6  -3   0   14.10    4.90
   6  -3   0    3.20    5.30
  -6   3  -1  868.61  120.39
   6   3   1  806.92  119.89
   6  -3   1  847.12  120.19
  -6  -3  -1  853.61  120.89
  -6   3  -2  173.68   25.10
   6   3   2  146.09   22.70
   6  -3   2  136.89   23.90
  -6  -3  -2  141.69   22.80
  -6   3  -3   68.09   14.00
   6   3   3   94.89   13.70
   6  -3   3   72.39   14.00
  -6  -3  -3   64.49   13.10
  -6   3  -4    2.20    6.40
   6   3   4   -1.40    4.30
  -6  -3  -4   -2.50    4.90
   6  -3   4    7.20    5.90
  -6   3  -5  197.18   30.70
   6   3   5  173.88   27.90
   6  -3   5  192.68   29.90
  -6  -3  -5  178.18   29.10
   6   3   6   14.50    7.50
  -6   3  -6   44.70   11.40
  -6  -3  -6   41.40    9.80
   6  -3   6   24.00    9.70
  -6   3  -7   16.90    8.90
   6   3   7    9.60    6.40
   6  -3   7   10.40    8.70
  -6   3  -8   -7.10    8.50
   6   3   8   -9.60    5.40
   6  -3   8   18.10    9.10
  -6  -3  -8   -1.00    7.40
   6   3   9    7.80    7.40
  -6   3  -9    7.90    9.90
  -6  -3  -9   -8.50    8.40
   6  -3   9   -0.20    8.20
  -6   3 -10    1.60   10.60
   6   3  10   -1.70    7.20
   6  -3  10   16.60   10.40
  -6  -3 -10   12.20   10.20
   6   4 -15   11.20   10.10
  -6   4  15    0.40    7.20
   6   4 -15   -3.40    9.00
   6  -4 -15   -3.80    7.00
   6   4 -14    0.00    9.00
  -6   4  14    5.80    6.60
  -6  -4  14    2.60    8.10
   6   4 -13    6.80    8.60
  -6   4  13   -1.90    5.20
   6  -4 -13   -4.90    5.30
  -6  -4  13   -2.50    7.80
   6   4 -12    1.50    8.10
  -6   4  12   29.90    7.50
  -6  -4  12   30.10    9.90
   6  -4 -12   16.10    7.00
   6   4 -11   32.80   10.80
  -6   4  11   27.90    8.10
   6  -4 -11   38.40    9.40
  -6  -4  11   31.40   10.10
  -6   4  10   18.90    6.30
   6   4 -10   12.80    7.00
  -6  -4  10   17.40    8.30
   6  -4 -10   16.60    6.80
   6   4  -9  101.99   19.20
  -6   4   9  104.99   17.50
  -6  -4   9   90.89   19.40
   6  -4  -9  105.89   17.70
  -6   4   8   13.30    5.20
   6   4  -8   10.80    6.00
  -6  -4   8   -5.70    5.40
   6  -4  -8   -0.60    5.10
   6   4  -7   99.69   20.10
  -6   4   7  114.59   19.50
  -6  -4   7  137.59   20.90
   6  -4  -7  131.59   19.90
  -6   4   6  116.89   19.60
   6   4  -6  119.49   20.90
   6  -4  -6  148.59   20.60
  -6  -4   6  108.09   19.90
  -6   4   5   35.80    8.80
   6   4  -5   49.80    9.80
   6  -4  -5   43.70    9.20
  -6  -4   5   30.40    9.10
   6   4  -4    3.00    4.70
  -6   4   4    6.80    5.50
  -6  -4   4    5.20    5.20
   6  -4  -4    3.70    4.60
   6   4  -3    0.80    4.20
  -6   4   3   -2.70    4.80
   6  -4  -3   -6.50    4.30
  -6  -4   3   -7.00    4.00
   6   4  -2   67.69   12.10
  -6   4   2   84.59   14.00
   6  -4  -2   57.79   12.20
  -6   4   1   93.39   16.10
   6   4  -1   61.09   12.60
  -6  -4   1   74.89   12.80
   6  -4  -1   70.49   13.40
   6   4   0  165.48   26.60
  -6   4   0  181.08   27.40
   6  -4   0  180.68   27.20
  -6  -4   0  176.28   26.50
   6   4   1   -2.00    4.30
  -6   4  -1   -1.30    5.60
   6  -4   1   12.90    5.60
  -6  -4  -1    7.70    4.60
  -6   4  -2    4.50    6.40
   6   4   2    9.20    4.90
  -6  -4  -2    4.80    5.30
   6  -4   2   21.70    7.20
  -6   4  -3  243.18   42.30
   6   4   3  289.97   41.30
   6  -4   3  295.77   42.40
  -6  -4  -3  293.17   41.50
  -6   4  -4   36.30    9.40
   6  -4   4   50.19   10.50
  -6  -4  -4   19.10    7.40
  -6   4  -5   16.80    8.20
   6   4   5    2.00    4.60
  -6  -4  -5    1.70    5.60
  -6   4  -6   65.39   15.50
   6   4   6   74.89   12.80
  -6  -4  -6   67.09   13.40
   6  -4   6   44.60   13.60
   6   4   7    4.80    5.60
  -6   4  -7    6.80    8.30
   6  -4   7    5.90    7.20
  -6  -4  -7   -1.70    6.90
  -6   4  -8   63.49   17.30
   6   4   8   79.89   14.60
   6  -4   8   86.29   17.60
  -6  -4  -8   65.99   15.90
  -6   4  -9   35.30   12.30
   6   4   9   18.60    8.00
  -6  -4  -9   16.70   10.30
   6  -4   9   19.10   10.60
  -6   4 -10   14.10   11.50
   6   4  10    5.80    7.10
  -6  -4 -10    0.90   10.20
   6  -4  10   -1.80    9.20
   6   5 -14    5.70    9.20
  -6   5  14    6.40    6.30
   6   5 -14   -0.50   10.00
  -6  -5  14    2.80    8.80
  -6   5  13    9.40    6.10
   6   5 -13   -7.90    6.70
  -6  -5  13    4.30    8.00
   6  -5 -13    2.30    6.10
  -6   5  12   16.30    6.40
   6   5 -12   10.70    7.70
  -6  -5  12    4.30    9.00
   6  -5 -12   16.90    7.30
   6   5 -11   94.99   23.80
  -6   5  11  141.69   20.60
   6  -5 -11  134.39   21.00
  -6  -5  11  101.29   21.60
   6   5 -10   10.70    7.00
  -6   5  10   22.30    6.30
  -6  -5  10   14.30    7.70
   6  -5 -10   19.50    7.10
   6   5  -9   -0.40    5.60
  -6   5   9    7.10    4.90
  -6  -5   9    1.40    6.10
   6  -5  -9   -2.80    4.40
   6   5  -8   12.90    5.80
  -6   5   8   -2.10    4.40
  -6  -5   8   -2.30    6.30
   6  -5  -8    1.20    4.60
   6   5  -7   96.59   17.10
  -6   5   7   81.19   15.20
  -6  -5   7   86.19   16.10
   6  -5  -7   94.19   15.60
  -6   5   6    5.20    4.80
   6   5  -6   -6.50    4.10
  -6  -5   6   -3.60    5.10
   6  -5  -6   -0.40    4.10
   6   5  -5  403.76   60.29
  -6   5   5  415.76   59.99
   6  -5  -5  417.06   60.09
  -6  -5   5  421.06   60.29
   6   5  -4   36.30    9.40
  -6   5   4   53.69    9.90
  -6  -5   4   31.40    8.90
   6  -5  -4   60.69   10.00
   6   5  -3   19.70    6.10
  -6   5   3   15.30    6.50
   6  -5  -3   22.10    6.70
   6   5  -2    2.00    4.30
   6  -5  -2    0.80    5.10
  -6  -5   2   12.40    4.70
   6   5  -1  336.37   49.50
  -6   5   1  350.26   50.19
  -6  -5   1  335.27   49.40
   6  -5  -1  343.57   49.99
   6   5   0   59.59   10.90
  -6   5   0   44.10   11.40
  -6  -5   0   55.99   10.60
   6  -5   0   62.19   11.20
  -6   5  -1  325.77   46.10
   6   5   1  283.37   45.10
  -6  -5  -1  314.77   45.10
   6  -5   1  327.87   46.10
  -6   5  -2    0.60    5.70
   6   5   2    0.00    4.00
  -6  -5  -2    4.90    4.90
   6  -5   2   -2.70    4.80
  -6   5  -3    2.10    6.70
   6   5   3    8.30    4.40
  -6  -5  -3    3.10    4.70
   6  -5   3   14.70    6.80
   6   5   4    3.30    4.70
  -6   5  -4   -3.20    5.90
   6  -5   4   -3.80    5.50
  -6  -5  -4   -3.40    4.90
  -6   5  -5   82.29   15.30
   6   5   5   60.39   11.90
   6  -5   5   51.69   13.80
  -6  -5  -5   68.39   12.50
  -6   5  -6   13.20    8.80
   6   5   6   15.50    6.20
   6  -5   6    8.00    7.90
  -6  -5  -6    1.00    6.20
  -6   5  -7   13.70    9.20
   6   5   7   15.90    6.40
  -6  -5  -7   11.10    7.80
   6  -5   7   18.00    8.70
  -6   5  -8   13.20   10.60
   6   5   8    3.40    7.40
   6  -5   8   36.20   11.00
  -6  -5  -8    7.30    8.00
   6   5   9    9.20    6.90
  -6   5  -9   28.20   12.70
   6  -5   9   24.50   11.20
  -6  -5  -9    2.50    8.90
   6   6 -14   -3.60    9.30
  -6   6  14    3.40    6.40
   6   6 -14   -8.80    7.80
   6  -6 -14    1.70    6.70
  -6   6  13    6.90    5.80
   6   6 -13    0.90    8.90
  -6  -6  13    5.40    9.00
   6  -6 -13   -1.80    7.00
  -6   6  12    0.00    5.30
   6   6 -12   12.60    9.50
  -6  -6  12    3.30    8.20
   6  -6 -12   16.70    6.80
   6   6 -11   12.80    7.70
  -6   6  11    4.10    6.30
  -6  -6  11    9.40    7.40
   6  -6 -11    4.70    6.00
   6   6 -10    1.80    6.40
  -6   6  10    4.30    4.80
   6  -6 -10   -2.00    5.10
  -6  -6  10    3.20    7.40
  -6   6   9   15.50    5.90
   6   6  -9   -2.30    5.80
  -6  -6   9   13.20    7.00
   6  -6  -9   14.70    6.10
  -6   6   8   22.70    6.60
   6   6  -8   14.50    7.30
  -6  -6   8   23.90    8.40
   6  -6  -8   14.90    6.40
   6   6  -7   -0.40    5.60
  -6   6   7    2.60    5.10
   6  -6  -7    2.60    4.70
  -6  -6   7   10.60    6.20
   6   6  -6   17.00    7.90
  -6   6   6   34.60    8.00
   6  -6  -6   36.00    7.90
  -6  -6   6   32.40    9.00
  -6   6   5   45.80    9.80
   6   6  -5   34.90   10.80
  -6  -6   5   42.10   10.00
   6  -6  -5   71.69   11.10
  -6   6   4  130.39   21.20
   6   6  -4  110.89   21.00
   6  -6  -4  146.79   21.50
   6   6  -3   -0.40    4.20
  -6   6   3    0.40    5.20
  -6  -6   3    9.10    4.70
   6  -6  -3    8.70    5.60
  -6   6   2   99.09   15.50
   6   6  -2   69.19   13.60
  -6  -6   2   78.09   13.90
   6  -6  -2   76.49   14.50
  -6   6   1  129.59   18.80
   6   6  -1  107.79   17.00
   6  -6  -1   77.19   20.70
  -6  -6   1   89.59   16.60
  -6   6   0   51.19   11.40
   6   6   0   41.50    9.20
   6  -6   0   42.10   12.60
  -6  -6   0   52.29    9.50
   6   6   1    7.50    4.50
  -6   6  -1    6.90    6.00
  -6  -6  -1   15.40    5.30
   6  -6   1    6.90    5.90
   6   6   2   11.40    5.10
  -6   6  -2    1.70    7.00
   6  -6   2    1.60    6.30
  -6  -6  -2   11.80    5.30
  -6   6  -3    4.00    6.90
   6   6   3   -1.50    4.10
  -6  -6  -3   -3.40    4.30
   6  -6   3    9.80    6.50
   6   6   4    6.20    4.50
  -6   6  -4   11.70    8.30
   6  -6   4  -12.00    5.30
  -6  -6  -4    9.00    5.70
  -6   6  -5   24.20    9.50
  -6  -6  -5   17.90    6.70
   6  -6   5   19.30    9.40
  -6   6  -6   11.80    9.90
   6   6   6   22.10    6.40
  -6  -6  -6   14.70    6.90
   6  -6   6   14.60   15.10
  -6   6  -7   32.40   12.30
   6   6   7   33.90    8.20
   6  -6   7   44.50   18.80
  -6   6  -8    7.60   10.80
   6   6   8    6.50    5.90
   6  -6   8   25.10   10.80
  -6  -6  -8    7.70    7.70
   6   6   9   -3.60    5.70
  -6   6  -9   -1.70   10.90
  -6  -6  -9    6.30    8.50
   6  -6   9   -3.90    9.00
   6   7 -13   -5.40    8.90
   6   7 -13   33.80   12.60
  -6   7  13   20.40    6.60
   6   7 -12   37.70   11.90
  -6   7  12   37.10    7.90
   6  -7 -12   12.00    7.50
  -6  -7  12    8.60    9.30
   6   7 -11   78.99   16.50
  -6   7  11   65.79   13.00
   6  -7 -11   96.59   15.00
  -6  -7  11   61.79   16.00
   6   7 -10    1.60    6.80
  -6   7  10   11.50    5.30
   6  -7 -10    0.10    5.10
  -6  -7  10   -0.30    8.50
  -6   7   9   50.69    8.40
   6   7  -9    4.10    7.70
  -6  -7   9   32.70    9.90
   6  -7  -9   36.30    8.30
  -6   7   8   42.10    9.60
   6   7  -8   41.10   10.40
  -6  -7   8   38.50   11.20
   6  -7  -8   44.50    9.50
  -6   7   7   38.40    7.60
   6   7  -7   19.00    8.50
   6  -7  -7   31.30    8.20
  -6  -7   7   29.30    9.10
   6   7  -6    2.30    5.00
  -6   7   6    3.40    5.00
  -6  -7   6    1.60    5.40
   6  -7  -6   -5.90    4.40
  -6   7   5   -1.10    4.90
   6   7  -5    2.90    4.80
  -6  -7   5    2.00    4.70
   6  -7  -5    5.80    5.10
  -6   7   4   -4.70    4.20
   6   7  -4   -0.80    4.30
   6  -7  -4    4.80    5.30
  -6  -7   4   -0.50    2.50
   6   7  -3   -0.20    4.40
  -6   7   3   11.70    6.10
   6  -7  -3   14.90    6.20
  -6  -7   3  -10.80    6.80
  -6   7   2    2.40    5.90
   6   7  -2   11.40    5.10
   6  -7  -2    5.20    5.30
  -6  -7   2   13.60    5.20
   6   7  -1  280.87   40.50
  -6   7   1  274.27   41.30
  -6  -7   1  275.07   40.40
   6  -7  -1  267.27   41.20
   6   7   0   -1.70    4.00
  -6   7   0    3.30    6.30
  -6  -7   0    1.10    4.40
   6  -7   0   12.60    5.80
  -6   7  -1   88.99   17.50
   6   7   1   75.19   15.50
  -6  -7  -1  107.79   15.90
   6  -7   1  120.99   18.10
   6   7   2   -3.60    4.00
  -6   7  -2   10.60    6.70
  -6  -7  -2   -3.00    4.00
   6  -7   2    1.80    6.60
  -6   7  -3   -2.70    6.40
   6  -7   3   -3.00    6.60
  -6  -7  -3    3.20    4.20
  -6   7  -4    5.10    7.80
   6   7   4   19.20    5.50
   6  -7   4   18.30    8.30
  -6  -7  -4   12.80    5.30
   6   7   5   53.99   10.50
  -6   7  -5   48.30   13.20
  -6  -7  -5   52.49   11.50
   6  -7   5   81.29   15.00
   6   7   6    7.60    5.20
  -6   7  -6   -3.90    8.60
  -6  -7  -6   -1.70    4.60
   6  -7   6   19.60    8.70
   6   7   7   -2.10    4.60
  -6   7  -7   -7.60    8.50
   6  -7   7    6.60    9.40
  -6  -7  -7   -2.40    5.30
   6   7   8    0.20    5.30
  -6  -7  -8   -6.80    5.80
  -6  -7  -8    5.30    4.10
   6  -7   8  -11.00    9.50
   6   8 -12    7.10    9.60
  -6   8  12    7.30    5.30
   6   8 -12   -5.20    9.50
   6  -8 -12    9.30    6.40
  -6   8  11   11.00    5.60
   6   8 -11   24.30    9.80
  -6  -8  11   11.10    9.10
   6  -8 -11   13.10    6.10
  -6   8  10    0.70    4.70
   6   8 -10    3.80    6.60
  -6  -8  10   -9.10    6.20
   6  -8 -10    2.60    5.60
  -6   8   9   41.30    9.20
   6   8  -9   30.30   11.60
  -6  -8   9   41.10   12.00
   6  -8  -9   61.09   10.40
  -6   8   8   16.50    6.10
   6   8  -8    9.60    6.80
  -6  -8   8   25.90    8.90
   6  -8  -8   26.00    6.90
   6   8  -7   68.99   16.60
  -6   8   7  100.59   16.40
  -6  -8   7   85.19   17.80
   6  -8  -7  121.49   16.90
   6   8  -6  122.49   22.20
  -6  -8   6  119.89   21.40
   6  -8  -6  133.49   21.00
   6   8  -5    8.20    5.20
  -6   8   5    7.50    5.20
   6  -8  -5   -1.60    4.00
   6   8  -4   -0.40    4.40
  -6   8   4   -0.20    4.70
   6  -8  -4    0.30    4.30
  -6  -8   4   -6.50    4.40
   6   8  -3   20.20    6.90
   6  -8  -3   16.50    6.80
  -6  -8   3   18.70    6.70
   6   8  -2    2.40    4.50
  -6   8   2    6.50    6.00
   6  -8  -2   -2.60    5.20
  -6  -8   2   -6.20    3.80
   6   8  -1    7.70    5.10
  -6   8   1    8.30    6.30
   6  -8  -1   16.00    7.00
  -6  -8   1    3.60    4.40
  -6   8   0   27.80    9.10
   6   8   0   26.50    7.30
   6  -8   0   34.10    9.80
  -6  -8   0   29.00    7.00
   6   8   1    0.30    4.40
  -6   8  -1    3.60    6.50
   6  -8   1   -4.80    6.00
  -6  -8  -1    7.00    4.30
  -6   8  -2   31.70    8.80
   6   8   2   22.80    6.20
  -6  -8  -2    7.20    4.90
   6  -8   2    7.50    8.00
  -6   8  -3  188.48   25.10
   6   8   3  129.29   18.80
  -6  -8  -3   69.79   19.60
   6  -8   3  148.69   22.60
   6   8   4   44.40    8.40
  -6   8  -4   30.80   11.50
   6  -8   4   43.10   13.10
  -6  -8  -4   43.10    7.90
  -6   8  -5    3.60    9.00
   6   8   5    6.20    4.20
  -6  -8  -5    5.20    3.80
   6  -8   5   12.60    8.40
   6   8   6   18.70    5.40
  -6   8  -6    4.90   10.00
  -6  -8  -6    2.40    3.70
   6  -8   6   18.80   10.80
   6   8   7   26.90    6.30
  -6  -8  -7   13.60    4.30
  -6  -8  -7   15.00    4.10
   6  -8   7   20.30   10.80
   6   9 -12  -10.00    9.60
  -6   9  12    2.10    4.70
   6   9 -11    8.50    9.90
  -6   9  11    5.90    4.50
   6   9 -11    3.40    7.80
   6  -9 -11    1.00    4.40
  -6   9  10    5.30    5.10
   6   9 -10   -3.80    6.70
  -6  -9  10   -7.40    8.00
   6  -9 -10    1.70    4.70
   6   9  -9   13.00    8.70
  -6   9   9   17.30    6.00
   6  -9  -9   14.20    5.50
  -6  -9   9   31.50    9.80
  -6   9   8    3.30    5.90
   6   9  -8   -2.00    6.60
  -6  -9   8   -5.00    6.50
   6  -9  -8   -2.20    4.40
  -6   9   7    4.60    4.80
   6   9  -7   22.20    7.60
  -6  -9   7   -0.60    6.30
   6  -9  -7    0.90    4.80
  -6   9   6    0.10    5.00
   6   9  -6    2.90    5.80
   6  -9  -6   -2.30    4.70
  -6  -9   6    5.30    6.30
   6   9  -5  101.79   19.50
  -6   9   5   95.89   18.60
   6  -9  -5  143.49   19.90
   6   9  -4   10.80    6.10
  -6   9   4   17.20    6.50
   6  -9  -4   15.40    6.30
  -6  -9   4    3.80    5.90
  -6   9   3   -5.00    5.20
   6   9  -3   -0.50    4.80
   6  -9  -3    2.40    5.70
  -6  -9   3    0.00    4.90
  -6   9   2   21.40    8.10
   6   9  -2   18.20    7.00
   6  -9  -2   23.40    8.60
  -6  -9   2   29.20    7.80
   6   9  -1   31.10    8.50
  -6   9   1   33.20    9.70
  -6  -9   1   38.50    8.50
   6  -9  -1   26.40    9.50
   6   9   0   17.30    6.10
  -6   9   0    0.80    6.70
   6  -9   0   20.80    8.70
  -6  -9   0   13.00    5.50
  -6   9  -1   78.29   16.90
   6   9   1   74.39   14.10
   6  -9   1   87.69   17.00
  -6  -9  -1   83.69   13.70
  -6   9  -2    1.40    7.00
   6   9   2   -0.90    4.30
   6  -9   2    2.90    7.50
   6   9   3   -1.00    3.90
  -6   9  -3   13.00    9.10
  -6  -9  -3    1.40    3.40
   6  -9   3   -3.80    5.90
   6   9   4    1.80    3.80
  -6   9  -4    4.60    9.20
   6  -9   4    6.60    8.20
  -6  -9  -4    2.50    2.70
  -6   9  -5    6.00   10.10
   6   9   5   24.70    5.90
   6  -9   5   31.20   11.10
   6   9   6    5.70    4.40
  -6   9  -6   18.70   11.40
   6  -9   6   12.30    9.70
   6  10 -10    5.70    8.30
  -6  10  10    3.80    4.60
   6  10  -9   36.30   11.90
  -6  10   9   31.40    8.50
   6 -10  -9   57.19    8.80
  -6  10   8    4.70    5.40
   6  10  -8    1.90    6.80
  -6 -10   8    6.20    8.10
   6 -10  -8   -2.50    5.00
  -6  10   7   12.10    6.00
   6  10  -7   15.40    7.50
   6 -10  -7   13.60    8.20
  -6 -10   7    9.90    7.40
  -6  10   6    6.50    5.80
   6  10  -6   -2.60    5.50
   6 -10  -6    0.90    5.60
  -6  10   5   56.89   10.90
   6  10  -5   20.50    8.20
  -6 -10   5   13.30    9.30
   6 -10  -5   46.10    9.20
  -6  10   4   25.00   13.20
   6  10  -4   30.80    8.60
   6 -10  -4   39.00    8.90
  -6 -10   4   11.70    7.70
   6  10  -3   11.30    6.40
  -6  10   3   27.20    8.30
   6 -10  -3   14.00    8.20
  -6 -10   3   24.50    7.70
  -6  10   2    5.70    6.80
   6  10  -2    2.80    5.00
   6 -10  -2    4.70    6.90
  -6 -10   2    5.20    5.60
   6  10  -1    3.50    4.90
  -6  10   1    9.50    7.50
  -6 -10   1    4.50    5.10
   6 -10  -1    6.30    7.00
  -6  10   0    8.80    7.90
   6  10   0    7.30    8.90
   6 -10   0   13.40    7.80
  -6 -10   0    4.70    4.70
  -6  10  -1    3.30    7.20
   6  10   1    1.90    4.80
   6 -10   1    7.00    6.80
   6  10   2   -3.40    4.10
  -6  10  -2   -0.80    8.30
  -6 -10  -2   -0.80    3.10
   6 -10   2   -3.80    6.60
   6  10   3   21.20    5.60
  -6  10  -3   19.60    9.30
   6 -10   3    8.30    8.20
  -6  10  -4   -6.00   10.00
   6  10   4    9.10    4.30
   6 -10   4   12.00    8.90
  -6  10  -5    1.80   10.60
   6  10   5    3.90    3.70
   6 -10   5    2.40   10.20
  -6  11   9    9.80    5.30
   6  11  -9    6.90   10.50
   6  11  -9   -3.80    7.30
  -6  11   8   32.10    7.50
   6  11  -8   25.40    9.70
   6 -11  -8   21.60    6.00
   6  11  -7    9.20    7.00
  -6  11   7    9.60    5.80
   6 -11  -7    6.00    5.10
   6  11  -6    4.90    6.60
  -6  11   6   -1.20    5.50
   6 -11  -6    9.40    5.50
  -6  11   5    6.00    6.20
   6  11  -5   12.20    7.30
   6 -11  -5   15.60    7.20
  -6  11   4    3.80    6.50
   6  11  -4    3.30    5.80
   6 -11  -4    1.30    6.40
  -6 -11   4   -1.90    5.60
   6  11  -3    0.80    5.20
  -6  11   3    7.30    6.70
  -6 -11   3   -6.40    4.90
  -6  11   2   14.80    7.70
   6  11  -2    9.00    6.00
   6 -11  -2    8.60    7.10
  -6 -11   2   15.60    6.40
   6  11  -1   54.89   14.60
  -6  11   1   90.79   16.50
   6 -11  -1   92.09   16.30
  -6  11   0    1.60    7.30
   6  11   0    1.40    5.20
   6 -11   0   -3.80    6.80
  -6  11  -1   -6.20    7.50
   6  11   1    2.30    4.70
   6 -11   1    9.80    8.20
   6  11   2   26.10    6.90
  -6  11  -2   27.30   11.30
   6 -11   2   17.60    9.60
   6  11   3   -2.00    3.80
  -6  11  -3   11.50    9.80
   6 -11   3   -1.90    8.50
  -6  11  -4   -4.20    9.50
   6  11   4    6.00    3.50
   6 -11   4   -3.60    8.70
   6  12  -7   -0.50    6.60
  -6  12   7    6.70    6.00
   6  12  -6    5.10    7.80
  -6  12   6    4.70    6.00
   6  12  -6    3.20    6.70
   6  12  -5   -1.00    6.00
  -6  12   5    3.70    6.10
  -6  12   4   -5.70    5.80
   6  12  -4   -2.40    5.20
   6  12  -3   42.50   10.50
  -6  12   3   31.80   10.60
  -6  12   2   -7.60    6.90
   6  12  -2    0.90    5.10
  -6  12   1    6.10    8.70
   6  12  -1   -1.50    5.40
   6 -12  -1   20.30   10.30
  -6  12   0   15.10    9.10
   6  12   0   11.00    5.90
   6 -12   0   22.40    9.30
  -6  12  -1   -6.10    8.10
   6  12   1   -0.40    5.10
   6 -12   1    7.40    9.60
   6  12   2   -1.40    4.50
  -7   0  15   -4.30    7.00
   7   0 -15  -10.40    6.60
   7   0 -14   30.40   11.10
   7   0 -13    4.80    6.70
  -7   0  13   -2.10    6.20
   7   0 -12    3.50    6.70
  -7   0  12   21.50    8.00
  -7   0  11    0.30    5.40
   7   0 -11   -9.10    5.20
   7   0 -10   43.40   11.40
  -7   0  10   79.89   13.30
   7   0  -9    5.20    6.50
  -7   0   9    9.90    5.80
  -7   0   8  393.16   57.49
   7   0  -8  393.56   57.49
   7   0  -7   -6.40    4.40
  -7   0   7   -5.80    4.40
   7   0  -6  117.19   21.90
  -7   0   6  157.78   22.70
  -7   0   5   -0.60    5.30
   7   0  -5   -1.20    4.80
  -7   0   4  302.87   42.20
   7   0  -4  268.67   42.10
   7   0  -3    3.30    5.50
  -7   0   3   -5.80    4.80
  -7   0   2  644.64   89.79
   7   0  -2  608.04   89.69
   7   0  -1   -3.70    4.10
  -7   0   1    0.30    5.40
   7   0   0   19.70    6.90
  -7   0   0   24.80    7.80
  -7   0  -1   -5.30    5.80
   7   0   1    7.80    5.60
   7   0   2  615.84   89.79
  -7   0  -2  635.24   89.99
   7   0   3    1.40    4.80
  -7   0  -3   -6.00    5.00
  -7   0  -4  220.48   34.10
   7   0   5    3.60    5.90
  -7   0  -5   -2.20    6.20
  -7   0  -6   -6.40    6.50
   7   0   6   -4.00    5.70
   7   0   7    7.90    6.90
   7   0   8    0.70    7.00
   7   0   9   -4.80    7.30
  -7   0 -10    1.80    8.10
  -7   1  15   21.70    9.90
   7   1 -15   24.50   10.90
   7  -1 -15   14.20   10.20
  -7  -1  15   38.30   11.40
  -7   1  14    8.60    7.70
   7   1 -14    3.30    8.50
  -7  -1  14   -4.60    6.60
  -7   1  13    8.20    7.50
   7   1 -13   24.10    9.10
  -7  -1  13   14.50    8.30
   7  -1 -13    5.40    7.10
   7   1 -12    2.60    6.40
  -7   1  12    4.10    6.70
   7  -1 -12   10.50    7.10
  -7  -1  12    8.40    7.00
  -7   1  11   83.39   14.50
   7   1 -11   58.69   13.80
  -7  -1  11   57.89   14.10
   7  -1 -11   77.69   15.00
  -7   1  10   49.80   11.50
   7   1 -10   47.10   11.90
   7  -1 -10   50.69   12.00
  -7  -1  10   67.39   12.40
  -7   1   9  225.58   33.70
   7   1  -9  210.38   34.00
   7  -1  -9  217.18   33.80
  -7  -1   9  232.08   33.90
   7   1  -8    0.80    5.00
  -7   1   8    3.30    5.20
  -7  -1   8   -6.00    4.80
   7  -1  -8    5.80    5.00
   7   1  -7    2.40    5.30
  -7   1   7   -7.00    4.50
   7  -1  -7   -3.80    4.50
  -7  -1   7   -0.30    4.80
   7   1  -6  142.19   24.00
   7  -1  -6  135.19   23.70
  -7  -1   6  164.48   24.40
   7   1  -5  118.69   19.40
  -7   1   5  112.69   19.90
  -7  -1   5  101.19   18.80
   7  -1  -5  134.59   20.00
  -7   1   4   18.90    6.20
   7   1  -4   13.60    5.70
  -7  -1   4   18.50    6.30
   7  -1  -4    9.40    5.50
  -7   1   3  310.07   44.30
   7   1  -3  303.07   44.30
   7  -1  -3  286.77   44.10
  -7  -1   3  301.07   44.10
   7   1  -2    4.70    5.10
  -7   1   2    0.20    5.50
  -7  -1   2    8.50    5.60
   7  -1  -2    6.70    5.20
   7   1  -1  177.48   26.80
  -7   1   1  171.28   26.80
  -7  -1   1  172.18   26.70
   7  -1  -1  172.38   26.90
  -7   1   0   16.60    7.80
   7   1   0   17.40    7.50
  -7  -1   0   15.20    6.70
   7  -1   0   17.60    6.20
  -7   1  -1   40.30    9.90
   7   1   1   39.20    8.90
  -7  -1  -1   49.50   10.40
   7  -1   1   34.50    9.40
   7   1   2    2.90    4.60
  -7   1  -2   18.50    7.50
  -7  -1  -2    0.70    5.60
   7  -1   2    2.50    5.20
  -7   1  -3   15.40    7.30
   7  -1   3   23.20    7.00
   7   1   4    1.00    4.80
  -7   1  -4   -2.60    6.20
   7  -1   4    0.20    4.70
   7   1   5   14.60    6.30
  -7   1  -5    0.00    7.20
  -7  -1  -5   -1.10    3.60
   7  -1   5   21.20    7.80
  -7   1  -6    5.00    7.70
   7   1   6    4.70    6.20
  -7  -1  -6   -4.00    5.50
   7  -1   6   -1.30    6.90
  -7   1  -7    9.80    9.90
   7   1   7   33.60    9.70
   7  -1   7   32.00    9.40
  -7  -1  -7   18.00    9.80
   7   1   8   -5.40    6.50
  -7   1  -8   17.50   10.20
   7  -1   8    0.00    6.70
   7   1   9   41.80   11.80
  -7   1  -9   45.50   14.10
   7  -1   9   39.80   12.70
  -7  -1  -9   44.10   13.10
  -7  -1 -10   -1.80   10.10
  -7   2  15   -5.60    6.60
   7   2 -15    2.90    8.30
  -7  -2  15   18.80    9.20
   7  -2 -15  -10.30    7.00
   7   2 -14   39.20   12.00
  -7   2  14   18.60    8.70
  -7  -2  14   26.20   10.30
   7  -2 -14   41.30   10.90
   7   2 -13    4.40    7.50
  -7   2  13    0.30    6.70
   7  -2 -13    6.90    6.90
  -7  -2  13   -2.30    6.10
  -7   2  12   48.20   11.50
   7   2 -12   62.99   13.50
   7  -2 -12   43.60   12.20
  -7  -2  12   45.20   12.00
   7   2 -11    2.30    6.30
  -7   2  11    1.20    5.60
   7  -2 -11    3.60    5.70
  -7  -2  11    7.70    6.70
  -7   2  10   19.30    7.80
   7  -2 -10   34.60    8.80
  -7  -2  10   20.70    7.90
  -7   2   9   -4.20    4.90
   7   2  -9    7.70    5.90
   7  -2  -9    4.30    5.20
  -7  -2   9    3.90    5.70
   7   2  -8  432.66   62.59
  -7   2   8  428.56   62.19
   7  -2  -8  422.86   62.19
  -7   2   7   32.80    8.10
   7   2  -7   20.10    6.70
   7  -2  -7   18.50    6.90
  -7  -2   7   20.30    7.10
  -7   2   6   83.09   13.40
   7   2  -6   49.20   11.80
   7  -2  -6   53.29   11.90
  -7  -2   6   75.19   12.90
   7   2  -5   17.70    6.40
  -7   2   5   16.30    7.10
  -7  -2   5   18.10    6.90
   7  -2  -5   13.70    6.70
  -7   2   4  188.68   28.50
   7   2  -4  181.68   28.30
  -7  -2   4  180.78   28.40
   7  -2  -4  190.78   28.40
  -7   2   3    2.20    6.00
   7   2  -3    3.00    4.80
  -7  -2   3   -2.60    4.70
   7  -2  -3   -0.80    5.90
   7   2  -2  811.42  118.99
  -7   2   2  857.21  119.19
  -7  -2   2  803.62  118.89
   7  -2  -2  872.11  119.19
  -7   2   1    8.50    5.80
   7   2  -1    0.60    4.70
  -7  -2   1   -1.70    5.40
   7  -2  -1    2.70    5.30
  -7   2   0  347.77   48.20
   7   2   0  287.17   47.60
   7  -2   0  308.97   47.80
  -7  -2   0  377.76   48.70
  -7   2  -1   14.90    6.80
   7   2   1    5.80    5.10
   7  -2   1    9.80    5.60
   7   2   2   70.29   12.60
  -7   2  -2   54.09   12.80
   7  -2   2   70.59   13.10
   7   2   3   14.90    6.30
  -7   2  -3   12.80    6.60
  -7  -2  -3   15.50    6.50
   7  -2   3   13.10    6.50
  -7   2  -4   97.09   17.40
   7   2   4  104.29   16.40
   7  -2   4   70.79   15.90
  -7  -2  -4   94.69   16.70
  -7   2  -5   19.30    7.90
   7   2   5    1.60    5.10
   7  -2   5   -2.30    5.60
  -7  -2  -5   -0.20    6.10
  -7   2  -6   77.59   17.30
   7   2   6   92.79   16.40
   7  -2   6   82.09   16.80
  -7   2  -7   11.00    9.90
   7   2   7   -6.90    6.00
  -7  -2  -7  -14.40    7.10
   7  -2   7    4.00    7.30
  -7   2  -8   32.40   11.90
   7   2   8   28.00    9.10
   7  -2   8   33.10   10.80
  -7  -2  -8   15.00   10.20
  -7   2  -9   -2.70    9.80
   7   2   9    1.60    7.50
  -7  -2  -9   -1.50    9.70
   7  -2   9    4.40    9.40
   7   3 -15    6.40   11.80
  -7   3  15   -0.40    7.40
  -7  -3  15    4.70   13.30
   7   3 -14   98.39   18.00
  -7   3  14   46.00   12.10
  -7  -3  14   48.70   13.70
   7  -3 -14   47.80   12.70
   7   3 -13    0.10    7.30
  -7   3  13    0.00    5.90
   7  -3 -13    2.30    7.20
  -7  -3  13    9.40    7.50
   7   3 -12   15.00    8.00
  -7   3  12    8.90    6.90
  -7  -3  12   20.00    8.50
   7  -3 -12    6.50    6.50
   7   3 -11   85.59   15.50
  -7   3  11   80.19   14.10
   7  -3 -11   60.79   14.10
  -7  -3  11   64.09   14.60
  -7   3  10   -0.80    5.50
   7   3 -10    0.40    7.10
   7  -3 -10    8.80    5.50
  -7  -3  10    6.50    6.20
   7   3  -9  198.78   30.90
  -7   3   9  182.38   30.10
   7  -3  -9  184.98   30.20
  -7  -3   9  228.78   30.90
   7   3  -8   -2.10    4.80
  -7   3   8   -6.70    4.30
  -7  -3   8   -5.70    5.20
   7  -3  -8   -1.10    4.50
   7   3  -7   54.99   11.50
  -7   3   7   62.79   11.90
  -7  -3   7   61.09   12.10
   7  -3  -7   51.79   12.20
  -7   3   6  161.08   21.90
   7   3  -6  128.99   22.60
  -7  -3   6  110.39   21.60
   7  -3  -6  140.09   21.90
   7   3  -5  274.17   38.80
  -7   3   5  310.97   38.80
  -7  -3   5  226.38   38.40
   7  -3  -5  235.08   38.30
  -7   3   4   -5.70    4.90
   7   3  -4    1.20    4.30
   7  -3  -4   -3.90    4.20
  -7  -3   4    4.90    5.50
   7   3  -3   39.30    8.20
  -7   3   3   26.60    8.20
   7  -3  -3   26.90    7.30
  -7  -3   3   17.40    6.80
   7   3  -2  167.48   30.30
  -7   3   2  195.38   30.60
  -7  -3   2  216.58   30.50
   7  -3  -2  231.48   30.80
  -7   3   1   15.30    6.50
   7   3  -1    5.10    5.30
   7  -3  -1    0.10    6.10
  -7   3   0   59.19   12.00
   7   3   0   63.09   12.00
   7  -3   0   59.89   11.90
   7   3   1   37.40    8.60
  -7   3  -1   50.29   11.00
  -7  -3  -1   30.70    8.50
   7  -3   1   40.00    9.20
   7   3   2   55.09   10.30
  -7   3  -2   46.40   10.60
  -7  -3  -2   39.60    9.80
   7  -3   2   39.00   10.00
  -7   3  -3   97.39   15.80
   7   3   3   82.79   14.30
  -7  -3  -3   61.29   13.70
   7  -3   3   82.59   14.90
   7   3   4   21.00    6.20
  -7   3  -4    8.70    7.40
   7  -3   4    3.00    6.30
  -7  -3  -4   19.00    7.20
  -7   3  -5   -5.60    6.50
   7   3   5    4.20    5.50
   7  -3   5   -3.10    6.70
  -7  -3  -5   -7.90    6.10
  -7   3  -6   48.70   12.70
   7   3   6   56.09   11.40
   7  -3   6   37.70   12.10
  -7  -3  -6   53.49   12.20
  -7   3  -7   51.19   13.90
   7   3   7   58.09   11.40
   7  -3   7   34.30   11.90
  -7  -3  -7   36.50   12.70
  -7   3  -8   -2.90    9.90
   7   3   8    2.30    6.40
   7  -3   8    1.20    8.20
  -7  -3  -8   -4.60    9.40
   7   3   9   21.70    9.00
  -7   3  -9   26.10   13.10
   7  -3   9   47.60   13.70
  -7  -3  -9   -0.60   10.30
   7   4 -15   -5.50    9.40
  -7   4  15    7.00    7.20
  -7  -4  15   -1.90   10.00
   7   4 -14   35.20   12.70
  -7   4  14   25.10    8.60
  -7  -4  14    7.20    9.20
  -7   4  13   37.10    8.90
   7   4 -13   26.40   10.40
   7  -4 -13    8.80    7.50
  -7  -4  13   13.30    9.10
   7   4 -12   18.00    9.40
  -7   4  12   13.50    7.00
  -7  -4  12   30.60   10.30
   7  -4 -12   11.90    7.00
  -7   4  11   58.39   14.20
   7   4 -11   82.69   16.30
   7  -4 -11   89.19   15.80
  -7  -4  11   95.79   16.60
  -7   4  10   15.60    7.10
   7   4 -10   38.80    9.90
  -7  -4  10   27.40    8.80
   7  -4 -10   18.10    7.60
  -7   4   9   73.49   13.10
   7   4  -9   50.59   13.70
   7  -4  -9   65.49   13.10
  -7   4   8  295.57   41.30
   7   4  -8  301.07   42.10
   7  -4  -8  249.68   41.10
  -7  -4   8  271.47   41.60
   7   4  -7   56.59   13.00
  -7   4   7   76.29   13.30
  -7  -4   7   66.19   13.30
   7  -4  -7   78.29   13.40
   7   4  -6    2.50    4.90
  -7   4   6   -1.00    4.60
   7  -4  -6    5.30    5.40
  -7  -4   6    0.00    4.50
   7   4  -5   -2.30    4.80
  -7   4   5   -1.50    5.00
   7  -4  -5   12.00    5.50
  -7  -4   5    4.70    5.40
  -7   4   4  465.45   60.19
   7   4  -4  371.26   59.89
   7  -4  -4  416.96   59.99
  -7  -4   4  403.16   59.89
   7   4  -3   22.80    7.70
  -7   4   3   60.79   10.20
   7  -4  -3   34.60    8.90
  -7  -4   3   47.90    9.40
  -7   4   2  200.18   29.20
   7   4  -2  171.88   28.50
   7  -4  -2  197.28   29.10
   7   4  -1   24.40    7.40
   7  -4  -1   34.80    8.90
  -7  -4   1   38.40    7.70
  -7   4   0    6.70    7.10
   7   4   0    2.20    4.50
   7  -4   0   -0.60    5.30
   7   4   1   22.10    6.70
  -7   4  -1   18.90    8.90
   7  -4   1   27.20    7.60
  -7  -4  -1   19.70    7.00
   7   4   2  268.47   40.70
  -7   4  -2  268.87   41.60
   7  -4   2  293.97   41.50
  -7  -4  -2  273.77   40.80
  -7   4  -3   -6.90    5.40
   7   4   3    9.40    5.30
   7  -4   3   20.60    7.30
  -7  -4  -3    1.80    5.60
   7   4   4   58.39   11.50
  -7   4  -4   91.49   15.20
   7  -4   4   76.89   13.50
  -7  -4  -4   36.90   10.90
  -7   4  -5    3.40    8.50
   7   4   5    3.50    5.00
   7  -4   5   -4.20    6.70
  -7  -4  -5    1.10    6.40
   7   4   6   -5.50    4.80
  -7   4  -6  -13.30    7.10
  -7  -4  -6   -4.80    6.40
   7  -4   6   -6.60    6.20
  -7   4  -7   -7.80    9.20
   7   4   7    0.60    5.90
  -7  -4  -7   -7.70    7.30
   7  -4   7   -4.00    7.90
   7   4   8    8.60    7.40
  -7   4  -8   18.30   10.80
   7  -4   8   20.30    9.80
  -7  -4  -8   24.30   10.50
  -7   4  -9    9.50   11.20
   7   4   9   -2.50    6.80
   7  -4   9    4.90    9.70
  -7  -4  -9  -17.30    9.60
   7   5 -14   47.90   13.40
  -7   5  14   26.50    8.70
  -7  -5  14   16.20   11.20
   7   5 -13    6.10    7.90
  -7   5  13   16.10    6.90
  -7  -5  13    5.80    8.30
  -7   5  12  101.19   17.80
   7   5 -12   90.39   19.70
   7  -5 -12  106.79   19.00
  -7  -5  12  102.79   19.70
   7   5 -11    1.70    8.20
  -7   5  11    7.50    5.90
   7  -5 -11    2.90    6.10
  -7  -5  11    0.40    7.00
  -7   5  10   19.70    6.30
   7   5 -10    3.50    6.20
   7  -5 -10   11.20    6.20
  -7  -5  10    2.60    6.50
  -7   5   9   48.30    9.90
   7   5  -9   41.90   10.80
   7  -5  -9   37.10    9.20
  -7  -5   9   45.50   11.40
  -7   5   8   -0.60    4.70
   7   5  -8   -6.60    5.20
   7  -5  -8   -0.20    4.80
  -7  -5   8   -3.30    5.30
   7   5  -7   -4.50    4.90
  -7   5   7   -7.60    4.50
  -7  -5   7   -2.60    5.50
   7  -5  -7   -5.60    5.60
   7   5  -6    3.90    5.10
  -7   5   6    0.80    5.00
   7  -5  -6    4.90    4.70
  -7  -5   6   -6.30    4.70
   7   5  -5   47.40   10.00
  -7   5   5   49.60   10.20
  -7  -5   5   33.60    9.90
   7  -5  -5   50.39   10.50
  -7   5   4   81.89   14.10
   7   5  -4   59.29   13.40
  -7  -5   4   73.09   13.80
   7  -5  -4  100.69   15.30
  -7   5   3  265.97   39.50
   7   5  -3  267.27   39.30
   7  -5  -3  261.57   39.50
  -7   5   2   24.00    7.90
   7   5  -2   16.70    6.70
  -7  -5   2   44.20    8.10
   7  -5  -2   31.60    8.20
  -7   5   1   48.40   11.20
   7   5  -1   50.39   10.50
   7  -5  -1   74.19   12.20
  -7  -5   1   43.80   10.30
  -7   5   0   14.50    7.50
   7   5   0   28.50    7.00
  -7  -5   0   15.70    6.30
   7  -5   0   20.40    7.10
  -7   5  -1    2.80    6.10
   7   5   1   -0.90    4.20
   7  -5   1    8.20    5.90
  -7  -5  -1   -1.20    4.80
  -7   5  -2    1.40    5.70
   7   5   2   -0.30    4.30
   7  -5   2   -4.10    5.40
  -7  -5  -2    4.50    4.90
   7   5   3   19.60    5.90
  -7   5  -3    5.50    8.10
   7  -5   3   46.40   10.30
  -7  -5  -3   12.40    6.70
  -7   5  -4   56.39   13.60
   7   5   4   57.29    9.90
   7  -5   4   36.00   11.20
  -7  -5  -4   28.60    9.50
  -7   5  -5    6.40    8.00
   7   5   5    8.70    5.40
   7  -5   5    5.90    7.90
  -7  -5  -5    1.80    6.40
   7   5   6   23.50    7.40
  -7   5  -6   14.00   10.10
   7  -5   6    5.00    9.20
  -7  -5  -6   23.30    9.10
   7   5   7    8.40    6.40
  -7   5  -7   12.10    9.80
  -7  -5  -7    2.60    8.50
   7  -5   7   -6.50    8.00
  -7   5  -8   -7.10    9.90
   7   5   8    2.60   11.80
   7  -5   8   10.40    9.30
  -7  -5  -8    6.40    9.50
  -7  -5  -9   23.40   11.40
  -7   6  14   24.30    7.70
   7   6 -14   14.90   10.30
  -7  -6  14   20.70   10.50
  -7   6  13   -4.30    5.40
   7   6 -13    0.30    7.70
   7  -6 -13   -1.80    6.70
  -7  -6  13   -6.50    8.40
   7   6 -12   23.60   10.90
  -7   6  12   25.30    7.70
   7  -6 -12   18.10    8.10
  -7  -6  12   34.80   10.90
   7   6 -11   20.50    8.90
  -7   6  11   26.30   12.70
   7  -6 -11    9.30    6.80
  -7  -6  11   30.10   10.40
  -7   6  10   46.40   10.90
   7   6 -10   48.80   12.60
  -7  -6  10   62.69   13.00
   7  -6 -10   48.10   11.10
  -7   6   9   -2.20    5.10
   7   6  -9   -9.60    5.40
  -7  -6   9    1.50    6.60
   7  -6  -9    2.10    5.80
   7   6  -8  174.88   31.50
  -7   6   8  229.08   30.40
  -7  -6   8  228.48   31.20
   7  -6  -8  165.58   29.70
   7   6  -7   -3.70    5.50
  -7   6   7    7.60    5.80
  -7  -6   7    8.50    6.30
   7  -6  -7   14.70    6.40
   7   6  -6   -1.30    4.80
  -7   6   6   -3.70    4.60
   7  -6  -6   -1.60    4.30
  -7  -6   6   -5.70    4.80
  -7   6   5   16.20    6.30
   7   6  -5    0.70    6.50
   7  -6  -5    8.30    5.60
  -7  -6   5    9.80    6.20
  -7   6   4  129.29   18.50
   7   6  -4   76.39   16.80
   7  -6  -4  105.09   17.40
   7   6  -3    6.70    5.10
  -7   6   3    0.70    5.50
   7  -6  -3    8.10    5.70
  -7  -6   3    1.90    4.00
   7   6  -2  306.87   44.20
  -7  -6   2  277.27   44.20
   7  -6  -2  321.77   44.80
  -7   6   1   -6.90    5.70
   7   6  -1    2.90    4.30
  -7  -6   1   -2.50    4.60
   7  -6  -1    2.10    6.30
   7   6   0    4.40    5.30
  -7   6   0    7.40    6.70
   7  -6   0    5.70    5.40
  -7  -6   0   -1.60    4.50
   7   6   1   15.20    6.30
  -7   6  -1   28.50    8.70
  -7  -6  -1   20.60    6.60
   7  -6   1   27.90    8.90
  -7   6  -2   56.59   14.00
   7   6   2   56.79   11.30
   7  -6   2   60.49   13.20
  -7  -6  -2   61.29   11.50
  -7   6  -3   28.40   10.90
   7   6   3   25.00    7.40
  -7  -6  -3   37.00    8.20
   7  -6   3   28.10    9.80
   7   6   4   17.80    6.10
  -7   6  -4   20.60    9.40
   7  -6   4   31.10   10.30
  -7  -6  -4   13.80    6.70
   7   6   5    2.00    4.80
  -7   6  -5   18.40    8.90
  -7  -6  -5    0.20    6.30
   7  -6   5   -8.50    7.20
  -7   6  -6  -11.10    9.30
   7   6   6   -2.10    4.80
   7  -6   6    4.30    9.20
  -7  -6  -6   11.90    7.60
  -7   6  -7   10.80   10.60
   7   6   7    3.30    6.10
   7  -6   7   12.30    9.60
   7   6   8   42.10    9.40
  -7   6  -8   44.20   13.60
  -7  -6  -8    7.40    9.50
   7  -6   8   39.80   13.80
  -7   7  13    6.20    6.40
   7   7 -13   10.30    9.40
  -7  -7  13   -1.80    9.10
  -7   7  12   23.50    7.90
   7   7 -12   29.50   11.30
   7  -7 -12   53.99   10.50
  -7  -7  12   18.80   11.00
  -7   7  11    2.10    5.60
   7   7 -11   -0.70    7.40
   7  -7 -11   13.60    7.30
  -7  -7  11   10.80    8.10
   7   7 -10   18.10    8.90
   7  -7 -10   33.90    9.00
  -7  -7  10   29.80   10.00
  -7   7   9   74.69   14.90
   7   7  -9   87.59   17.90
  -7  -7   9   85.69   16.70
   7  -7  -9   92.59   16.00
   7   7  -8   -0.60    6.30
  -7   7   8    6.50    6.00
  -7  -7   8   20.50    7.80
   7  -7  -8    6.40    5.70
  -7   7   7   72.99   12.30
   7   7  -7   38.10   11.50
   7  -7  -7   66.49   12.30
  -7  -7   7   57.79   13.00
   7   7  -6   10.40    6.30
  -7   7   6   15.20    6.50
   7  -7  -6    7.60    5.80
  -7  -7   6   12.00    6.40
   7   7  -5   36.70    9.60
  -7   7   5   48.80   10.40
   7  -7  -5   49.90   10.10
  -7  -7   5   33.00    9.60
  -7   7   4   -5.50    4.70
   7   7  -4   -1.70    4.50
  -7  -7   4    1.90    2.60
   7  -7  -4    1.80    5.60
   7   7  -3    4.80    5.20
  -7   7   3    8.40    6.00
   7  -7  -3    1.60    5.60
  -7   7   2   80.79   14.00
   7   7  -2   49.90   11.90
   7  -7  -2   70.29   13.20
  -7  -7   2   70.69   12.80
   7   7  -1   -0.50    5.00
  -7   7   1    6.10    7.30
   7  -7  -1    5.30    6.40
  -7  -7   1    7.00    5.00
   7   7   0  254.67   36.20
  -7   7   0  266.37   37.60
   7  -7   0  237.38   37.10
  -7  -7   0  219.58   35.80
   7   7   1  100.59   17.40
  -7   7  -1  124.49   20.50
   7  -7   1  115.99   19.50
  -7  -7  -1   89.29   16.70
  -7   7  -2   10.50    8.40
   7   7   2    1.70    4.70
   7  -7   2    1.80    6.50
  -7  -7  -2    5.20    5.40
   7   7   3   -2.90    4.70
  -7   7  -3    8.70    8.20
  -7  -7  -3    5.70    5.20
   7  -7   3    2.30    7.30
  -7   7  -4    4.60    7.80
   7   7   4   -0.10    4.30
  -7  -7  -4   -1.60    5.60
   7  -7   4    1.80    8.90
  -7   7  -5   16.60    9.60
   7   7   5    5.00    5.20
   7  -7   5   27.60   10.30
   7   7   6   29.40    7.70
  -7   7  -6   42.50   13.80
  -7  -7  -6   22.20    8.10
   7  -7   6   38.00   11.60
  -7   7  -7  -13.10   10.40
   7   7   7    9.90    5.90
   7  -7   7   -4.50    9.00
  -7  -7  -7    2.10    6.50
  -7   8  12    0.90    5.30
   7   8 -12    1.90    8.80
  -7  -8  12    4.50    8.70
   7  -8 -12    3.90    7.10
  -7   8  11    7.00    6.20
   7   8 -11   24.80   10.50
   7  -8 -11   19.10    7.20
  -7  -8  11   16.60    9.60
   7   8 -10    4.10    6.60
  -7   8  10    3.90    5.90
   7  -8 -10    2.50    7.20
  -7  -8  10   -4.40    7.20
   7   8  -9    7.80    7.30
  -7   8   9   13.80    7.30
  -7  -8   9   18.00    9.00
   7  -8  -9   27.70    8.10
  -7   8   8   48.50   11.90
   7   8  -8   59.89   14.10
   7  -8  -8   97.59   14.30
  -7  -8   8   66.79   14.20
   7   8  -7    2.00    6.00
  -7   8   7   -2.70    4.90
   7  -8  -7    3.30    5.90
  -7  -8   7   -0.30    6.80
  -7   8   6    7.20    5.90
   7  -8  -6    8.60    5.90
  -7  -8   6    8.70    6.90
  -7   8   5    0.70    5.50
   7   8  -5   -6.90    4.00
   7  -8  -5   -2.20    5.10
   7   8  -4  115.39   22.30
  -7   8   4  157.68   23.30
   7  -8  -4  137.59   22.80
  -7  -8   4  139.59   22.80
  -7   8   3   -0.20    6.00
   7   8  -3   -4.10    4.80
  -7  -8   3    0.70    5.10
   7  -8  -3   -1.70    5.50
  -7   8   2  118.69   18.30
   7   8  -2   78.59   15.90
  -7  -8   2   88.09   16.00
   7  -8  -2  101.59   18.00
  -7   8   1   31.10   10.60
   7   8  -1   37.40    8.50
   7  -8  -1   34.20    9.60
  -7  -8   1   30.30    8.50
  -7   8   0    1.80    7.40
   7   8   0    4.20    5.20
   7  -8   0   -1.10    6.30
  -7  -8   0   10.20    5.60
   7   8   1   -3.40    4.70
  -7   8  -1    1.30    6.50
   7  -8   1   -5.30    6.40
  -7  -8  -1    4.90    5.10
  -7   8  -2   25.50   10.50
   7   8   2   28.70    8.80
   7  -8   2   55.69   12.30
  -7  -8  -2   20.20    6.70
  -7   8  -3   -4.00    8.20
   7   8   3    1.80    4.70
   7  -8   3    0.90    7.80
  -7  -8  -3    5.00    5.10
  -7   8  -4   11.90    8.40
   7   8   4    2.40    4.30
  -7  -8  -4    7.50    5.20
   7  -8   4   -3.30    7.50
   7   8   5   11.60    5.40
  -7   8  -5   15.10   11.20
  -7  -8  -5    8.50    5.50
   7  -8   5   25.00    9.40
  -7   8  -6    5.10   10.50
   7   8   6   -1.20    5.10
  -7  -8  -6   -4.10    5.00
   7  -8   6    7.80    9.50
  -7  -8  -7    7.20    5.50
   7   9 -11   15.90    9.30
  -7   9  11    5.60    5.90
   7  -9 -11   23.90    7.30
  -7   9  10    7.00    5.40
   7   9 -10   -2.60    7.70
   7  -9 -10    2.30    5.80
  -7  -9  10   -7.70    7.30
   7   9  -9   -4.60    6.30
  -7   9   9   -3.00    5.50
  -7  -9   9   -0.90    7.30
   7  -9  -9    0.10    6.20
  -7   9   8   -3.40    5.10
   7   9  -8    7.10    7.30
  -7  -9   8    0.70    6.80
   7  -9  -8   -2.70    6.10
   7   9  -7    8.70    7.30
  -7   9   7   -1.90    6.50
  -7  -9   7   11.10    7.60
   7  -9  -7   12.40    7.00
  -7   9   6   30.90    7.90
   7   9  -6   13.80    7.60
   7  -9  -6   20.30    7.00
   7   9  -5    6.10    5.90
  -7   9   5   -0.90    5.70
  -7  -9   5    2.20    5.20
   7  -9  -5    3.40    5.10
  -7   9   4   51.19   10.60
   7   9  -4   16.60    8.00
   7  -9  -4   46.60   10.30
  -7  -9   4   39.80    9.70
   7   9  -3   15.60    7.10
  -7   9   3   27.90    9.40
  -7  -9   3   46.30    9.50
   7  -9  -3   35.20    9.30
   7   9  -2   -0.60    4.80
  -7   9   2   14.70    7.60
   7  -9  -2   -6.00    6.00
  -7  -9   2    1.50    5.30
   7   9  -1   17.70    6.30
  -7   9   1   12.30    8.10
   7  -9  -1    7.50    8.00
  -7  -9   1   16.00    6.40
  -7   9   0   18.30    9.40
   7   9   0   25.30    6.80
   7  -9   0   22.70    9.00
  -7  -9   0    4.30    5.30
  -7   9  -1   -1.80    7.40
   7   9   1    7.10    5.60
   7  -9   1   -9.80    6.80
  -7  -9  -1   -8.40    4.20
   7   9   2    0.40    4.40
  -7   9  -2   -2.30    7.60
   7  -9   2   -3.10    7.80
  -7   9  -3    2.30    8.40
   7   9   3    0.20    4.60
   7  -9   3   -9.00    7.70
  -7  -9  -3   -1.40    4.10
  -7   9  -4   26.90   10.90
   7   9   4   12.80    5.30
   7  -9   4   26.80   10.70
  -7  -9  -4   12.90    4.80
  -7   9  -5    3.70    9.90
   7   9   5    5.80    4.50
   7  -9   5   -6.70    8.90
  -7  -9  -5   -0.70    3.30
  -7  10  10   43.60    7.70
   7  10 -10   28.10   11.10
  -7 -10  10   21.10    9.80
   7 -10 -10    2.00    5.80
  -7  10   9    3.50    5.70
   7  10  -9    9.10    7.80
   7 -10  -9   -4.70    5.40
  -7 -10   9   -0.20    7.90
  -7  10   8    6.50    5.80
   7  10  -8   -1.30    7.10
  -7 -10   8    6.10    8.00
   7 -10  -8   11.90    6.60
  -7  10   7    2.70    5.80
  -7 -10   7   -2.30    6.70
   7 -10  -7    8.60    6.70
   7  10  -6   23.70    7.80
  -7  10   6   21.80    7.30
   7 -10  -6   23.00    7.50
  -7 -10   6   -0.60    4.40
   7  10  -5   20.40    7.70
  -7  10   5   33.30    8.30
  -7 -10   5    6.70    7.80
  -7  10   4    6.20    7.20
   7  10  -4   21.60    7.60
  -7 -10   4   14.10    7.80
   7 -10  -4   10.10    7.70
   7  10  -3   12.60    6.50
  -7  10   3   15.10    7.80
   7 -10  -3    0.90    7.40
  -7 -10   3    1.50    6.10
   7  10  -2   10.00    6.40
  -7  10   2    9.60   15.80
   7 -10  -2   25.60    8.70
  -7 -10   2    4.10    6.00
   7  10  -1    3.80    5.10
  -7  10   1    3.10   13.70
   7 -10  -1    2.00    7.70
  -7 -10   1    0.70    5.60
   7  10   0    0.00    5.60
  -7  10   0    0.80    8.70
  -7 -10   0    3.80    5.00
   7 -10   0    2.00    7.60
   7  10   1    5.00    5.80
  -7  10  -1    2.50    9.30
   7 -10   1   16.80   10.00
  -7 -10  -1    6.40    6.40
  -7  10  -2   19.30   13.00
   7  10   2   52.69    9.60
   7 -10   2   52.09   13.50
  -7 -10  -2   34.70    8.20
  -7  10  -3   20.70   18.50
   7  10   3   -2.80    4.20
  -7 -10  -3    1.10    3.70
   7 -10   3    1.20    7.70
  -7  10  -4   15.30   19.30
   7  10   4   13.70    5.10
   7 -10   4   10.40   12.00
  -7  11   9    7.60    6.20
   7  11  -9   10.70    8.30
   7  11  -8    3.50    7.40
  -7  11   8    2.00    5.60
  -7 -11   8   -8.00    7.50
   7  11  -7    8.90    7.20
  -7  11   7   12.40    6.20
   7 -11  -7   -3.90    5.60
  -7  11   6    4.70    6.60
   7  11  -6   -0.60    5.90
  -7 -11   6    4.60    6.80
   7 -11  -6   -4.90    6.10
  -7  11   5    1.80    6.10
   7  11  -5    1.50    5.80
  -7 -11   5   -4.70    6.30
   7 -11  -5    9.30    7.30
  -7  11   4    5.00    6.60
   7  11  -4   -4.70    5.20
  -7 -11   4   10.40    6.60
   7  11  -3    6.10    5.70
  -7  11   3   -2.70    7.30
  -7 -11   3    4.50    6.30
  -7  11   2   22.80    9.60
   7  11  -2   14.00    6.90
  -7 -11   2   15.40    6.80
   7 -11  -2   14.60    9.40
   7  11  -1  -12.40    8.40
  -7  11   1   11.00    8.80
   7 -11  -1   11.80    8.40
  -7 -11   1   -2.80    5.00
   7  11   0   64.79   13.20
  -7  11   0   74.39   16.20
  -7 -11   0   56.89   13.40
   7 -11   0   85.49   17.10
   7  11   1   12.30    6.20
  -7  11  -1   10.50    9.70
   7 -11   1   24.30    9.70
  -7 -11  -1   10.30    5.00
   7  11   2   -2.80    4.60
  -7  11  -2   -4.30    8.30
   7 -11   2   -6.40    8.40
  -7  11  -3    5.30    9.90
   7  11   3   -4.40    4.20
   7  12  -6   -1.70    6.40
  -7  12   6   -0.90    5.90
  -7  12   5    7.10    6.80
   7  12  -5    6.10    6.50
   7  12  -4   10.20    7.20
  -7  12   4   19.20    8.40
   7  12  -3   12.50    7.20
  -7  12   3    7.40    8.60
  -7  12   2    5.80    9.40
   7  12  -2   12.70    8.00
  -7  12   1   -9.50    7.90
   7  12  -1    3.70    6.30
  -7  12   0   -1.40    8.60
   7  12   0    8.10    5.90
   8   0 -15  -12.90    8.10
  -8   0  15   -2.00    7.40
  -8   0  14   57.39   18.60
   8   0 -14   61.69   14.50
  -8   0  13    4.30    7.60
   8   0 -13    2.20    7.30
   8   0 -12  307.07   50.89
  -8   0  12  372.96   50.99
  -8   0  11    8.30    6.20
   8   0 -11   -1.20    6.00
   8   0 -10  240.88   38.40
  -8   0  10  261.37   38.30
  -8   0   9    0.60    5.60
  -8   0   8    7.90    5.70
   8   0  -8    1.20    5.10
   8   0  -7   -4.70    4.70
  -8   0   7   -3.70    4.90
  -8   0   6    4.00    5.50
   8   0  -6   12.70    6.50
  -8   0   5   -4.20    5.30
   8   0  -5   -4.60    5.00
   8   0  -4   30.10    9.30
  -8   0   4   48.30   10.20
   8   0  -3   10.40    6.10
  -8   0   3   -2.70    5.50
  -8   0   2  315.97   45.70
   8   0  -2  301.27   45.70
  -8   0   1    3.00    5.70
   8   0  -1   -4.10    4.20
  -8   0   0   59.79   13.60
   8   0   0   98.69   14.90
   8   0   1   -1.20    4.40
  -8   0  -1    4.20    5.80
  -8   0  -2  -10.10    5.40
   8   0   2   -5.10    5.00
   8   0   3   -2.40    4.90
  -8   0  -3    4.00    7.30
   8   0   4    6.30    6.20
  -8   0  -4   12.30    7.50
  -8   0  -5   -5.10    7.30
   8   0   5    4.20    6.00
   8   0   6   52.89   15.30
  -8   0  -6   44.90   12.60
  -8   0  -7    4.40    9.40
   8   0   7   12.70    8.30
   8   0   8   16.00    9.20
   8   0   9    7.70    8.60
   8   1 -15   88.59   21.50
  -8   1  15  124.69   21.80
  -8  -1  15  116.89   21.40
   8  -1 -15  114.79   22.00
  -8   1  14    6.10    7.10
   8   1 -14   -2.10    8.10
  -8  -1  14   -0.10    7.30
   8   1 -13   31.20   11.20
  -8   1  13   43.00   10.80
  -8  -1  13   40.80   11.00
   8  -1 -13   32.10   10.60
  -8   1  12    7.20    6.80
   8   1 -12    9.00    8.00
   8  -1 -12    8.50    7.20
  -8  -1  12    9.50    7.30
   8   1 -11  202.28   31.80
  -8   1  11  223.98   31.70
  -8  -1  11  162.08   31.60
   8  -1 -11  228.48   33.70
   8   1 -10    6.40    6.50
  -8   1  10    7.50    6.10
  -8  -1  10    4.10    6.30
   8  -1 -10    7.00    6.00
  -8   1   9    3.40    5.90
   8   1  -9    5.70    6.40
   8  -1  -9   13.40    6.10
  -8  -1   9    9.50    6.80
  -8   1   8   16.30    7.50
   8   1  -8    5.20    6.80
   8  -1  -8   12.70    6.30
  -8  -1   8   19.30    6.80
   8   1  -7   39.50    9.40
  -8   1   7   40.50    9.70
   8  -1  -7   28.90    9.30
  -8  -1   7   30.20    8.80
  -8   1   6  121.29   20.10
   8   1  -6  113.09   20.00
   8  -1  -6  140.89   20.60
  -8  -1   6   95.49   19.00
  -8   1   5  111.09   16.80
   8   1  -5   78.39   15.60
  -8  -1   5   91.99   16.60
   8  -1  -5   90.69   16.00
   8   1  -4   74.79   16.00
  -8   1   4  114.89   17.20
   8  -1  -4   98.89   16.50
  -8  -1   4  108.19   17.60
   8   1  -3  723.73  102.59
  -8   1   3  696.23  102.49
  -8  -1   3  721.13  102.39
   8  -1  -3  722.23  102.59
  -8   1   2   46.90   11.80
   8   1  -2   52.89   11.20
   8  -1  -2   60.89   12.40
  -8  -1   2   76.89   13.30
  -8   1   1  186.88   29.90
   8   1  -1  185.08   29.90
  -8  -1   1  215.38   30.10
   8  -1  -1  191.78   30.00
   8   1   0   -2.30    5.20
  -8   1   0    1.50    5.60
   8  -1   0    5.70    5.30
  -8  -1   0   13.60    6.30
   8   1   1   57.79   11.90
  -8   1  -1   37.10   10.20
  -8  -1  -1   32.70    9.30
   8  -1   1   42.90    9.50
   8   1   2    7.80    5.30
  -8   1  -2   11.90    6.90
   8  -1   2    7.80    5.80
  -8  -1  -2   17.10    7.40
   8   1   3   17.50    7.60
  -8   1  -3   31.40    9.40
  -8  -1  -3   23.50    8.70
   8  -1   3   30.20    8.10
   8   1   4    4.00    5.40
  -8   1  -4    3.80    7.20
   8  -1   4    8.30    5.80
  -8   1  -5  417.56   56.89
   8   1   5  353.96   55.79
   8  -1   5  371.36   56.19
  -8   1  -6    5.00    8.50
   8   1   6   13.20    7.20
  -8  -1  -6   -1.30    4.30
   8  -1   6    1.20    7.40
  -8   1  -7   77.69   19.10
   8   1   7  118.09   19.30
  -8  -1  -7   71.89   18.00
   8  -1   7  132.39   20.70
   8   1   8    2.40    7.50
  -8   1  -8   -7.40   10.30
  -8  -1  -8    3.10   11.40
   8  -1   8  -12.00    7.40
  -8   1  -9   -6.90   10.60
   8   1   9   -0.30    8.00
  -8  -1  -9   -6.60   10.40
   8  -1   9   25.10   10.80
  -8   2  15   -2.30    7.30
   8   2 -15   10.80   18.20
   8  -2 -15    6.40    8.90
  -8  -2  15    6.80    9.40
   8   2 -14    3.60    8.60
  -8   2  14    6.00    7.60
   8  -2 -14    6.80    7.40
  -8  -2  14    2.80    8.50
  -8   2  13    3.60    6.90
   8   2 -13    3.20    7.30
   8  -2 -13   14.30    8.20
  -8  -2  13    2.60    7.20
   8   2 -12  174.28   32.00
  -8   2  12  196.38   31.80
  -8  -2  12  206.28   32.60
   8  -2 -12  208.18   32.20
  -8   2  11   -4.50    5.60
   8   2 -11    4.30    7.20
  -8  -2  11   16.70    8.00
   8  -2 -11   15.80    7.50
  -8   2  10   37.50    9.60
  -8  -2  10   40.60   10.10
   8  -2 -10   32.30    9.50
   8   2  -9   52.29   12.90
  -8   2   9   78.59   13.80
  -8  -2   9   67.09   14.00
   8  -2  -9   70.89   13.70
  -8   2   8  118.59   18.60
   8   2  -8   76.99   17.60
   8  -2  -8  130.89   19.00
   8   2  -7    4.70    5.40
  -8   2   7    3.10    5.50
   8  -2  -7    6.60    6.40
  -8  -2   7    4.30    6.60
  -8   2   6  117.69   18.30
   8   2  -6   84.89   17.30
  -8  -2   6  106.29   17.60
   8  -2  -6   96.09   17.30
   8   2  -5   -2.70    4.50
  -8   2   5   -2.50    5.10
   8  -2  -5   -7.60    4.30
  -8  -2   5    3.80    5.60
  -8   2   4   57.39   11.00
   8   2  -4   28.70    8.80
   8  -2  -4   56.09   10.10
  -8  -2   4   30.70    9.10
  -8   2   3    3.20    5.90
   8   2  -3   -1.50    5.00
  -8  -2   3   -0.90    4.80
   8  -2  -3   -1.70    4.30
  -8   2   2  119.69   25.30
   8   2  -2  189.38   25.90
   8  -2  -2  181.88   26.00
  -8  -2   2  175.88   25.60
  -8   2   1   66.99   14.70
  -8  -2   1   91.19   15.30
   8  -2  -1   95.89   15.50
  -8   2   0   -2.00    6.00
   8   2   0    0.90    4.40
   8  -2   0   -0.60    5.10
  -8   2  -1    6.30    7.70
   8   2   1    7.70    5.40
   8  -2   1    2.90    5.60
  -8   2  -2   20.60    7.80
   8   2   2   17.30    6.70
   8  -2   2    8.80    6.00
  -8   2  -3   16.30    8.90
   8   2   3   22.90    7.00
  -8  -2  -3    8.20    5.20
   8  -2   3    7.80    7.30
   8   2   4  149.49   26.10
  -8   2  -4  132.19   26.60
  -8  -2  -4  192.28   26.50
   8  -2   4  176.98   27.30
  -8   2  -5   -6.40    8.00
   8   2   5    9.30    5.80
   8  -2   5   -6.80    6.10
   8   2   6   41.70   10.50
  -8   2  -6   46.90   11.90
   8  -2   6   34.10   11.40
  -8  -2  -6   26.60   11.10
   8   2   7   -1.10    6.70
  -8   2  -7   12.50    9.60
  -8  -2  -7   -8.10    8.80
   8  -2   7    1.90    7.80
  -8   2  -8    5.50   10.20
   8   2   8    4.60    7.60
  -8  -2  -8   -2.60    9.20
   8  -2   8    7.50    9.80
  -8   2  -9    0.20   11.10
  -8  -2  -9   -7.70    9.90
  -8   3  15   29.70   10.00
   8   3 -15   24.60   11.10
   8   3 -14  -10.10    8.10
  -8   3  14    7.30    7.70
  -8  -3  14    1.70    7.70
   8  -3 -14   -4.00    6.40
  -8   3  13   37.70   11.10
   8   3 -13   59.49   14.60
   8  -3 -13   57.09   14.30
  -8  -3  13   47.60   12.60
   8   3 -12    9.10    7.50
  -8   3  12    5.80    6.20
   8  -3 -12    4.00    6.50
  -8  -3  12    6.90    7.50
  -8   3  11  265.97   40.30
   8   3 -11  273.67   41.20
  -8  -3  11  230.58   40.60
   8  -3 -11  294.47   40.50
   8   3 -10   10.20    7.20
  -8   3  10   25.60    8.10
   8  -3 -10   23.70    8.20
  -8  -3  10   20.10    7.30
  -8   3   9   68.59   13.80
   8   3  -9   75.49   14.90
  -8  -3   9   68.89   14.50
   8  -3  -9   71.89   14.10
   8   3  -8    4.10    6.10
  -8   3   8    2.60    5.40
  -8  -3   8  -11.90    4.50
   8  -3  -8   -1.00    5.60
   8   3  -7    3.30    5.20
  -8   3   7    4.60    5.60
   8  -3  -7    7.30    5.40
  -8  -3   7    5.30    5.70
  -8   3   6   -6.70    5.20
   8   3  -6   -1.90    5.30
   8  -3  -6    8.70    5.40
  -8  -3   6   -6.00    5.50
   8   3  -5  185.88   29.40
  -8   3   5  204.78   29.70
  -8  -3   5  206.58   29.70
   8  -3  -5  171.98   29.40
   8   3  -4   43.30   11.70
  -8   3   4   80.39   13.00
   8  -3  -4   73.29   12.90
  -8  -3   4   66.29   12.70
  -8   3   3   34.60    8.60
   8   3  -3   36.20    8.80
  -8  -3   3   22.70    7.30
   8  -3  -3   32.20    8.30
   8   3  -2   40.20    9.40
  -8  -3   2   33.20    9.20
   8  -3  -2   48.10    9.60
  -8   3   1  291.27   41.80
   8   3  -1  270.67   41.20
   8  -3  -1  273.17   41.50
   8   3   0    3.10    5.00
  -8   3   0    5.00    7.00
   8  -3   0    5.40    6.20
  -8   3  -1  203.48   30.60
   8   3   1  157.98   28.40
  -8  -3  -1  200.68   28.50
   8  -3   1  189.98   30.10
   8   3   2   10.50    6.30
  -8   3  -2   11.10    7.20
   8  -3   2    7.20    6.40
  -8  -3  -2    8.40    7.20
  -8   3  -3   11.80    7.70
   8   3   3   12.10    6.00
   8  -3   3    4.80    6.10
  -8  -3  -3   -1.90    6.50
  -8   3  -4   -8.90    7.00
   8   3   4   -1.60    4.70
  -8  -3  -4    1.00    6.90
   8  -3   4   -0.40    6.30
  -8   3  -5  146.99   26.70
   8   3   5  172.58   26.50
  -8  -3  -5  151.78   26.30
   8  -3   5  164.08   27.20
   8   3   6   16.90    7.90
  -8   3  -6   29.10   10.50
   8  -3   6   21.10    9.70
  -8  -3  -6   16.20    9.30
   8   3   7   39.40   11.60
  -8   3  -7   62.09   14.90
  -8  -3  -7   53.29   14.00
   8  -3   7   53.29   13.80
   8   3   8    8.60    7.60
  -8   3  -8   -6.20   10.60
  -8  -3  -8    7.10   10.50
   8  -3   8    1.10    8.50
   8   4 -15    2.80    9.30
  -8   4  15    1.30    7.40
  -8  -4  15  -10.10    8.00
   8   4 -14   13.80    9.10
  -8   4  14   10.90    7.90
  -8  -4  14    3.20    8.60
   8   4 -13   20.90   10.70
  -8   4  13   43.70   10.10
   8  -4 -13   53.89   11.80
  -8  -4  13   21.40   10.40
  -8   4  12  113.09   27.10
   8   4 -12  256.77   32.00
  -8  -4  12  158.78   28.20
   8  -4 -12  201.68   29.00
   8   4 -11   21.40    9.40
  -8   4  11   20.90    8.30
  -8  -4  11   13.40    8.90
   8  -4 -11   16.40    7.40
   8   4 -10   75.49   16.00
  -8   4  10   78.09   14.30
   8  -4 -10   82.69   15.40
  -8  -4  10   48.80   13.80
   8   4  -9    7.10    6.50
  -8   4   9   -0.70    5.50
  -8  -4   9    0.30    6.60
   8  -4  -9   -2.20    5.40
   8   4  -8   26.00    8.60
  -8   4   8   22.50    7.70
  -8  -4   8   19.70    7.30
   8  -4  -8   10.20    6.40
   8   4  -7   31.90    8.70
  -8   4   7   17.10    6.90
   8  -4  -7   37.00    8.70
  -8  -4   7   25.80    8.40
   8   4  -6   35.00    9.40
  -8   4   6   47.60   10.00
   8  -4  -6   50.89   10.60
  -8  -4   6   41.70   10.40
  -8   4   5    6.70    5.70
   8   4  -5   13.30    6.00
  -8  -4   5    7.70    6.20
   8   4  -4    8.80    5.90
  -8   4   4    7.10    6.10
   8  -4  -4    3.70    5.20
  -8  -4   4    3.80    5.50
  -8   4   3  124.89   21.30
   8   4  -3  120.09   20.50
  -8  -4   3  126.39   20.70
   8  -4  -3  131.39   21.60
  -8   4   2  174.38   26.80
   8   4  -2  173.68   26.40
   8  -4  -2  156.38   26.90
   8   4  -1   21.70    7.10
  -8   4   1    5.90    7.00
   8  -4  -1   27.80    8.10
   8   4   0    9.20    5.80
  -8   4   0    6.30    6.70
  -8  -4   0    2.20    5.00
   8  -4   0    6.90    5.70
  -8   4  -1    0.40    6.00
   8   4   1    8.10    5.30
   8  -4   1    2.00    5.20
  -8  -4  -1    4.20    5.50
   8   4   2    3.90    5.10
  -8   4  -2   13.00    8.90
  -8  -4  -2    9.00    6.60
   8  -4   2    3.90    6.10
   8   4   3   11.20    6.20
  -8   4  -3    3.20   15.20
   8  -4   3   11.90    7.50
  -8   4  -4   -2.00    7.70
   8   4   4   22.20    6.50
  -8  -4  -4   10.10    7.80
   8  -4   4   13.70    7.90
   8   4   5   -2.80    4.60
  -8   4  -5    3.70    8.50
  -8  -4  -5    1.80    7.40
   8  -4   5    6.70    8.70
  -8   4  -6    7.10    9.50
   8   4   6   23.90    7.80
   8  -4   6   21.50    9.70
  -8  -4  -6   -0.70    8.10
  -8   4  -7    6.40   10.50
   8   4   7   16.10    7.80
   8  -4   7    7.60    9.60
  -8  -4  -7    2.00    8.50
   8   4   8    1.00    6.70
  -8   4  -8   27.60   12.60
  -8  -4  -8   -3.40    9.50
   8  -4   8    5.50   10.30
  -8   5  14   18.00    7.70
   8   5 -14    0.10    9.50
  -8  -5  14   11.10   10.00
   8   5 -13   15.90    9.00
  -8   5  13   -3.90    5.80
  -8  -5  13   -1.10    7.90
   8   5 -12   16.90    9.60
  -8   5  12   12.40    7.20
  -8  -5  12   13.30    8.70
   8   5 -11  135.29   21.10
  -8   5  11   77.59   16.70
   8  -5 -11  108.79   18.40
  -8  -5  11   89.69   18.50
   8   5 -10   86.49   19.90
  -8   5  10  140.89   20.80
  -8  -5  10  111.39   21.60
   8  -5 -10  125.89   20.60
   8   5  -9    7.40    7.50
  -8   5   9   -9.30    4.70
  -8  -5   9    3.50    6.40
   8  -5  -9    6.00    6.10
  -8   5   8   -0.90    5.50
   8   5  -8   -4.90    5.30
   8  -5  -8    1.60    6.00
  -8  -5   8    0.60    5.50
  -8   5   7  100.09   18.00
   8   5  -7  101.99   18.80
   8  -5  -7  119.09   18.80
  -8  -5   7   91.29   18.10
   8   5  -6   15.40    7.00
  -8   5   6   11.70    6.30
   8  -5  -6   13.80    6.20
  -8  -5   6    5.10    6.10
   8   5  -5  100.99   18.40
  -8   5   5  137.89   19.70
  -8  -5   5   81.19   18.00
   8  -5  -5  125.09   19.30
  -8   5   4   15.70    6.70
   8   5  -4    4.40    4.90
   8  -5  -4    8.60    5.80
  -8  -5   4   -0.70    5.10
  -8   5   3   93.79   16.40
   8   5  -3   84.19   15.80
   8  -5  -3   95.99   16.80
   8   5  -2   -5.00    4.70
  -8   5   2    8.10    7.10
  -8  -5   2   -1.90    3.50
   8   5  -1   77.69   13.20
   8  -5  -1   55.49   12.90
  -8   5   0   -9.90    6.20
   8   5   0   -2.90    4.60
  -8  -5   0    2.90    5.40
   8  -5   0    7.30    5.70
   8   5   1    6.60    5.40
  -8   5  -1   -3.20    6.60
   8  -5   1    0.30    4.90
  -8  -5  -1   -3.30    4.80
   8   5   2    8.20    5.60
  -8   5  -2   -0.40    7.20
  -8  -5  -2    7.50    5.70
   8  -5   2    4.40    6.10
  -8   5  -3   62.59   13.60
   8   5   3   33.40    9.10
  -8  -5  -3   44.10   10.40
   8  -5   3   47.70   12.40
  -8   5  -4    2.00    7.50
   8   5   4   -3.60    5.00
  -8  -5  -4    0.40    7.20
   8  -5   4   -7.20    6.90
  -8   5  -5  202.18   26.30
   8   5   5  131.79   20.20
  -8  -5  -5   72.39   19.30
   8  -5   5  137.59   22.20
  -8   5  -6   38.60   12.40
   8   5   6   32.50    9.10
   8  -5   6   49.00   13.50
  -8  -5  -6   10.70    9.40
   8   5   7   60.69   13.60
  -8   5  -7   90.79   18.60
   8  -5   7   58.49   16.70
  -8   5  -8   -3.20   11.60
  -8  -5  -8    8.50   10.50
   8   6 -14   11.90    9.90
  -8   6  14   -2.80    6.30
  -8  -6  14   12.70    9.70
   8   6 -13   11.20    9.30
  -8   6  13    2.80    6.50
  -8  -6  13   -8.00    7.70
   8   6 -12   47.40   11.60
  -8   6  12   57.89   10.00
   8  -6 -12    9.20    7.60
  -8  -6  12   39.60   11.60
   8   6 -11    7.20    8.10
  -8   6  11   13.40    6.70
   8  -6 -11    8.00    6.90
  -8  -6  11   23.60   10.10
   8   6 -10  130.79   26.90
  -8   6  10  155.88   25.80
   8  -6 -10  181.08   26.60
  -8   6   9   53.39   13.20
   8   6  -9   77.59   16.10
   8  -6  -9   75.69   14.10
  -8  -6   9   79.29   15.20
   8   6  -8   20.00    7.80
  -8   6   8   12.70    6.80
   8  -6  -8   30.30    8.00
  -8  -6   8   12.00    8.20
   8   6  -7    1.30    5.60
  -8   6   7    2.90    5.30
  -8  -6   7    2.30    5.80
   8  -6  -7    5.00    5.60
   8   6  -6   27.30    8.80
  -8   6   6   28.10    8.30
  -8  -6   6   26.30    8.10
   8  -6  -6   23.30    8.30
  -8   6   5   30.60    7.90
   8   6  -5    8.20    7.20
   8  -6  -5   24.00    7.30
  -8  -6   5    2.40    6.00
  -8   6   4    7.90    6.60
   8   6  -4   16.00    6.40
   8  -6  -4   20.80    7.20
  -8   6   3  118.79   20.70
   8   6  -3  124.09   20.30
   8  -6  -3  112.39   20.10
   8   6  -2   56.59   12.80
  -8   6   2   81.29   14.40
  -8  -6   2   66.79   13.90
   8  -6  -2   74.09   13.70
   8   6  -1   85.29   18.40
  -8   6   1  136.89   20.80
  -8  -6   1  124.99   19.40
   8  -6  -1  117.09   19.70
  -8   6   0   33.50    9.30
   8   6   0   30.00    7.50
  -8  -6   0   18.40    7.30
   8  -6   0   18.30    7.40
  -8   6  -1    8.80    8.10
   8   6   1    1.50    5.20
  -8  -6  -1   16.80    6.40
   8  -6   1    8.30    6.50
  -8   6  -2    4.20    7.30
   8   6   2   -0.20    5.30
  -8  -6  -2    3.90    6.10
   8  -6   2    6.50    6.60
  -8   6  -3   67.39   14.10
   8   6   3   75.49   12.20
   8  -6   3   58.69   14.20
  -8  -6  -3   35.50   10.70
  -8   6  -4   21.30    9.80
   8   6   4   10.20    5.80
  -8  -6  -4   14.00    7.20
   8  -6   4   -2.70    8.00
   8   6   5    0.70    5.10
  -8   6  -5  -15.70    9.10
  -8  -6  -5   13.50    7.80
   8  -6   5   -0.20    8.30
  -8   6  -6    8.40   10.20
   8   6   6    6.60    6.10
  -8  -6  -6    3.60    7.70
   8  -6   6    5.70    9.80
   8   6   7    1.70    6.20
  -8   6  -7    5.00   11.00
   8  -6   7   -2.80    9.80
   8   7 -13   25.70   11.30
  -8   7  13    4.10    6.20
  -8  -7  13    4.40   10.10
   8   7 -12  -13.20    8.50
  -8   7  12    2.50    5.60
  -8  -7  12   31.50   10.90
   8  -7 -12    2.80    8.20
   8   7 -11   38.40   12.10
  -8   7  11   48.20   10.80
  -8  -7  11   33.60   12.60
   8  -7 -11   66.99   12.30
   8   7 -10    0.70    6.90
  -8   7  10    9.90    6.50
   8  -7 -10    6.20    6.10
  -8  -7  10   -0.20    7.20
  -8   7   9   65.69   12.20
   8   7  -9   84.59   15.40
  -8  -7   9   34.80   11.70
   8  -7  -9   47.70   11.70
  -8   7   8   -5.90    5.20
   8   7  -8   -5.20    5.40
  -8  -7   8  -11.20    5.90
   8  -7  -8    4.70    5.90
  -8   7   7    5.40    5.90
   8   7  -7   16.00    7.00
   8  -7  -7    5.20    5.70
  -8  -7   7   -5.10    6.00
  -8   7   6   12.10    6.40
   8   7  -6    8.60    6.90
   8  -7  -6    7.30    6.70
  -8  -7   6    7.40    6.20
  -8   7   5   46.60   10.60
   8   7  -5   31.90    9.60
   8  -7  -5   50.19   10.80
  -8  -7   5   47.60   10.70
   8   7  -4    0.60    5.20
  -8   7   4    3.10    6.20
  -8  -7   4   -0.80    2.70
   8  -7  -4   -3.90    5.90
   8   7  -3    6.00    5.10
  -8   7   3    2.30    6.50
   8  -7  -3   10.30    7.10
  -8   7   2   29.50    9.60
   8   7  -2   21.20    7.20
   8  -7  -2   31.80    8.80
  -8  -7   2   10.40    6.40
  -8   7   1   84.99   15.30
   8   7  -1   67.79   13.10
  -8  -7   1   82.29   13.70
   8  -7  -1   51.49   13.30
  -8   7   0   -6.20    6.70
   8   7   0   -3.90    5.00
  -8  -7   0    4.60    6.00
   8  -7   0   -2.40    6.90
   8   7   1   97.89   16.80
  -8   7  -1  103.49   18.50
   8  -7   1   80.89   17.80
  -8  -7  -1   95.69   16.70
   8   7   2   18.10    6.80
  -8   7  -2   29.90   10.20
  -8  -7  -2    7.30    6.40
   8  -7   2   23.50    9.20
  -8   7  -3    1.70    8.10
   8   7   3    6.00    5.30
   8  -7   3   -5.30    8.00
  -8  -7  -3    0.80    6.10
  -8   7  -4    3.40    9.30
   8   7   4    3.60    5.20
  -8  -7  -4    8.40    6.60
   8  -7   4    7.30    9.00
   8   7   5   15.80    6.60
  -8   7  -5   24.40   11.80
   8  -7   5   16.70   10.70
   8   7   6   18.40    7.30
  -8   7  -6   28.30   14.00
  -8  -7  -6   14.30    8.10
   8  -7   6   25.60   11.40
  -8  -7  -7    1.50    7.60
  -8   8  12   34.20    9.20
  -8  -8  12   31.90   12.80
  -8   8  11    9.00    6.50
   8   8 -11    5.20    8.40
   8  -8 -11    8.90    7.30
  -8  -8  11    9.70    8.80
  -8   8  10   -5.10    5.20
   8   8 -10    0.30    6.70
  -8  -8  10    0.60    7.80
   8  -8 -10    0.10    6.50
  -8   8   9    5.10    6.40
   8   8  -9   11.70    7.90
  -8  -8   9   12.60    8.10
   8   8  -8   16.90    8.60
  -8  -8   8   16.20    8.90
   8  -8  -8   34.10    8.60
  -8   8   7  -10.70    4.70
   8   8  -7   -7.30    4.80
   8  -8  -7    1.40    5.60
  -8  -8   7    2.10    6.60
  -8   8   6   18.00    7.70
   8   8  -6   24.90    9.10
   8  -8  -6   35.40    8.90
  -8  -8   6   23.40    9.00
  -8   8   5    4.10    6.50
   8   8  -5   -7.70    4.50
   8  -8  -5    0.60    6.30
  -8   8   4   49.30   12.00
   8   8  -4   39.80   10.60
  -8  -8   4   52.39   11.60
   8  -8  -4   64.89   12.60
  -8   8   3   26.00    9.00
   8   8  -3   16.80    6.80
  -8  -8   3   11.00    6.60
   8  -8  -3   20.30    7.60
   8   8  -2    7.60    5.40
  -8   8   2   -1.10    6.50
   8  -8  -2    3.60    6.90
  -8  -8   2    9.30    6.20
  -8   8   1   41.30   10.50
   8   8  -1   27.20    8.40
   8  -8  -1   30.40    9.70
  -8  -8   1   30.20    8.50
   8   8   0   14.70    6.60
  -8   8   0   17.10    9.40
   8  -8   0   19.00    8.30
  -8  -8   0    6.20    6.20
   8   8   1   10.90    6.10
  -8   8  -1   15.70    8.90
   8  -8   1   12.00    7.90
  -8  -8  -1   -1.80    6.10
  -8   8  -2  -12.70    7.60
   8  -8   2   -6.40    7.00
  -8  -8  -2    6.10    5.90
  -8   8  -3   21.10   10.80
   8   8   3   28.50    7.30
   8  -8   3   19.90   10.90
  -8  -8  -3   14.30    7.10
  -8   8  -4   30.50   12.10
   8   8   4   24.90    7.50
   8  -8   4   16.70   11.00
  -8  -8  -4   18.00    7.20
  -8   8  -5   -5.40   10.60
   8   8   5   11.60    5.60
  -8  -8  -5    1.90    6.00
   8  -8   5   15.60   11.20
  -8  -8  -6   -1.50    6.10
  -8   9  11   60.59   11.90
   8   9 -11   56.39   15.40
  -8  -9  11   55.29   14.90
   8   9 -10   22.00    9.90
  -8   9  10   31.40    8.30
   8  -9 -10   28.30    9.10
  -8  -9  10   15.90   10.30
  -8   9   9    2.00    6.00
   8   9  -9   -1.70    6.30
   8  -9  -9   -8.90    5.90
  -8  -9   9   -0.80    7.50
   8   9  -8    4.70    7.20
  -8   9   8    1.60    5.40
   8  -9  -8   -1.50    6.50
  -8  -9   8   -9.00    6.60
   8   9  -7    0.30    6.30
  -8   9   7   12.20    6.80
  -8  -9   7    2.60    7.40
   8   9  -6   -8.50    5.40
  -8   9   6   10.20    6.90
   8  -9  -6   -1.90    5.60
   8   9  -5    7.70    6.30
  -8   9   5   17.00    7.80
   8  -9  -5    7.40    6.40
  -8  -9   5   20.00    7.60
   8   9  -4   14.10    6.50
  -8   9   4   -2.20    6.00
  -8  -9   4    5.70    6.60
   8  -9  -4    8.50    6.70
  -8   9   3   -6.70    6.10
   8   9  -3    5.00    5.40
  -8  -9   3   -1.10    6.00
   8  -9  -3  -10.00    6.60
   8   9  -2   34.20    9.40
  -8   9   2   63.99   13.00
  -8  -9   2   34.80    9.60
   8  -9  -2   34.60   10.60
  -8   9   1    1.90    7.60
   8   9  -1    4.90    6.10
  -8  -9   1    0.00    5.30
   8  -9  -1    0.50    7.10
  -8   9   0   -3.90    8.20
   8   9   0   -2.10    5.90
  -8  -9   0    2.60    5.70
   8  -9   0   -5.80    6.70
  -8   9  -1   26.90   10.70
   8   9   1   24.00    7.90
   8  -9   1   43.00   12.00
  -8  -9  -1   14.50    6.80
   8   9   2    6.80    6.00
  -8   9  -2   17.00    9.60
   8  -9   2   10.60    9.30
  -8   9  -3   -6.90    9.70
   8   9   3    3.70    5.10
  -8  -9  -3    0.30    5.10
   8  -9   3   -1.10    8.50
  -8   9  -4    6.00   10.50
   8   9   4   -1.50    4.50
  -8  -9  -4   -0.70    4.90
   8  -9   4    1.10   10.20
  -8  -9  -5   16.80    5.80
   8  10 -10   44.10   12.60
  -8  10  10   38.60   10.20
  -8 -10  10   50.69   14.00
   8  10  -9    9.70    8.20
  -8  10   9   17.50    8.10
  -8 -10   9   35.60   12.30
   8  10  -8    3.70    7.00
  -8  10   8   13.90    7.00
   8 -10  -8    9.50    7.00
  -8 -10   8    7.90    9.00
   8  10  -7   -7.10    5.60
  -8  10   7   -1.70    5.60
   8 -10  -7   -0.90    5.70
  -8 -10   7  -14.30    6.50
  -8  10   6    5.80    6.60
   8  10  -6    5.10    6.30
  -8 -10   6    2.30    4.80
  -8  10   5   -2.00    6.80
   8  10  -5    2.70    5.30
  -8 -10   5    1.60    6.80
   8  10  -4    1.50    6.10
  -8  10   4   10.70    7.80
   8 -10  -4   14.40    8.00
  -8 -10   4    6.40    7.40
  -8  10   3   54.59   13.10
   8  10  -3   42.00   11.10
  -8 -10   3   62.99   12.10
   8 -10  -3   44.60   13.10
   8  10  -2    3.90    5.80
  -8  10   2   16.60    9.80
   8 -10  -2    6.20   12.00
  -8 -10   2   22.20    7.50
  -8  10   1    9.40    8.20
   8  10  -1   11.70    6.60
  -8 -10   1   11.50    6.30
   8  10   0    3.90    5.80
  -8  10   0    2.30    9.10
  -8 -10   0    0.70    5.20
  -8  10  -1    0.80    8.80
   8  10   1    2.60    5.30
  -8 -10  -1    0.80    5.30
  -8  10  -2   33.10   12.30
   8  10   2   30.80    8.50
  -8 -10  -2   17.50    6.60
   8 -10   2   23.10   17.30
   8  10   3   25.30    7.90
  -8  10  -3   37.90   13.40
  -8 -10  -3   23.70    6.60
   8 -10   3   33.30   12.50
  -8  11   8   -3.00    5.90
   8  11  -8    1.10    7.00
  -8 -11   8   -3.50    8.40
  -8  11   7   -0.40    6.40
   8  11  -7   16.10    8.20
  -8  11   6   -3.40    6.40
   8  11  -6   -6.20    6.00
  -8  11   5    0.90    6.40
   8  11  -5   -4.30    5.50
  -8 -11   5   -5.10    6.80
   8  11  -4   -4.30    5.70
  -8  11   4    1.40    6.90
  -8 -11   4    8.20    7.10
  -8  11   3   12.70    8.20
   8  11  -3   -2.00    5.50
   8 -11  -3    2.80    9.00
  -8 -11   3   -5.30    6.00
  -8  11   2   -1.50    8.20
   8  11  -2    1.50    5.70
   8 -11  -2    2.00    8.30
  -8 -11   2   -1.10    6.10
   8  11  -1   -0.80    5.60
  -8  11   1    0.90    7.80
   8 -11  -1   -8.90    8.40
  -8 -11   1   -6.60    5.30
   8  11   0   -4.30    6.20
  -8  11   0    4.30    9.60
  -8 -11   0   -0.50    5.60
   8 -11   0   -5.60    9.20
  -8  11  -1   19.10   11.80
   8  11   1   16.20    6.90
  -8 -11  -1   10.40    5.80
   8 -11   1    7.70   10.60
   8  12  -5   -1.60    6.10
  -8 -12   5   -7.80    6.90
   8  12  -4   -0.40    6.20
  -8 -12   4    2.00    7.20
  -8  12   3    7.70    9.30
   8  12  -3    4.30    6.30
  -8 -12   3   -6.30    5.90
  -8 -12   2   -1.20    5.80
  -9   0  15    2.90    8.20
   9   0 -15   14.60    9.10
  -9   0  14  177.78   33.00
   9   0 -14  168.58   29.80
   9   0 -13    2.90    7.50
  -9   0  13    2.90    7.00
  -9   0  12   13.80    7.60
   9   0 -12    2.60    7.20
  -9   0  11   -5.60    5.90
   9   0 -11   11.30    7.30
   9   0 -10   11.10    7.70
  -9   0  10    5.30    6.50
   9   0  -9   -7.60    5.30
  -9   0   9   -2.10    5.70
   9   0  -8    6.00    6.20
  -9   0   8   14.60    7.20
   9   0  -7   12.90    6.50
  -9   0   7   -2.00    5.20
   9   0  -6   16.10    6.60
  -9   0   6    5.50    6.10
  -9   0   5    0.90    6.40
   9   0  -5  -10.30    4.80
   9   0  -4  204.18   30.50
  -9   0   4  190.98   30.40
  -9   0   3    4.30    6.40
   9   0  -3   -4.90    5.60
  -9   0   2  386.56   56.69
   9   0  -2  385.06   56.69
   9   0  -1   -7.80    4.10
  -9   0   1   -2.00    6.00
   9   0   0  134.79   21.00
  -9   0   0  110.99   20.60
  -9   0  -1   -0.10    6.10
   9   0   1    3.90    5.70
   9   0   2  199.38   31.70
  -9   0  -2  210.38   33.10
   9   0   3   -4.00    5.00
  -9   0  -3    9.80    8.10
   9   0   4   61.89   14.00
  -9   0  -4   72.09   15.90
   9   0   5   -5.20    6.20
  -9   0  -6   13.00   10.00
   9   0   6    2.90    7.40
  -9   0  -7   -3.80    9.30
   9   0   7    6.30   14.30
   9   0   8  109.99   22.50
  -9   1  15   25.10   10.30
   9   1 -15   19.60   10.60
   9  -1 -15   26.40   11.30
  -9  -1  15   37.70   11.60
  -9   1  14    4.80    8.50
   9   1 -14    8.10    8.40
  -9  -1  14   22.40    9.30
  -9   1  13   53.79   13.40
   9   1 -13   67.69   15.00
   9  -1 -13   86.79   15.90
  -9  -1  13   67.29   15.10
   9   1 -12    9.00    8.30
  -9   1  12   19.10    8.60
  -9  -1  12   11.60    8.20
   9  -1 -12   11.30    8.90
  -9   1  11   92.99   17.70
   9   1 -11  105.99   19.10
  -9  -1  11   96.79   18.40
   9  -1 -11   84.09   17.50
   9   1 -10   88.69   15.30
  -9   1  10   66.99   13.90
  -9  -1  10   48.20   13.40
   9  -1 -10   90.69   15.30
  -9   1   9   48.90   11.10
   9   1  -9   42.60   11.40
   9  -1  -9   44.80   10.50
  -9  -1   9   39.50   10.40
  -9   1   8    6.90    5.80
   9   1  -8   -8.50    4.50
  -9  -1   8    3.90    5.90
  -9   1   7   -0.60    6.30
   9   1  -7   -3.70    4.80
  -9  -1   7   -1.70    6.00
   9  -1  -7    7.80    6.50
  -9   1   6   42.70    9.40
   9   1  -6   31.60    8.60
  -9  -1   6   29.30    8.80
   9  -1  -6   36.30    9.00
   9   1  -5   30.60    8.40
  -9  -1   5   41.40    9.70
   9  -1  -5   19.40    7.90
  -9   1   4   16.60    8.10
   9   1  -4   36.80    8.60
  -9  -1   4   26.80    8.10
   9  -1  -4   45.20    9.50
   9   1  -3   81.59   14.00
  -9   1   3   72.39   13.40
   9  -1  -3   55.19   13.00
  -9  -1   3   67.09   12.90
  -9   1   2   -2.00    5.50
   9   1  -2   18.50    6.60
  -9  -1   2   17.00    6.70
   9  -1  -2    9.20    6.00
  -9   1   1    8.80    6.70
   9   1  -1    9.60    6.30
  -9  -1   1   11.80    7.00
   9  -1  -1   27.70    7.50
  -9   1   0   30.70    9.00
   9   1   0   12.60    7.20
  -9  -1   0   10.90    6.80
   9  -1   0   18.90    7.10
  -9   1  -1  197.58   31.60
   9   1   1  197.08   31.10
   9  -1   1  210.78   31.50
   9   1   2   78.99   14.90
  -9   1  -2   80.29   16.70
  -9  -1  -2   75.79   15.10
   9  -1   2   67.29   14.60
  -9   1  -3   12.10    8.90
  -9  -1  -3   43.30   10.50
   9  -1   3   27.90    8.80
   9   1   4    5.50    6.10
  -9   1  -4   -2.50    7.40
   9  -1   4    6.00    6.00
  -9  -1  -4    5.80    8.70
   9   1   5   88.19   15.50
  -9   1  -5   58.39   14.80
   9  -1   5   55.09   13.90
  -9   1  -6   -1.80    9.50
   9   1   6   -5.30    6.80
  -9  -1  -6   -1.60    8.60
   9  -1   6   -4.30    7.20
  -9   1  -7    1.60   10.20
   9   1   7    2.40    8.20
  -9  -1  -7   13.50    9.20
   9  -1   7    8.00   10.00
   9   1   8  -10.10    7.20
  -9   1  -8   -2.70   10.40
   9  -1   8   -5.60    8.20
  -9   2  15   -0.10    8.30
  -9  -2  15   13.50    9.90
   9  -2 -15   19.10   10.00
  -9   2  14    8.80    8.20
   9   2 -14   20.70   10.70
   9  -2 -14   10.80    8.80
  -9  -2  14   22.10   10.30
  -9   2  13   24.90    9.90
   9   2 -13   25.00   11.40
   9  -2 -13   19.10    9.40
  -9  -2  13   20.10    9.90
   9   2 -12   33.60   10.60
  -9   2  12   33.20    9.70
  -9  -2  12   33.20   10.30
   9  -2 -12   36.70   11.10
   9   2 -11    7.30    6.90
  -9   2  11   -0.60    6.40
  -9  -2  11    8.10    6.60
   9  -2 -11    1.00    6.60
  -9   2  10   66.09   15.00
   9   2 -10   83.19   18.90
  -9  -2  10   85.19   16.30
   9  -2 -10   80.59   15.80
  -9   2   9    4.10    5.70
   9   2  -9   -6.30    5.60
  -9  -2   9    3.60    6.20
   9  -2  -9   -4.00    5.40
   9   2  -8   38.60    9.80
  -9   2   8   49.70   10.90
   9  -2  -8   28.70    9.70
  -9  -2   8   47.60   11.10
   9   2  -7  139.39   21.60
  -9   2   7  109.79   20.50
  -9  -2   7  123.09   21.00
  -9   2   6   67.69   15.30
   9   2  -6   99.79   16.30
   9  -2  -6   87.59   15.60
  -9  -2   6   97.99   16.80
  -9   2   5   17.80    7.10
   9   2  -5    0.80    6.00
  -9  -2   5    8.90    6.10
   9  -2  -5   17.90    7.30
  -9   2   4  139.79   22.50
   9   2  -4  153.58   22.90
   9  -2  -4  163.78   23.30
  -9  -2   4  100.19   21.40
  -9   2   3   -0.30    6.70
   9   2  -3   11.00    6.00
   9  -2  -3    3.00    5.00
  -9  -2   3    4.50    6.00
   9   2  -2  119.59   20.20
   9  -2  -2  115.99   19.50
  -9  -2   2  102.69   19.20
   9   2  -1   28.80    8.30
  -9   2   1   23.00    7.90
  -9  -2   1   20.30    7.20
   9  -2  -1   24.10    7.60
  -9   2   0   13.30    7.20
   9   2   0    9.00    6.10
   9  -2   0   17.00    7.70
  -9  -2   0    5.00    6.00
  -9   2  -1   16.00    8.10
   9   2   1   -3.60    5.30
  -9  -2  -1   10.00    6.70
   9  -2   1   11.50    6.90
  -9   2  -2  351.26   51.29
   9   2   2  344.87   50.49
   9  -2   2  326.27   50.69
  -9   2  -3   14.60    8.40
   9   2   3   22.90    7.20
   9  -2   3   24.30    8.40
  -9  -2  -3   -0.20    3.60
  -9   2  -4  178.08   31.40
   9   2   4  190.58   30.00
   9  -2   4  232.48   33.50
  -9  -2  -4  177.58   31.00
  -9   2  -5    0.20    8.60
   9   2   5    3.70    6.10
   9  -2   5   12.50    8.30
  -9  -2  -5    4.10    8.30
  -9   2  -6    0.30    9.70
   9   2   6   22.90    8.80
  -9  -2  -6   25.90   11.20
   9  -2   6    4.30    8.50
  -9   2  -7   -0.10   11.20
   9   2   7   17.50    9.20
   9  -2   7    2.50    9.70
  -9  -2  -7   -7.40    9.80
   9   2   8   75.19   15.60
  -9   2  -8   40.70   15.60
   9  -2   8   69.79   16.50
  -9  -2  -8   57.49   16.70
   9   3 -15   49.50   15.00
  -9   3  15   30.10   11.30
  -9  -3  15   52.99   14.10
  -9   3  14    0.50    7.20
   9   3 -14   -6.30    8.90
  -9  -3  14   -8.60    7.50
   9  -3 -14    8.50    8.30
   9   3 -13   79.69   18.80
  -9   3  13   86.39   17.90
  -9  -3  13  121.09   20.40
  -9   3  12   61.59   13.40
   9   3 -12   70.59   15.00
  -9  -3  12   41.50   13.10
   9  -3 -12   65.79   14.00
  -9   3  11   65.89   12.80
   9   3 -11   40.70   11.90
   9  -3 -11   51.89   12.30
  -9  -3  11   59.59   13.50
  -9   3  10   -6.30    5.90
   9   3 -10   -1.30    5.80
  -9  -3  10    4.00    6.90
   9  -3 -10    8.00    6.80
  -9   3   9   11.40    7.10
   9   3  -9    8.70    6.80
  -9  -3   9   12.90    7.90
   9  -3  -9   17.60    7.70
  -9   3   8    4.80    6.40
   9   3  -8    8.70    7.10
  -9  -3   8   -3.80    6.10
   9  -3  -8    3.60    5.70
   9   3  -7   -0.10    5.70
  -9   3   7    6.90    6.60
   9  -3  -7   -4.60    4.80
  -9  -3   7   -0.30    6.10
   9   3  -6    7.50    5.80
  -9   3   6   11.80    7.00
   9  -3  -6   15.20    6.70
  -9  -3   6   16.60    6.80
   9   3  -5   23.90    7.90
  -9   3   5   24.70    9.50
   9  -3  -5   28.50    8.30
  -9  -3   5   41.70    8.90
   9   3  -4  116.89   20.70
  -9   3   4  151.18   22.50
  -9  -3   4  109.09   20.60
   9  -3  -4  143.29   21.70
   9   3  -3   77.29   17.10
  -9   3   3  124.29   18.60
   9  -3  -3  129.19   19.70
  -9  -3   3  101.89   18.20
  -9   3   2    7.40    7.30
  -9  -3   2   13.50    6.30
   9  -3  -2    4.10    5.80
  -9   3   1    2.60   11.70
   9   3  -1   -0.70    5.10
  -9  -3   1    2.60    5.30
   9  -3  -1    3.70    6.30
   9   3   0   -5.70    4.90
  -9   3   0    6.50    7.50
   9  -3   0   -7.60    5.40
  -9   3  -1   81.09   15.60
   9   3   1   70.89   14.70
   9  -3   1   75.79   14.80
   9   3   2    0.20    5.10
  -9   3  -2   -3.40    7.20
   9  -3   2   -1.30    5.90
  -9  -3  -2    2.60    6.20
  -9   3  -3   -8.40    7.10
   9   3   3   10.20    6.30
  -9  -3  -3  -10.40    6.30
   9  -3   3    3.80    6.40
   9   3   4    0.90    5.80
  -9   3  -4  -17.70    7.10
   9  -3   4    8.90    7.70
  -9  -3  -4  -10.60    7.30
  -9   3  -5   10.50    9.80
   9   3   5   13.20    6.70
  -9  -3  -5   10.50    9.00
   9  -3   5    5.60    7.60
  -9   3  -6   23.20   11.60
   9   3   6   28.60    9.70
  -9  -3  -6   31.50   11.40
   9  -3   6   24.50   10.80
  -9   3  -7    5.90   11.80
   9   3   7    1.00    7.30
   9  -3   7    7.80   10.20
  -9  -3  -7   -4.30    9.50
  -9   4  15    0.40    7.10
   9   4 -15    5.80    9.60
  -9  -4  15   -9.30    7.90
   9   4 -14   82.59   18.70
  -9   4  14   84.39   16.90
  -9  -4  14   99.69   19.60
   9   4 -13    6.80    8.20
  -9   4  13    8.50    7.40
  -9  -4  13   11.10    8.70
   9  -4 -13   28.50    9.60
   9   4 -12    6.50    8.00
  -9  -4  12    5.70    8.60
   9  -4 -12   -2.30    7.60
  -9   4  11   64.99   14.60
   9   4 -11   73.29   15.70
   9  -4 -11   84.49   15.80
  -9  -4  11   65.19   15.20
   9   4 -10    2.20    7.40
  -9   4  10    3.40    6.10
  -9  -4  10   -0.30    6.90
   9  -4 -10   11.70    7.60
   9   4  -9   -2.90    5.80
  -9   4   9    9.90    7.40
   9  -4  -9    3.30    6.20
  -9   4   8   24.10    8.00
   9   4  -8    6.00    6.30
   9  -4  -8    2.50    6.00
  -9  -4   8   16.50    7.60
   9   4  -7   -6.70    5.10
  -9   4   7    2.40    5.80
   9  -4  -7   -2.20    5.50
  -9  -4   7   -5.70    5.20
   9   4  -6   65.39   12.70
  -9   4   6   52.49   11.80
   9  -4  -6   49.10   11.40
  -9  -4   6   44.20   11.50
   9   4  -5    1.30    5.50
  -9   4   5    2.90    6.10
   9  -4  -5    0.50    5.60
  -9  -4   5   -0.90    5.40
   9   4  -4  125.99   23.80
  -9   4   4  135.19   24.50
   9  -4  -4  209.68   29.40
  -9  -4   4  164.48   25.00
   9   4  -3   18.20    8.40
  -9   4   3   24.40    8.50
  -9  -4   3   34.20    8.30
   9  -4  -3   33.80    8.80
   9   4  -2  183.28   30.40
  -9   4   2  219.68   32.70
   9  -4  -2  198.98   32.10
  -9   4   1   65.49   12.30
   9   4  -1   39.10   10.40
   9  -4  -1   46.90   11.30
  -9   4   0   50.59   11.90
   9   4   0   51.29   10.30
  -9  -4   0   16.80    7.80
   9  -4   0   37.80    9.80
  -9   4  -1    4.20    7.10
   9   4   1    2.20    5.00
   9  -4   1    3.80    5.90
  -9  -4  -1   -2.10    5.80
   9   4   2  110.19   16.60
  -9   4  -2   77.49   16.50
  -9  -4  -2   90.09   16.10
   9  -4   2   65.09   15.50
   9   4   3    1.10    5.50
  -9   4  -3   -6.40    7.80
  -9  -4  -3    2.90    7.20
   9  -4   3    1.10    6.80
  -9   4  -4   32.80   11.20
   9   4   4   38.40    9.10
   9  -4   4   56.49   12.10
  -9  -4  -4   10.30    9.70
   9   4   5    7.00    6.20
  -9   4  -5   11.30   11.60
   9  -4   5    1.70    8.30
  -9  -4  -5    0.70    7.60
   9   4   6   10.20    7.50
  -9  -4  -6   19.50   11.10
   9  -4   6   15.10   10.20
  -9   4  -7   25.80   14.50
   9   4   7   30.20   10.10
   9  -4   7   50.79   13.60
  -9  -4  -7   14.90   11.50
   9   5 -14   23.10   11.00
  -9   5  14   23.20    8.80
  -9  -5  14   15.10    9.80
   9   5 -13    8.40    9.50
  -9   5  13    6.20    6.80
  -9  -5  13   -2.20    7.90
   9   5 -12   -6.80    6.90
  -9   5  12    3.90    6.80
  -9  -5  12    1.30    8.60
   9  -5 -12   -0.20    7.30
   9   5 -11   13.80    9.50
  -9   5  11   23.20    9.10
  -9  -5  11   33.30   10.70
   9  -5 -11   31.80    9.70
   9   5 -10    3.50    7.20
  -9   5  10   11.70    7.30
  -9  -5  10   18.30    9.00
   9  -5 -10   12.30    7.80
   9   5  -9   48.30   12.60
  -9   5   9   40.30   11.50
  -9  -5   9   55.39   12.30
   9  -5  -9   83.89   13.90
   9   5  -8    3.30    5.80
  -9   5   8    9.70    7.00
  -9  -5   8    5.70    7.70
   9  -5  -8    8.20    7.20
  -9   5   7   62.19   13.80
   9   5  -7   63.69   13.70
  -9  -5   7   60.89   13.80
   9  -5  -7  107.69   15.30
  -9   5   6   10.60    7.10
   9   5  -6   18.00    7.50
   9  -5  -6    9.90    6.80
  -9  -5   6    7.70    6.90
  -9   5   5   55.89   10.50
   9   5  -5   24.10    7.70
   9  -5  -5   30.40    8.90
  -9  -5   5   27.50    8.40
  -9   5   4  218.38   29.80
   9  -5  -4  174.88   29.10
  -9  -5   4  172.98   29.00
   9   5  -3  136.69   26.80
  -9   5   3  194.98   28.50
   9  -5  -3  195.18   28.50
   9   5  -2   25.60    7.50
  -9   5   2   29.90    9.30
   9  -5  -2   18.80    8.00
  -9   5   1    8.90    7.20
   9   5  -1    0.00    4.90
  -9  -5   1   12.90    6.50
   9  -5  -1    5.50    6.60
   9   5   0   -1.90    5.10
  -9   5   0    8.20    7.20
  -9  -5   0    2.40    5.60
   9  -5   0    0.20    7.90
   9   5   1  132.09   19.50
  -9   5  -1  124.69   21.10
   9  -5   1  103.89   23.90
  -9  -5  -1   82.59   18.20
  -9   5  -2   17.30    9.50
   9   5   2   21.00    7.70
   9  -5   2   21.90    9.10
  -9  -5  -2   21.20    7.90
   9   5   3    6.20    5.70
  -9   5  -3   20.20    9.90
  -9  -5  -3    8.40    7.40
   9  -5   3   -2.00    7.90
   9   5   4    0.80    5.40
  -9   5  -4   -9.60    7.90
  -9  -5  -4   -2.50    7.20
   9  -5   4  -10.00    7.70
   9   5   5   33.10    9.10
  -9   5  -5   25.80   11.90
  -9  -5  -5   25.10   10.40
   9  -5   5   44.90   12.90
   9   5   6    6.20    6.40
  -9   5  -6    9.70   10.20
  -9  -5  -6    0.40    9.40
   9  -5   6   -8.90    9.40
  -9   5  -7    9.80   12.40
  -9  -5  -7    4.60   10.40
   9   6 -14    9.70   11.00
  -9   6  14   19.20    8.00
  -9  -6  14   11.70   10.80
   9   6 -13   82.29   15.70
  -9   6  13   50.49   11.40
  -9  -6  13   26.70   12.20
  -9   6  12   -4.30    6.00
   9   6 -12    0.50    8.70
  -9  -6  12   -1.20    7.80
   9   6 -11   18.10    9.10
  -9   6  11   15.30    7.80
   9  -6 -11    9.30    7.70
  -9  -6  11    5.10    7.60
   9   6 -10    7.40    7.10
  -9   6  10    5.10    6.90
   9  -6 -10    0.00    6.90
   9   6  -9   -2.10    7.60
  -9   6   9    4.60    6.60
  -9  -6   9   -4.80    5.90
   9  -6  -9   -1.00    6.10
  -9   6   8   15.30    7.40
   9   6  -8   27.80    8.80
   9  -6  -8   37.00    9.40
  -9  -6   8    1.90    6.50
  -9   6   7   41.90    9.80
   9   6  -7   40.30   10.30
   9  -6  -7   29.90   10.40
  -9  -6   7   33.80    9.80
  -9   6   6    7.30    6.90
   9   6  -6   -0.30    5.60
  -9  -6   6    1.00    6.30
   9  -6  -6   10.50    6.50
   9   6  -5   16.40    7.10
  -9   6   5    9.00    7.10
  -9  -6   5    9.80    6.40
   9  -6  -5   25.00    8.10
   9   6  -4   26.40    7.90
  -9   6   4   17.60    7.70
   9  -6  -4   29.10    8.50
  -9   6   3   12.80    7.30
   9   6  -3   -4.20    4.50
  -9  -6   3   -0.80    3.20
   9  -6  -3   -2.70    6.00
   9   6  -2   74.29   15.90
  -9   6   2  100.39   18.20
   9  -6  -2  115.79   18.30
   9   6  -1    6.00    6.10
  -9   6   1    8.20    8.00
  -9  -6   1    9.60    6.30
   9  -6  -1    3.10    6.00
   9   6   0    5.80    5.70
  -9   6   0   11.10    7.90
   9  -6   0    4.90    6.10
  -9  -6   0    3.10    6.40
   9   6   1    5.30    6.20
  -9   6  -1   -8.30    7.20
  -9  -6  -1  -11.20    5.70
   9  -6   1   10.10    7.20
   9   6   2  104.29   16.00
  -9   6  -2   73.89   17.60
   9  -6   2   80.89   16.70
  -9  -6  -2   63.29   14.40
  -9   6  -3   27.30   10.90
   9   6   3   35.70    8.40
  -9  -6  -3   12.60    8.50
   9  -6   3   38.50   11.30
   9   6   4   47.60   11.10
  -9   6  -4   53.69   14.10
  -9  -6  -4   34.10   10.90
   9  -6   4   72.39   15.70
  -9   6  -5   17.70   11.90
   9   6   5    9.70    6.60
  -9  -6  -5   15.80    8.70
   9  -6   5   -2.80   10.10
  -9   6  -6    5.10   11.40
   9   6   6   -1.00    7.00
   9  -6   6    8.60   10.70
  -9  -6  -6   -8.80    8.60
   9   7 -13   23.10   10.60
  -9   7  13   25.10    8.40
  -9  -7  13   17.70   10.70
   9   7 -12   22.90   11.10
  -9   7  12   13.40    7.30
  -9  -7  12    5.00    9.50
  -9   7  11   17.10    7.30
   9   7 -11   12.10    8.80
  -9  -7  11   18.80    9.40
  -9   7  10   -2.50    5.70
   9   7 -10   -1.90    7.60
   9  -7 -10   -2.30    6.20
  -9  -7  10   -4.20    7.20
   9   7  -9   -1.20    6.20
  -9  -7   9    1.30    7.20
   9  -7  -9   -1.80    5.80
   9   7  -8    5.80    7.20
  -9   7   8    0.20    6.10
  -9  -7   8   12.80    8.40
   9  -7  -8   21.40    8.20
   9   7  -7    8.40    7.20
  -9   7   7   14.70    7.90
   9  -7  -7   22.80    8.10
  -9  -7   7   31.00    9.20
  -9   7   6   28.60    9.10
   9   7  -6   16.20    8.00
  -9  -7   6   42.30   10.30
   9  -7  -6   43.00   10.70
  -9   7   5   19.70    8.30
   9   7  -5   16.60    6.80
   9  -7  -5   11.50    7.80
  -9  -7   5   32.90    8.60
  -9   7   4   65.79   14.60
   9   7  -4   67.89   13.70
   9  -7  -4   68.49   14.00
   9   7  -3   66.19   14.40
  -9   7   3   83.59   16.20
   9  -7  -3   94.69   16.10
  -9   7   2    4.70    7.50
   9   7  -2   -0.40    5.10
  -9  -7   2    0.00    5.80
   9  -7  -2    0.20    6.10
  -9   7   1    5.80    9.00
   9   7  -1   -1.90    5.40
  -9  -7   1   -2.10    5.70
   9  -7  -1   10.10    7.00
   9   7   0   29.20    8.00
  -9   7   0   26.00   10.20
  -9  -7   0   12.20    7.50
   9  -7   0   20.40    8.70
   9   7   1   -2.90    5.80
  -9   7  -1    3.60    8.30
   9  -7   1    5.30    7.20
  -9  -7  -1    2.50    6.20
  -9   7  -2   12.70   10.80
   9   7   2   15.40    7.30
   9  -7   2   17.90    9.40
  -9  -7  -2   19.20    7.90
  -9   7  -3    2.10    8.90
   9   7   3   10.10    6.20
   9  -7   3    2.10    8.20
  -9  -7  -3   -0.70    6.70
  -9   7  -4  -10.00    8.80
   9   7   4    3.90    6.00
   9  -7   4    3.80    9.60
  -9  -7  -4    1.00    7.10
  -9   7  -5    3.30   10.40
   9   7   5   -1.80    5.30
   9  -7   5   -3.50    9.20
  -9  -7  -6    0.70    8.70
   9   8 -12   -2.00    8.40
  -9   8  12    0.80    6.20
  -9  -8  12    4.90    8.10
   9   8 -11   27.30   10.40
  -9   8  11    3.90    6.90
   9  -8 -11    2.20    7.30
  -9  -8  11   17.00   11.20
  -9   8  10   18.30    8.30
   9   8 -10   36.10   10.50
  -9  -8  10   37.90   12.40
   9  -8 -10   -4.80    9.10
   9   8  -9   -3.20    7.10
  -9   8   9    3.20    6.20
  -9  -8   9   -1.50    7.60
   9  -8  -9    3.10    6.20
   9   8  -8   18.20    8.60
  -9   8   8   20.60    8.30
  -9  -8   8   24.00    9.80
   9  -8  -8   42.20   12.00
   9   8  -7    1.00    5.60
  -9   8   7    1.70   12.40
   9  -8  -7    8.30    7.30
  -9  -8   7   22.90    8.20
   9   8  -6    6.90    8.10
  -9   8   6   18.30    8.20
   9  -8  -6   16.70    8.30
  -9  -8   6   11.50    7.10
   9   8  -5    0.20    5.60
  -9   8   5    4.00    6.80
   9  -8  -5    2.60    7.00
   9   8  -4    5.00    5.60
  -9   8   4   -5.80    6.20
  -9  -8   4   -0.30    6.00
   9  -8  -4    1.60    6.90
   9   8  -3    8.00    6.40
  -9   8   3   -5.10    6.40
   9  -8  -3   12.50    8.80
  -9  -8   3    9.70    6.90
   9   8  -2    4.90    5.80
  -9   8   2    4.80    8.60
   9  -8  -2   16.60    7.90
  -9  -8   2    3.70    6.10
   9   8  -1    9.90    7.50
  -9   8   1   49.90   12.40
  -9  -8   1   22.10    8.30
   9  -8  -1   17.30    8.20
  -9   8   0   40.50   11.60
   9   8   0    5.70    6.00
  -9  -8   0    4.30    6.60
   9  -8   0   20.00    9.30
   9   8   1    8.60    6.20
  -9   8  -1    8.30   10.10
   9  -8   1    0.30    7.80
  -9  -8  -1    0.30    6.50
  -9   8  -2   53.19   13.90
   9   8   2   34.60   11.00
   9  -8   2   67.89   14.40
  -9  -8  -2   22.30    9.20
   9   8   3    3.60    5.40
  -9   8  -3   -0.80    8.90
   9  -8   3    0.00    9.10
  -9  -8  -3    2.30    6.70
  -9   8  -4   63.29   15.40
   9   8   4   47.50   10.60
  -9  -8  -4   37.60   10.50
   9  -8   4   53.49   14.50
  -9  -8  -5   -6.90    7.20
   9   9 -11    4.10    8.90
  -9   9  11   -1.90    6.40
  -9  -9  11    9.40   10.00
   9   9 -10    0.70    7.30
  -9  -9  10    0.60    8.00
  -9   9   9   11.90    8.00
   9   9  -9   33.60   10.50
   9  -9  -9    6.60    9.80
  -9  -9   9   32.40   11.00
  -9   9   8   10.70    6.90
   9   9  -8   12.50    8.50
  -9  -9   8    0.00    8.10
   9   9  -7    5.90    7.00
  -9   9   7    9.30    7.40
  -9  -9   7   20.00    8.70
   9   9  -6    7.90    7.30
  -9   9   6   19.60    7.80
   9  -9  -6   16.80    8.80
   9   9  -5   10.60    6.60
  -9   9   5   12.40    8.20
  -9  -9   5    7.70    7.20
   9  -9  -5   15.80   10.80
  -9   9   4   62.39   21.40
   9   9  -4   36.10    9.90
  -9  -9   4   35.30   10.80
   9  -9  -4   54.99   11.40
   9   9  -3   11.30    6.60
  -9   9   3   20.70    9.90
  -9  -9   3    9.40    7.30
   9  -9  -3   13.50    8.50
   9   9  -2    2.00    5.70
  -9   9   2    3.20    8.50
  -9  -9   2    7.00    7.00
   9  -9  -2    4.40    8.90
  -9   9   1   11.40    9.20
   9   9  -1    6.60    6.20
   9  -9  -1   -2.40    8.10
  -9  -9   1    4.60    6.50
  -9   9   0    3.60    9.10
   9   9   0    6.20    6.20
  -9  -9   0    7.00    6.60
   9  -9   0   -2.00    8.80
  -9   9  -1    8.70   10.60
   9   9   1   -2.10    5.70
  -9  -9  -1   -4.30    5.90
   9  -9   1  -13.90    8.20
  -9   9  -2    0.00    9.90
   9   9   2    3.40    6.10
   9  -9   2   -0.20    9.00
  -9   9  -3   25.70   12.10
   9   9   3   14.30    6.50
   9  -9   3   21.40   11.70
  -9  -9  -3   12.80    7.20
  -9  -9  -4   -4.00    6.20
   9  10  -9    0.40    7.00
  -9  10   9    7.50    7.10
  -9 -10   9   -2.10    8.20
  -9  10   8   -5.60    6.10
   9  10  -8    9.80    7.90
  -9 -10   8   -4.70    7.30
  -9  10   7   -0.20    6.80
   9  10  -7    8.00    7.50
  -9 -10   7  -18.10    7.80
  -9  10   6   10.30    7.60
   9  10  -6   -1.70    6.10
  -9 -10   6    8.20    7.10
  -9  10   5   37.60   10.70
   9  10  -5   27.20    9.50
  -9 -10   5   53.89   11.60
  -9  10   4   -8.30    6.10
   9  10  -4   10.80    6.80
   9 -10  -4   -5.90    7.70
  -9 -10   4    2.20    6.40
   9  10  -3    0.70    5.90
  -9  10   3    7.60    8.40
  -9 -10   3    9.10    7.30
   9 -10  -3    8.40    8.70
  -9  10   2   14.80   10.10
   9  10  -2   13.90    7.20
   9 -10  -2    9.30    9.60
  -9 -10   2    8.80    7.10
  -9  10   1    9.70    9.90
   9  10  -1    5.80    6.10
  -9 -10   1    5.60    6.50
   9 -10  -1   -7.50    8.10
  -9  10   0    1.80    9.40
   9  10   0    7.80    6.50
   9 -10   0   12.60   10.10
  -9 -10   0   -0.70    5.90
   9  10   1   -0.90    5.70
  -9  10  -1   13.70   11.50
  -9 -10  -1    7.40    6.40
   9 -10   1    6.80   10.60
  -9  10  -2   -3.70    9.80
   9  10   2   -6.00    5.70
  -9 -10  -2    5.70    6.10
   9 -10   2    1.60   10.70
  -9  11   7   14.70    7.80
   9  11  -7    1.60    6.70
  -9 -11   7   -0.10    5.30
  -9  11   6   -2.80    6.90
   9  11  -6    9.30    7.30
  -9 -11   6    7.40    7.90
   9  11  -5    2.40    6.80
  -9  11   5   -6.20    7.20
  -9 -11   5   10.30    7.90
  -9  11   4    8.40    8.50
   9  11  -4    0.90    6.40
  -9 -11   4    3.70    7.30
   9  11  -3    1.90    6.30
  -9  11   3    7.50    9.30
   9 -11  -3    4.80    9.80
  -9 -11   3   20.20    8.20
   9  11  -2   -0.60    6.20
   9 -11  -2   -1.50    9.40
  -9 -11   2    1.70    7.30
  -9  11   1   -1.10    9.60
   9  11  -1    2.10    6.40
   9 -11  -1   -2.20    9.30
  -9 -11   1    0.60    6.30
   9  11   0   -0.50    6.90
  -9 -11   0    5.30    6.20
 -10   0  15   -6.80    7.90
  10   0 -15  -11.40    8.00
 -10   0  14    5.70   14.10
  10   0 -14   46.70   12.80
  10   0 -13    8.80    8.90
 -10   0  13   -2.90    6.90
  10   0 -12  156.68   28.50
 -10   0  12  184.58   29.10
  10   0 -11   -3.60    6.10
 -10   0  11   10.10    7.20
  10   0 -10   45.50   11.60
 -10   0  10   50.99   12.50
 -10   0   9   -9.30    6.20
  10   0  -9   -0.30    6.00
  10   0  -8   32.30    9.50
 -10   0   8   31.50    9.10
  10   0  -7   -5.30    4.90
 -10   0   7   -3.70    5.40
 -10   0   6   72.19   14.20
  10   0  -6   72.79   14.20
 -10   0   5   -0.60    5.90
  10   0  -5   12.80    6.90
  10   0  -4    2.40    5.40
 -10   0   4    0.40    5.80
  10   0  -3    0.30    6.20
 -10   0   3    3.00    6.00
  10   0  -2   59.89   10.50
 -10   0   2   22.10    9.00
  10   0  -1   -3.10    5.30
 -10   0   1   -4.50    6.10
 -10   0   0   26.60    9.00
  10   0   0   27.10    8.10
  10   0   1    7.20    6.60
 -10   0  -1   -3.30    6.10
  10   0   2   21.60    8.20
 -10   0  -2    8.80    8.00
  10   0   3   -8.80    5.70
 -10   0  -3  -11.80    7.10
  10   0   4   19.90    9.00
 -10   0  -4   23.20   10.70
  10   0   5    4.30    8.60
 -10   0  -5  -10.70    8.70
  10   0   6    2.40    8.00
 -10   0  -6   -6.50    9.70
 -10   0  -7   -6.60   10.70
  10   0   7   -6.30    8.60
 -10   1  15    9.40    8.70
  10   1 -15   -5.50    8.40
 -10  -1  15   -9.70    8.20
  10  -1 -15  -11.10    7.90
 -10   1  14   16.30    8.80
  10   1 -14    4.80    8.50
 -10  -1  14    3.50    8.50
  10  -1 -14   11.90    9.20
 -10   1  13    8.50    8.30
  10   1 -13   16.80   10.00
 -10  -1  13   21.70    9.20
  10  -1 -13   13.60    8.50
 -10   1  12    0.00    7.00
  10   1 -12    2.00    8.10
  10  -1 -12    1.00    7.20
 -10  -1  12   -8.20    6.90
 -10   1  11   12.40    8.00
  10   1 -11   18.90    9.40
  10  -1 -11   32.10    9.80
 -10  -1  11   18.80    9.00
 -10   1  10   55.89   12.20
  10   1 -10   43.40   11.50
 -10  -1  10   25.00   11.00
  10  -1 -10   51.49   11.70
 -10   1   9   38.40    9.70
  10   1  -9   32.70    9.70
 -10  -1   9   11.00    8.10
  10  -1  -9   45.70   10.70
 -10   1   8    0.30    6.20
  10   1  -8   -8.00    4.90
 -10  -1   8   -6.70    5.60
  10  -1  -8    3.30    5.90
 -10   1   7   38.00   10.70
  10   1  -7   38.90   10.40
 -10  -1   7   40.40   10.30
  10  -1  -7   55.79   11.00
 -10   1   6   14.40    6.70
  10   1  -6    3.70    6.10
  10  -1  -6    4.30    5.40
 -10  -1   6   -5.80    6.00
  10   1  -5  132.99   24.40
 -10   1   5  196.08   25.20
 -10  -1   5  113.79   24.40
  10  -1  -5  189.78   26.30
  10   1  -4   51.49   12.20
 -10   1   4   62.19   13.30
  10  -1  -4   75.89   13.40
 -10  -1   4   52.39   12.00
  10   1  -3  101.59   17.70
  10  -1  -3   85.69   16.90
 -10  -1   3   89.79   16.30
  10   1  -2   15.00    6.70
 -10   1   2    8.80    6.90
 -10  -1   2   13.00    7.40
  10  -1  -2    9.10    6.40
 -10   1   1    4.30    6.60
  10   1  -1    6.80    6.30
  10  -1  -1    0.90    5.90
 -10  -1   1   -2.40    6.10
  10   1   0   14.30    7.40
 -10   1   0   40.00   10.10
 -10  -1   0    6.00    7.10
  10  -1   0   27.00    8.30
 -10   1  -1  120.99   22.90
  10   1   1  130.19   22.50
  10  -1   1  128.19   22.00
  10   1   2    6.70    6.70
 -10   1  -2   18.60    8.90
  10  -1   2   16.40    7.90
 -10  -1  -2   14.90    8.50
  10   1   3   95.19   15.50
 -10   1  -3   56.79   15.40
  10  -1   3   63.99   14.80
 -10  -1  -3   63.99   15.50
 -10   1  -4   19.40   10.30
  10   1   4   -3.70    6.40
 -10  -1  -4    3.00    8.20
  10  -1   4   10.40    7.30
  10   1   5  123.99   21.90
  10  -1   5  111.79   21.60
  10   1   6   -0.60    7.90
 -10   1  -6   -1.60   10.10
  10  -1   6   -2.20    8.20
  10   1   7   54.69   13.30
 -10   1  -7   34.30   13.60
  10  -1   7   57.69   13.60
 -10  -1  -7    6.80    9.00
 -10   2  15   -1.40    8.10
  10  -2 -15   -3.20    8.20
 -10  -2  15    2.20   10.10
  10   2 -14   93.09   22.10
 -10   2  14  117.09   21.30
  10  -2 -14  131.49   22.20
 -10  -2  14  104.09   21.50
  10   2 -13    7.10    8.60
  10  -2 -13   -7.30    7.20
 -10  -2  13   12.30    8.40
  10   2 -12   16.70    9.20
 -10   2  12   36.60   10.30
  10  -2 -12   13.60    8.70
 -10  -2  12   11.40    8.60
 -10   2  11   -2.10    6.20
  10   2 -11   15.30    9.10
  10  -2 -11    0.20    6.90
 -10  -2  11   -1.10    8.20
  10   2 -10   80.69   15.60
 -10   2  10   65.69   15.10
 -10  -2  10   68.69   15.00
  10  -2 -10  103.39   17.00
 -10   2   9   99.79   16.10
  10   2  -9   55.99   14.50
 -10  -2   9   48.40   13.20
  10  -2  -9   80.49   14.50
  10   2  -8   32.50    8.30
 -10   2   8   18.60    8.50
  10  -2  -8   43.00    9.80
 -10  -2   8   19.00    8.40
 -10   2   7   19.30    8.00
  10   2  -7   30.30    8.30
 -10  -2   7    7.40    7.70
  10  -2  -7   22.70    7.60
  10   2  -6  237.58   37.10
 -10   2   6  262.97   37.30
  10  -2  -6  234.78   37.00
 -10  -2   6  236.88   37.10
  10   2  -5   61.29   12.80
 -10   2   5   73.69   14.00
 -10  -2   5   48.80   13.10
  10  -2  -5   83.49   14.20
  10   2  -4    3.50    6.20
 -10   2   4   -2.80    6.30
  10  -2  -4   -0.50    5.10
 -10  -2   4    0.90    6.20
 -10   2   3    4.50    7.30
  10   2  -3    4.80    5.20
  10  -2  -3    3.70    5.70
 -10  -2   3    0.90    5.50
  10   2  -2   73.49   13.80
 -10   2   2   49.99   11.80
  10  -2  -2   49.80   11.50
 -10  -2   2   46.50   10.90
  10   2  -1    1.00    6.00
 -10   2   1    6.40    7.20
  10  -2  -1    0.60    5.10
 -10  -2   1   11.20    6.60
 -10   2   0   10.50    7.50
  10   2   0   15.00    6.70
 -10  -2   0    7.50    7.40
  10  -2   0   24.20    8.00
  10   2   1    6.90    6.90
 -10   2  -1    3.40    7.50
  10  -2   1   23.60    8.30
 -10  -2  -1   -2.30    7.30
  10   2   2    6.40    6.10
 -10   2  -2   13.60    9.90
  10  -2   2   -3.20    6.60
  10   2   3    4.80    6.60
 -10   2  -3   19.30    9.50
  10  -2   3   36.50   10.30
  10   2   4   52.89   12.80
 -10   2  -4   39.60   13.10
  10  -2   4   59.09   13.50
  10   2   5    2.50    6.90
 -10   2  -5   31.20   11.30
  10  -2   5   22.00   10.20
 -10  -2  -5   14.20   10.30
  10   2   6    0.10    7.70
 -10   2  -6    8.10   10.70
  10  -2   6   12.80    9.90
 -10  -2  -6   12.10   12.10
 -10   2  -7    8.00   11.30
 -10  -2  -7    5.30   11.30
  10   3 -15   -6.60    8.80
 -10   3  15   -0.20    7.60
 -10  -3  15   -1.20    8.80
 -10   3  14   -9.60    6.70
  10   3 -14   -8.50    7.80
  10  -3 -14  -10.20    8.30
 -10  -3  14   -1.10    8.70
  10   3 -13    5.50    8.00
 -10   3  13    2.80    8.00
 -10  -3  13    3.80    8.10
  10  -3 -13    0.90    8.00
  10   3 -12    1.70    7.70
 -10   3  12    8.60    7.90
  10  -3 -12   18.60    9.10
 -10  -3  12   17.80    8.70
 -10   3  11   15.90    8.20
  10   3 -11   29.50   10.10
 -10  -3  11   22.80    9.60
  10  -3 -11   25.10    9.80
 -10   3  10   10.50    7.50
  10   3 -10   15.50    8.80
 -10  -3  10    7.20    7.70
  10  -3 -10   24.50    8.60
 -10   3   9   16.80    8.10
  10   3  -9   -1.60    7.00
  10  -3  -9   -8.80    6.00
 -10  -3   9    2.00    6.60
 -10   3   8   -2.80    6.10
  10   3  -8   -4.50    5.90
  10  -3  -8   -1.10    5.30
 -10  -3   8    4.90    7.20
  10   3  -7  111.89   20.30
 -10   3   7  107.79   20.50
  10  -3  -7  155.08   22.30
 -10  -3   7  108.49   20.40
 -10   3   6   -0.30    5.90
  10   3  -6   -5.70    4.60
  10  -3  -6    3.40    5.70
 -10  -3   6    2.70    5.90
 -10   3   5  144.49   27.30
  10   3  -5  186.48   26.80
 -10  -3   5  164.98   27.80
 -10   3   4   -0.90    6.30
  10   3  -4   -5.60    5.80
  10  -3  -4    0.50    6.10
 -10  -3   4    4.80    6.00
 -10   3   3   33.40   10.20
  10   3  -3   33.60    9.30
 -10  -3   3   30.80    9.50
  10  -3  -3   54.79   10.90
  10   3  -2    0.70    5.50
 -10   3   2    2.20    7.00
  10  -3  -2    4.80    6.70
 -10  -3   2   -5.50    6.20
  10   3  -1    1.20    6.00
 -10   3   1    5.00    8.00
 -10  -3   1    1.20    6.10
  10  -3  -1    7.60    6.00
  10   3   0   47.10   12.00
 -10   3   0   90.29   15.50
  10  -3   0   55.79   12.70
  10   3   1   77.39   15.40
 -10   3  -1   60.39   20.50
  10  -3   1   81.39   15.60
 -10   3  -2   -1.50    8.90
  10   3   2    9.80    6.60
 -10  -3  -2  -10.00    5.40
  10  -3   2    8.70    6.90
  10   3   3   31.30   10.10
 -10   3  -3   54.89   12.90
  10  -3   3   32.20   11.40
 -10  -3  -3   39.90   16.90
  10   3   4   10.80    7.30
 -10   3  -4    4.70    9.40
 -10  -3  -4    4.80    9.40
  10  -3   4    9.20    7.90
 -10   3  -5   65.49   16.20
  10   3   5   67.09   14.70
  10  -3   5  113.89   18.10
 -10  -3  -5   39.60   14.20
 -10   3  -6   -9.50    9.70
  10   3   6   -2.50    7.20
 -10  -3  -6  -15.70    9.10
  10  -3   6    4.70    9.60
 -10   4  14    9.00    8.20
  10   4 -14   14.70   12.10
 -10  -4  14   16.40    9.70
  10  -4 -14   19.10    9.80
 -10   4  13    2.60    7.30
  10   4 -13   -4.60    8.30
 -10  -4  13   11.50    8.50
  10  -4 -13    3.60    8.20
  10   4 -12   84.19   18.20
 -10   4  12   82.69   17.50
 -10  -4  12   82.49   18.70
  10  -4 -12  154.98   23.10
 -10   4  11    7.90    7.20
  10   4 -11   -0.90    6.90
  10  -4 -11   10.90    8.30
 -10  -4  11    3.30    7.10
  10   4 -10   62.89   14.30
 -10   4  10   84.49   15.10
 -10  -4  10   63.39   14.10
  10  -4 -10   59.09   14.00
 -10   4   9   -2.90    6.50
  10   4  -9    0.10    6.40
  10  -4  -9    7.10    6.60
 -10   4   8    4.20    8.40
  10   4  -8   26.40    9.40
 -10  -4   8   23.20    9.20
  10  -4  -8   34.60    9.30
 -10   4   7    0.20    6.40
  10   4  -7    0.90    5.30
 -10  -4   7    1.20    6.20
  10  -4  -7   -2.60    6.70
  10   4  -6   60.59   14.60
 -10   4   6  112.29   17.20
 -10  -4   6   62.69   14.20
  10  -4  -6  101.89   16.10
 -10   4   5   54.99   11.60
  10   4  -5   39.80   10.50
 -10  -4   5   26.40   10.40
  10  -4  -5   59.59   11.10
 -10   4   4    3.10    6.70
  10   4  -4    7.90    5.70
  10  -4  -4    6.90    6.20
 -10  -4   4    3.00    5.70
  10   4  -3   58.39   13.50
 -10   4   3   73.69   14.00
  10  -4  -3   75.89   15.20
 -10  -4   3   67.79   13.30
 -10   4   2  149.29   21.00
  10   4  -2   91.09   18.70
 -10  -4   2   86.79   18.60
  10  -4  -2  186.28   24.50
 -10   4   1   62.39   12.50
  10   4  -1   46.30   10.80
  10  -4  -1   33.30   10.70
  10   4   0   54.89   11.30
 -10   4   0   39.40   12.60
  10  -4   0   51.59   11.60
 -10  -4   0   34.60    9.80
  10   4   1   -0.50    5.50
 -10   4  -1   -8.60    8.20
  10  -4   1  -13.60    5.60
 -10   4  -2   -4.60    7.80
  10   4   2    6.00    6.30
 -10  -4  -2   12.80    8.70
  10  -4   2    8.70    6.80
  10   4   3   -2.80    5.90
 -10   4  -3    4.90    9.60
  10  -4   3   12.00    8.80
 -10  -4  -3   12.40    8.90
  10   4   4   -0.70    6.00
 -10   4  -4    2.40    8.90
  10  -4   4    6.60    8.80
 -10  -4  -4    4.30    9.20
  10   4   5    7.10    7.10
 -10   4  -5    4.00   10.00
  10  -4   5    3.30    9.60
 -10  -4  -5   19.10   10.70
 -10   4  -6   -9.90   11.00
  10   4   6   -2.10    7.00
  10  -4   6   -6.00   10.50
 -10  -4  -6   12.50   11.00
  10   5 -14    8.20   11.30
 -10   5  14   19.10    9.20
 -10  -5  14    6.60    9.50
 -10   5  13   30.30   10.50
  10   5 -13   44.40   14.00
 -10  -5  13   32.80   12.10
  10   5 -12    7.80    9.30
 -10   5  12    0.00    6.00
 -10  -5  12  -10.50    6.70
  10  -5 -12    9.10    7.60
 -10   5  11    3.10    8.30
  10   5 -11    2.10    7.90
 -10  -5  11   12.30    9.00
  10  -5 -11    1.40    6.80
 -10   5  10   -2.00    6.40
  10   5 -10   -3.60    6.50
 -10  -5  10   -3.90    7.20
  10  -5 -10    2.90    7.40
  10   5  -9    0.20    7.00
 -10   5   9   -6.40    6.40
 -10  -5   9   -0.70    6.70
  10  -5  -9    4.20    7.00
  10   5  -8    4.20    6.50
 -10   5   8    8.10    7.20
  10  -5  -8   17.40    8.00
 -10  -5   8   15.60    8.60
 -10   5   7   -2.40    6.10
  10   5  -7   11.00    7.70
 -10  -5   7    1.80    6.00
  10  -5  -7    9.50    6.70
  10   5  -6   31.50    9.40
 -10   5   6   40.60   10.30
  10  -5  -6   57.79   12.10
 -10  -5   6   34.60   10.20
  10   5  -5  145.69   25.80
 -10   5   5  138.89   26.00
  10  -5  -5  198.98   26.40
 -10  -5   5  157.38   26.60
  10   5  -4   23.70    8.30
 -10   5   4   43.90   10.70
  10  -5  -4   66.69   11.40
 -10  -5   4   32.30    9.60
 -10   5   3   49.00   12.80
  10   5  -3   46.70   11.20
 -10  -5   3   45.00   11.60
  10  -5  -3   68.09   12.70
 -10   5   2  108.19   17.50
  10   5  -2   60.89   14.50
  10  -5  -2  100.29   16.90
  10   5  -1   30.90    8.40
 -10   5   1   47.20   11.70
 -10  -5   1   20.80    8.30
  10  -5  -1   25.00    9.60
  10   5   0   10.40    7.00
 -10   5   0   11.00    9.10
  10  -5   0   19.30    8.80
 -10  -5   0    4.40    6.60
  10   5   1    1.30    5.80
 -10   5  -1   -4.60    8.00
 -10  -5  -1    4.70    7.00
  10  -5   1    0.30    5.90
 -10   5  -2    6.10    9.90
  10   5   2    1.20    5.80
 -10  -5  -2   10.80    7.80
  10  -5   2   -1.30    7.10
  10   5   3   -2.20    5.80
 -10   5  -3   -8.30    9.60
 -10  -5  -3    3.50    8.10
  10  -5   3   14.80    8.90
  10   5   4    1.80    5.80
 -10   5  -4    1.80   10.30
 -10  -5  -4   -0.80    9.10
  10  -5   4    8.80    9.50
 -10   5  -5   19.10   11.90
  10   5   5   34.60    9.30
 -10  -5  -5    3.40    9.70
  10  -5   5   24.50   11.80
 -10   5  -6  -16.00   11.50
 -10  -5  -6   -9.30    9.20
  10   6 -13    3.20    9.70
 -10   6  13    2.70    7.80
 -10  -6  13   -9.40    8.30
  10   6 -12   33.40   11.50
 -10   6  12   13.50    8.90
 -10  -6  12   41.50   12.50
 -10   6  11   22.10    9.20
  10   6 -11   38.90   13.00
 -10  -6  11   25.70   10.60
  10  -6 -11   32.30   10.90
 -10   6  10   21.10    8.60
  10   6 -10   13.80    8.10
  10  -6 -10   23.20    9.70
 -10   6   9   14.60    7.60
  10   6  -9   15.90    8.00
 -10  -6   9   26.30    9.20
  10  -6  -9    9.40    7.30
 -10   6   8   -7.30    6.10
  10   6  -8  -10.10    6.00
  10  -6  -8   -0.70    6.50
 -10  -6   8   -6.00    7.10
  10   6  -7   48.00   11.60
 -10   6   7   46.30   11.80
 -10  -6   7   41.60   11.20
  10  -6  -7   51.39   12.40
 -10   6   6  123.69   23.10
  10   6  -6  122.89   22.30
 -10  -6   6  124.99   22.70
  10  -6  -6  184.18   24.60
  10   6  -5    0.90    5.80
 -10   6   5    2.50    6.60
  10  -6  -5   10.20    7.00
 -10  -6   5   15.00    7.30
  10   6  -4    7.40    5.90
 -10   6   4    3.00    7.20
 -10  -6   4   -5.20    5.90
  10  -6  -4    7.50    6.40
  10   6  -3   -2.80    5.20
 -10   6   3    2.50    6.30
  10  -6  -3  -11.40    5.80
 -10  -6   3    0.90    3.30
  10   6  -2   16.00    7.20
 -10   6   2    1.80    7.70
 -10  -6   2    5.30    6.90
  10  -6  -2   24.90    8.40
  10   6  -1    5.90    6.00
 -10   6   1    2.60    7.50
 -10  -6   1    4.20    6.50
  10  -6  -1   11.80    8.00
  10   6   0  129.49   17.80
 -10   6   0  103.29   18.60
  10  -6   0   94.19   17.60
 -10  -6   0   49.40   14.70
  10   6   1   40.50    9.80
 -10   6  -1   32.60   11.80
 -10  -6  -1   25.10    9.80
  10  -6   1   44.10   12.10
  10   6   2    0.20    6.20
 -10   6  -2   -8.00    8.60
 -10  -6  -2    2.30    7.60
  10  -6   2   -3.50    7.60
 -10   6  -3  124.09   22.10
  10   6   3   87.99   18.30
  10  -6   3  102.59   21.70
  10   6   4    3.20    6.20
 -10   6  -4   13.60   10.60
 -10  -6  -4   -4.40    8.00
  10  -6   4   16.40   10.90
 -10   6  -5   35.30   13.80
  10   6   5   39.20   10.20
 -10  -6  -5   20.70   11.30
  10  -6   5   61.69   15.30
 -10   7  13    1.90    7.40
  10   7 -13   10.00    9.60
 -10  -7  13    4.60   10.00
  10   7 -12    8.30    9.90
 -10   7  12    2.30    6.90
 -10  -7  12   -0.30    8.30
  10   7 -11   10.00    9.00
 -10   7  11   -8.30    6.20
 -10  -7  11   -1.80    7.60
 -10   7  10   -3.00    6.80
  10   7 -10    6.20    9.20
 -10  -7  10   14.80    8.20
  10   7  -9    3.90    6.80
 -10   7   9   -4.20    6.50
 -10  -7   9    1.30    7.50
 -10   7   8   -5.60    6.70
  10   7  -8    3.10    7.10
 -10  -7   8   -4.40    6.40
  10  -7  -8   -8.80    6.30
  10   7  -7   19.70    8.90
 -10   7   7   18.00    7.90
  10  -7  -7   17.40    8.70
 -10  -7   7   11.90    7.40
 -10   7   6    2.00    6.60
  10   7  -6    9.10    7.00
  10  -7  -6   -3.50    6.60
 -10  -7   6    4.30    7.90
  10   7  -5    9.60    6.70
 -10   7   5   26.50    9.70
  10  -7  -5   28.90    9.20
 -10  -7   5   20.50    8.40
  10   7  -4    9.20    6.20
 -10   7   4   17.20    8.10
 -10  -7   4    0.60    3.60
  10  -7  -4    9.60    7.10
 -10   7   3   16.10    8.40
  10   7  -3    6.00    5.80
 -10  -7   3    1.30    7.50
  10  -7  -3    6.30    7.40
  10   7  -2   27.90    9.10
 -10   7   2   30.20   10.40
  10  -7  -2   47.10   11.90
 -10  -7   2   24.50    8.80
  10   7  -1    5.40    6.30
 -10   7   1   19.40    9.60
  10  -7  -1    4.80    6.60
 -10  -7   1   15.10    7.40
  10   7   0    8.50    6.40
 -10   7   0   -0.90    9.30
 -10  -7   0    3.60    6.80
  10  -7   0   21.50    9.50
 -10   7  -1   38.60   12.40
  10   7   1   36.90    9.60
 -10  -7  -1   10.90    8.80
  10  -7   1   48.40   12.60
 -10   7  -2    2.00   10.10
  10   7   2   -6.70    6.00
  10  -7   2    5.30    9.10
 -10  -7  -2   16.50    8.40
 -10   7  -3   -2.40    9.30
  10   7   3    4.10    6.00
  10  -7   3   -5.40    8.10
 -10  -7  -3   -6.60    7.90
 -10   7  -4  -10.10   10.60
  10   7   4    6.30   11.80
 -10  -7  -4   -2.80    8.10
  10  -7   4   -0.20    9.90
  10   8 -12   -0.80    8.60
 -10   8  12   13.10    8.00
 -10  -8  12   21.00   10.50
 -10   8  11   12.30    8.10
  10   8 -11   -7.90    7.80
  10   8 -10   23.40    9.90
 -10   8  10   24.20    9.10
 -10  -8  10    8.90    8.90
 -10   8   9    3.20    6.90
  10   8  -9    2.20    7.30
 -10  -8   9   17.00    8.80
  10   8  -8    4.90    7.90
 -10   8   8   21.80    8.70
  10  -8  -8   16.90    9.30
 -10  -8   8   15.60    8.90
  10   8  -7   -4.70    5.50
 -10   8   7    1.50    6.90
 -10  -8   7   15.40    8.60
  10   8  -6   27.70   10.40
  10  -8  -6   34.50   10.40
 -10  -8   6   18.40    8.70
  10   8  -5   14.40    7.10
 -10   8   5   22.30    9.30
  10  -8  -5    1.30    8.30
 -10   8   4   -0.80    7.30
  10   8  -4   11.00    6.30
  10  -8  -4   -6.50    7.10
 -10  -8   4    2.10    7.20
 -10   8   3   34.70   10.30
  10   8  -3   14.20    7.50
  10  -8  -3   -6.00    7.50
 -10  -8   3   14.00    7.60
  10   8  -2    1.80    6.00
 -10   8   2   22.50    9.90
 -10  -8   2    8.50    7.00
  10  -8  -2   15.90    8.00
 -10   8   1  113.89   19.10
  10   8  -1   60.29   13.80
  10  -8  -1   76.19   15.70
 -10  -8   1   59.39   14.20
  10   8   0   27.10    8.40
 -10   8   0   11.00   10.90
  10  -8   0   17.50   10.30
 -10  -8   0    7.50    7.70
 -10   8  -1    9.10    9.90
  10   8   1   -2.40    6.40
 -10  -8  -1   14.30    8.00
  10  -8   1   -0.70    8.10
  10   8   2   33.10   10.10
 -10   8  -2   45.70   14.10
 -10  -8  -2   25.40   10.30
  10  -8   2   88.49   16.90
 -10   8  -3    9.30   11.00
  10   8   3    7.00    6.40
  10  -8   3   22.10   11.20
 -10  -8  -3   -5.40    7.30
  10   9 -10   11.20    9.30
 -10   9  10    9.10    7.40
 -10  -9  10    1.80    8.60
  10   9  -9    1.20    7.60
 -10   9   9   14.00    7.60
 -10  -9   9    0.30    8.10
  10   9  -8   11.90    8.00
 -10   9   8   31.00    9.20
 -10  -9   8   11.00    8.80
  10   9  -7    3.40    7.20
 -10   9   7    0.00    7.20
 -10  -9   7   -1.10    7.50
 -10   9   6    8.40    8.30
  10   9  -6    4.40    6.40
  10  -9  -6   -1.90    8.00
 -10   9   5    5.70    8.30
  10   9  -5   10.30    6.70
  10  -9  -5   23.40    9.60
 -10  -9   5   21.10    8.40
  10   9  -4    4.50    6.50
 -10   9   4    3.30    7.90
  10  -9  -4    6.80    7.70
 -10  -9   4    5.50    7.80
 -10   9   3   27.20    9.90
  10   9  -3    3.60    6.40
 -10  -9   3    8.00    8.20
 -10   9   2    7.70   10.50
  10   9  -2    9.00    6.80
 -10  -9   2   12.70    8.00
  10  -9  -2   -3.60   10.20
 -10   9   1   22.20   19.30
  10   9  -1   13.10    7.20
  10  -9  -1    8.40    9.00
 -10  -9   1    1.90    7.30
  10   9   0   17.60    7.80
 -10   9   0   36.30   22.80
 -10  -9   0    4.50    7.30
  10  -9   0   18.50   10.20
 -10   9  -1    7.50   18.20
  10   9   1   -6.90    7.20
  10  -9   1    7.30    9.40
 -10  -9  -1    7.30    7.80
  10   9   2    2.40    6.10
 -10   9  -2   21.90   16.10
  10  -9   2  -12.40    9.80
 -10  -9  -2   -0.20    9.30
  10  10  -9    0.30    8.00
 -10  10   9    2.90    8.00
 -10 -10   9   14.00   10.20
  10  10  -8   14.30    8.30
 -10  10   8    7.50    7.70
 -10 -10   8    5.80    9.10
  10  10  -7   -1.90    7.20
 -10  10   7    4.80    7.60
 -10  10   6   29.70    9.60
  10  10  -6   13.60    7.60
 -10 -10   6    9.90    7.80
  10  10  -5   -1.60    6.00
 -10  10   5    6.70    8.60
  10 -10  -5    8.50    8.40
 -10 -10   5   -2.20    7.00
  10  10  -4    5.50    6.70
 -10  10   4    7.10    8.30
  10 -10  -4   -2.70    8.40
 -10 -10   4   -4.70    6.90
 -10  10   3   13.10   10.00
  10  10  -3    4.00    6.60
 -10 -10   3   17.20    8.00
  10 -10  -3    3.10    9.40
 -10  10   2  -16.20    8.00
  10  10  -2   -2.90    6.00
  10 -10  -2    3.80    9.30
 -10 -10   2   -3.60    6.20
 -10  10   1   -0.80    9.60
  10  10  -1    5.60    7.30
 -10 -10   1    4.00    7.30
  10 -10  -1    2.70    9.50
  10  10   0   17.80    8.00
 -10  10   0   24.30   11.90
  10 -10   0   41.20   13.90
 -10 -10   0   14.00    8.40
  10  11  -5   -2.20    6.60
 -10  11   5   -4.30    8.20
 -10 -11   5   -6.80    7.80
  10  11  -4   20.10    8.60
 -10 -11   4   33.60   10.70
 -10 -11   3    1.10    7.40
 -11   0  15    2.60    9.30
  11   0 -15   14.70   10.00
 -11   0  14   13.90   12.60
  11   0 -14    1.00    8.70
 -11   0  13   -6.30    7.50
  11   0 -13  -10.50    7.10
 -11   0  12    0.90    7.50
  11   0 -12    0.70    9.20
 -11   0  11   13.50    8.80
  11   0 -11    9.80    7.20
  11   0 -10   99.69   18.50
 -11   0  10   75.29   16.30
 -11   0   9    0.80    7.50
  11   0  -9   -2.90    5.60
  11   0  -8   13.00   13.30
 -11   0   8   38.90   10.40
 -11   0   7   -7.70    6.30
  11   0  -7   -7.30    5.00
  11   0  -6   19.10    8.50
 -11   0   6    4.20    7.40
  11   0  -5    6.00    6.60
 -11   0   5    0.80    6.40
 -11   0   4    2.20    7.10
  11   0  -4    7.30    6.10
 -11   0   3    5.90    7.60
  11   0  -3   -2.60    5.30
 -11   0   2  126.59   24.60
  11   0  -2  192.38   26.90
 -11   0   1  -11.80    6.00
  11   0  -1   -3.10    6.10
  11   0   0   64.79   13.90
 -11   0   0   69.59   14.20
 -11   0  -1   -4.00    7.50
  11   0   1    1.90    6.80
  11   0   2  170.38   27.30
 -11   0  -2  141.79   27.00
 -11   0  -3    8.70   10.20
  11   0   3   -1.70    6.60
  11   0   4   82.09   17.50
 -11   0  -4   61.29   16.60
 -11   0  -5   -1.30   10.20
  11   0   5   -6.80    7.50
  11   0   6    1.90    9.90
 -11   0  -6   11.80   12.10
  11   1 -15   45.90   14.30
 -11   1  15   38.40   13.20
 -11  -1  15   36.20   12.40
  11  -1 -15   35.40   12.90
 -11   1  14   18.70    9.70
  11   1 -14    2.40    9.90
 -11  -1  14   11.30    9.60
  11  -1 -14    1.40    9.20
  11   1 -13   42.10   14.20
 -11   1  13   33.50   13.00
 -11  -1  13   61.19   13.30
  11  -1 -13   57.69   13.80
  11   1 -12    0.90    7.10
 -11   1  12    3.60    7.20
  11  -1 -12   16.80    8.50
 -11  -1  12   -8.50    6.50
  11   1 -11    4.30    7.10
 -11   1  11   -3.70    6.80
  11  -1 -11   -5.00    6.90
 -11  -1  11   -8.60    6.70
 -11   1  10   -2.10    7.10
  11   1 -10   -7.10    5.80
  11  -1 -10    6.50    6.60
 -11  -1  10    3.70    7.10
  11   1  -9   58.49   14.60
 -11   1   9   57.59   14.00
 -11  -1   9   69.39   14.40
  11  -1  -9   71.59   14.70
 -11   1   8   18.10    8.70
  11   1  -8   27.90    8.70
  11  -1  -8   21.10    9.20
 -11  -1   8   30.60    9.40
 -11   1   7  166.38   27.80
  11   1  -7  173.88   28.10
  11  -1  -7  161.98   33.80
 -11  -1   7  156.98   27.50
  11   1  -6    6.30    6.20
 -11   1   6   -3.00    6.50
  11  -1  -6   19.30    7.00
 -11  -1   6   -2.20    6.80
 -11   1   5   71.89   12.80
  11   1  -5   38.70   10.70
  11  -1  -5   58.89   11.80
 -11  -1   5   33.60   10.50
 -11   1   4    0.80    6.80
  11   1  -4   -0.70    5.60
 -11  -1   4    6.70    6.40
  11  -1  -4   -3.10    5.80
  11   1  -3  267.37   41.20
 -11  -1   3  254.57   40.90
  11  -1  -3  288.17   41.20
  11   1  -2   15.50    7.40
 -11   1   2   -0.20    7.30
  11  -1  -2    6.90    7.50
 -11  -1   2    9.70    7.50
 -11   1   1   -3.20    7.70
  11   1  -1   -2.30    5.40
 -11  -1   1    1.50    7.10
  11  -1  -1   -8.00    5.80
 -11   1   0  -10.70    5.90
  11   1   0   -1.60    6.10
  11  -1   0   -7.00    6.00
 -11  -1   0    4.90    8.00
 -11   1  -1   -2.80    7.20
  11   1   1    6.60    7.10
 -11  -1  -1    0.20    8.00
  11  -1   1  -15.10    5.80
  11   1   2    0.90    6.50
 -11   1  -2    4.10    8.70
  11  -1   2    5.20    7.70
 -11  -1  -2   10.00    8.90
 -11   1  -3   25.60   10.90
  11   1   3   10.80    7.90
 -11  -1  -3   28.00   10.50
  11  -1   3   21.50    9.40
 -11   1  -4    0.40   10.50
  11   1   4   -2.80    6.90
 -11  -1  -4    4.40   10.20
  11  -1   4   -3.30    6.90
 -11   1  -5    9.80   11.20
  11   1   5   -8.10    8.60
 -11  -1  -5   13.80   10.70
  11  -1   5   25.00   11.10
  11   1   6    2.30    8.40
 -11   1  -6    4.10   11.30
  11  -1   6    1.60   10.80
  11   2 -15   -1.20   12.50
 -11   2  15    1.80    8.40
  11  -2 -15   23.90   11.10
 -11  -2  15    1.80    8.80
  11   2 -14   29.90   12.90
 -11   2  14   17.30   10.00
 -11  -2  14   18.10   10.50
  11  -2 -14   36.00   11.00
  11   2 -13    1.80    8.80
 -11   2  13    3.00    8.40
  11  -2 -13    6.70   10.80
 -11  -2  13   -6.40    7.10
 -11   2  12   20.30    9.40
  11   2 -12   16.60    9.40
  11  -2 -12   15.50    9.20
 -11  -2  12   15.00    8.80
  11   2 -11   12.30    8.10
 -11   2  11    6.20    7.90
 -11  -2  11   13.90    8.80
  11  -2 -11   18.90    8.80
  11   2 -10  149.79   26.00
 -11   2  10  120.29   24.70
  11  -2 -10  181.98   26.60
 -11  -2  10  156.38   26.70
 -11   2   9   44.50   12.30
  11   2  -9   64.99   12.90
 -11  -2   9   37.70   11.50
  11  -2  -9   54.99   12.90
  11   2  -8  136.69   22.00
 -11   2   8   95.69   20.70
  11  -2  -8  118.99   21.10
 -11  -2   8  121.69   21.30
 -11   2   7    7.80    8.00
  11   2  -7   21.70    8.10
 -11  -2   7   11.50    7.50
  11  -2  -7   23.20    8.70
  11   2  -6   40.00   10.20
 -11   2   6   45.90   11.60
  11  -2  -6   36.70   10.10
 -11  -2   6   28.70    9.40
 -11   2   5   10.30    7.60
  11   2  -5    9.10    6.80
  11  -2  -5   -2.10    6.80
 -11  -2   5   18.90    7.30
  11   2  -4   -3.00    6.20
 -11   2   4   -5.10    6.30
 -11  -2   4    0.40    6.20
  11  -2  -4   -6.60    5.10
 -11   2   3   50.99   12.00
  11   2  -3   69.09   12.40
  11  -2  -3   44.90   11.70
 -11  -2   3   47.10   11.30
  11   2  -2   18.00    8.60
 -11   2   2   14.00    9.40
 -11  -2   2   16.90    7.80
  11  -2  -2   17.70    7.80
 -11   2   1    0.90    7.20
  11   2  -1   -2.50    5.50
 -11  -2   1   -3.70    6.40
  11  -2  -1   -9.00    6.10
  11   2   0   -0.70    6.60
 -11   2   0    7.40    8.10
 -11  -2   0   17.90    8.60
  11  -2   0   17.90    8.50
 -11   2  -1  -12.30    7.20
  11   2   1   -3.70    5.80
  11  -2   1    6.30    7.30
 -11  -2  -1   12.80    8.70
 -11   2  -2  151.38   27.90
  11   2   2  169.68   27.90
  11  -2   2  160.98   27.20
  11   2   3    1.70    6.50
 -11   2  -3    2.80    9.50
  11  -2   3    0.50    7.30
 -11   2  -4   75.69   18.20
  11   2   4   79.99   17.00
  11  -2   4   90.59   19.10
 -11   2  -5   19.20   12.50
  11   2   5    6.30    7.80
  11  -2   5    7.80    9.70
 -11  -2  -5   11.90    9.80
 -11   2  -6   -3.40   11.40
 -11   3  14    0.90    7.80
  11   3 -14  -14.50    7.70
  11  -3 -14   11.70    8.60
 -11  -3  14    3.30    8.80
 -11   3  13   21.10   10.20
  11   3 -13   36.40   12.70
  11  -3 -13   41.20   11.90
 -11  -3  13   46.20   12.30
  11   3 -12   -7.90    7.70
 -11   3  12   -0.40    7.90
 -11  -3  12   -7.00    7.50
  11  -3 -12   11.90    8.90
 -11   3  11   15.80    8.40
  11   3 -11    4.20    7.70
 -11  -3  11    0.10    7.20
  11  -3 -11    4.10    7.60
  11   3 -10    9.20    9.40
 -11   3  10   21.10    9.20
 -11  -3  10    8.90    7.70
  11  -3 -10   24.40   10.20
  11   3  -9   44.90   10.80
 -11   3   9   51.89   11.50
 -11  -3   9    8.20    8.40
  11  -3  -9   40.90   10.00
  11   3  -8   -3.50    5.80
 -11   3   8   -5.00    6.50
 -11  -3   8    1.70    7.70
  11  -3  -8   12.40    6.70
  11   3  -7  123.89   23.20
 -11   3   7  126.59   22.60
  11  -3  -7  129.59   22.60
 -11  -3   7  133.69   23.10
  11   3  -6    3.20    6.30
 -11   3   6   -1.10    6.70
  11  -3  -6   -4.00    5.60
 -11  -3   6    0.80    5.70
 -11   3   5   50.69   12.00
  11   3  -5   50.59   11.90
  11  -3  -5   64.89   13.00
 -11  -3   5   47.00   12.30
 -11   3   4    3.30    7.50
  11   3  -4    2.60    6.20
 -11  -3   4    7.10    7.40
  11   3  -3  414.16   58.19
  11  -3  -3  372.16   58.09
  11   3  -2  -12.90    5.40
 -11   3   2    0.50    8.20
 -11  -3   2   -4.60    5.90
  11  -3  -2   -7.40    5.60
 -11   3   1   -1.80    6.90
  11   3  -1   14.90    7.30
 -11  -3   1    5.60    6.90
  11  -3  -1    3.40    6.70
  11   3   0    4.40    6.70
 -11   3   0    5.90    7.90
  11  -3   0    8.40    6.90
 -11  -3   0    4.00    7.30
 -11   3  -1    5.50    9.20
  11   3   1    8.30    6.90
  11  -3   1   -1.70    6.70
 -11   3  -2    8.30    8.80
  11   3   2    8.30    7.20
 -11  -3  -2    0.80    5.50
  11  -3   2   17.20    9.10
  11   3   3   12.50    7.40
 -11   3  -3    7.90   12.50
 -11  -3  -3    3.50    9.30
  11  -3   3    2.90    7.00
  11   3   4    9.80    7.60
 -11   3  -4    5.10   10.50
 -11  -3  -4    0.80    9.00
  11  -3   4   -5.30    8.80
 -11   3  -5    6.40   10.60
  11   3   5   -2.60    7.10
 -11  -3  -5  -12.50   10.20
  11  -3   5    3.10   10.20
  11   4 -14   -2.70    8.50
 -11   4  14    8.70    8.90
 -11  -4  14    2.20    9.60
  11   4 -13   -5.70    8.10
 -11   4  13   -1.60    8.10
  11  -4 -13   -5.10    8.90
 -11  -4  13   12.10    9.30
  11   4 -12    9.20    7.90
 -11   4  12    0.60    8.00
  11  -4 -12    7.90    8.70
 -11  -4  12   18.90    8.50
 -11   4  11    7.40    8.10
  11   4 -11   -0.20    7.60
 -11  -4  11   -4.60    6.70
  11  -4 -11   -5.60    7.00
  11   4 -10   36.00   10.70
 -11   4  10   26.70   10.20
  11  -4 -10   51.59   11.50
 -11  -4  10   38.90   11.90
  11   4  -9    8.40    7.40
 -11   4   9   -5.90    6.70
  11  -4  -9    3.30    7.70
 -11  -4   9   -4.40    6.20
 -11   4   8   28.50    9.60
  11   4  -8   29.90   10.00
  11  -4  -8   37.20   10.40
 -11  -4   8   43.10   11.60
  11   4  -7   17.60    7.20
 -11   4   7   10.80    8.10
  11  -4  -7   31.00    9.20
 -11  -4   7    2.60    7.60
 -11   4   6   -6.00    6.20
  11   4  -6  -11.70    5.10
 -11  -4   6    1.60    6.30
  11  -4  -6   -4.70    5.30
  11   4  -5   20.80    7.80
 -11  -4   5    8.20    6.60
  11  -4  -5   27.50    8.80
  11   4  -4    4.80    6.10
 -11   4   4   -7.30    6.80
 -11  -4   4    9.90    7.30
  11  -4  -4    2.50    6.50
 -11   4   3    6.50    7.70
  11   4  -3   -5.50    5.40
 -11  -4   3    3.80    6.80
  11  -4  -3   -1.50    7.10
  11   4  -2  151.08   23.40
 -11   4   2  187.08   25.10
 -11  -4   2   85.19   21.80
  11  -4  -2  156.48   24.30
 -11   4   1    6.80    7.70
  11   4  -1   -4.60    6.50
  11  -4  -1    4.80    7.80
 -11   4   0    4.00    8.10
  11   4   0    4.70    6.40
  11  -4   0    5.10    9.80
 -11  -4   0   -0.20    4.40
 -11   4  -1   22.50   11.10
  11   4   1   22.70    8.70
  11  -4   1   32.70   10.30
 -11  -4  -1   39.10   10.30
  11   4   2   89.69   16.70
 -11   4  -2   94.59   19.30
  11  -4   2   93.59   16.70
 -11  -4  -2   55.29   15.70
  11   4   3   13.40    8.10
 -11   4  -3   19.00   11.20
  11  -4   3   18.30   10.10
 -11  -4  -3   -0.40    9.20
  11   4   4   23.90    9.30
 -11   4  -4    4.30   10.90
  11  -4   4   22.20   11.30
 -11   4  -5   -0.10   11.90
  11   4   5    2.00    7.00
 -11  -4  -5    7.60   12.20
  11  -4   5    7.00   10.20
  11   5 -14   -4.80    8.40
 -11   5  14   -0.60    8.00
 -11  -5  14   -6.90    8.10
  11   5 -13   35.90   12.20
 -11   5  13   23.70   10.40
 -11  -5  13   34.60   11.50
  11  -5 -13   35.30   11.90
  11   5 -12    9.80    8.80
 -11   5  12   12.60    8.90
 -11  -5  12   36.70   11.50
  11  -5 -12   10.60    8.40
  11   5 -11   25.40   13.10
 -11   5  11   36.10   11.10
 -11  -5  11   38.10   11.20
  11  -5 -11   38.60   13.00
 -11   5  10   -4.80    7.20
  11   5 -10    9.00    7.80
 -11  -5  10   18.60    9.10
  11  -5 -10   17.80    8.80
 -11   5   9   71.99   19.40
  11   5  -9  115.39   21.00
 -11  -5   9  132.69   22.40
  11  -5  -9  213.08   25.10
 -11   5   8   -2.50    6.50
  11   5  -8   -6.80    5.80
  11  -5  -8    5.40    6.90
 -11  -5   8    6.50    7.20
 -11   5   7   27.50    9.70
  11   5  -7   36.00   11.30
  11  -5  -7   50.69   11.40
 -11  -5   7   25.70    9.70
  11   5  -6    8.60    6.40
 -11   5   6    5.60    7.70
  11  -5  -6   10.40    7.50
 -11  -5   6    6.10    7.40
 -11   5   5    0.50    6.90
  11   5  -5    3.20    6.10
  11  -5  -5   -0.20    6.50
 -11  -5   5   12.20    7.70
  11   5  -4   28.50    8.70
 -11   5   4   25.80    9.20
  11  -5  -4   22.30    9.20
 -11  -5   4   14.10    8.30
  11   5  -3   64.89   14.80
 -11   5   3   84.49   15.90
  11  -5  -3   93.09   16.20
 -11  -5   3   70.19   15.20
  11   5  -2    5.10    6.50
 -11   5   2   20.20    9.80
  11  -5  -2   14.30    8.20
 -11   5   1    2.00    7.90
  11   5  -1    6.30    6.40
 -11  -5   1    4.10    6.40
  11  -5  -1   11.60    7.70
  11   5   0   11.40    7.20
 -11   5   0   15.10    9.80
 -11  -5   0   13.60    8.20
  11  -5   0   23.30   10.00
  11   5   1   65.49   13.20
 -11   5  -1   94.49   17.30
 -11  -5  -1   27.90   11.80
  11  -5   1   75.49   15.30
  11   5   2   44.40   11.20
 -11   5  -2   52.19   13.80
  11  -5   2   51.79   14.20
 -11  -5  -2   24.10   11.00
  11   5   3   37.20   10.30
 -11   5  -3   30.40   12.70
  11  -5   3   36.00   12.10
 -11  -5  -3   16.60   10.80
 -11   5  -4    9.30   11.50
  11   5   4    6.20    7.20
  11  -5   4    7.50   11.10
 -11  -5  -4    7.80   10.30
 -11  -5  -5    5.40   10.70
  11   6 -13  -10.00    8.60
 -11   6  13    0.80    7.80
 -11  -6  13    1.70    9.10
  11   6 -12    3.90    8.50
 -11   6  12    0.60    7.80
 -11  -6  12   -4.70    8.20
 -11   6  11   19.50    9.00
  11   6 -11    8.10    8.30
 -11  -6  11   -2.00    7.50
  11  -6 -11   -4.40    8.60
  11   6 -10    2.00    7.40
 -11   6  10    2.50    7.50
  11  -6 -10   11.60    8.10
  11   6  -9    7.50    8.90
 -11   6   9    3.70    8.80
 -11  -6   9   14.70    8.20
  11  -6  -9   16.80    9.20
 -11   6   8    9.20    7.60
  11   6  -8   11.80    7.60
  11  -6  -8   -0.10    7.60
 -11  -6   8   -5.70    6.60
 -11   6   7    5.40    7.90
  11   6  -7   -0.10    6.50
  11  -6  -7   -1.00    6.60
 -11  -6   7    2.00    7.40
  11   6  -6   37.50   11.30
 -11   6   6   48.90   12.40
 -11  -6   6   64.19   13.10
  11  -6  -6   82.69   14.80
 -11   6   5    4.00    7.20
  11   6  -5    9.40    7.20
 -11  -6   5    1.10    6.70
  11  -6  -5   18.80    9.30
  11   6  -4   -1.20    5.60
 -11   6   4    0.20    7.70
 -11  -6   4    3.60    6.40
  11  -6  -4    0.50    6.80
  11   6  -3   -7.20    5.10
 -11   6   3   17.60    8.70
  11  -6  -3   -2.30    6.60
  11   6  -2   10.40    7.20
 -11   6   2   12.30    8.70
 -11  -6   2   15.60    7.40
  11  -6  -2   13.80    8.60
  11   6  -1    8.70    6.80
 -11   6   1    0.80    8.60
 -11  -6   1    4.70    7.10
  11  -6  -1   13.60    8.80
  11   6   0    2.00    7.10
 -11   6   0   38.00   11.50
 -11  -6   0   15.90    9.00
  11  -6   0   38.80   11.80
  11   6   1   -2.00    6.20
 -11  -6  -1    6.80    8.70
  11  -6   1    5.80    7.10
 -11   6  -2    8.40   10.60
  11   6   2    4.60    6.90
  11  -6   2   18.90   10.70
 -11  -6  -2   18.50    9.20
  11   6   3   10.90    7.40
 -11   6  -3    8.60   11.00
 -11  -6  -3    8.50   10.00
  11  -6   3   18.10   12.40
  11   6   4    9.00    7.10
 -11   6  -4    3.40   11.40
  11  -6   4    7.60   12.00
 -11  -6  -4    2.70    9.40
 -11   7  12    0.60    7.40
  11   7 -12    7.60    9.70
 -11  -7  12    9.60    9.20
  11   7 -11  -12.50    7.10
 -11   7  11   11.90    8.30
 -11  -7  11  -13.80    7.40
  11   7 -10   21.10   10.50
 -11   7  10    6.40    8.60
  11  -7 -10   14.50    9.60
 -11  -7  10   15.10    9.40
 -11   7   9   17.90    9.00
  11   7  -9   41.10   10.90
 -11  -7   9   31.30   10.10
  11  -7  -9   27.80   10.60
  11   7  -8    2.20    7.00
 -11   7   8   -0.90    6.70
 -11  -7   8   13.30    8.30
  11  -7  -8   28.30   15.20
  11   7  -7   -0.50    6.50
 -11   7   7    4.20    7.80
 -11  -7   7   10.40    8.20
  11  -7  -7    4.70    7.60
 -11   7   6   10.30    8.60
  11   7  -6    6.70    7.10
  11  -7  -6   -2.90    7.50
 -11  -7   6   -2.90    6.90
 -11   7   5   15.40    9.40
  11   7  -5   22.80    8.50
 -11  -7   5   18.90    8.50
  11  -7  -5   32.00   10.30
 -11   7   4    3.40    8.10
  11   7  -4   11.40    6.90
  11  -7  -4   23.70    9.30
 -11   7   3   83.69   15.20
  11   7  -3   43.20   12.00
 -11  -7   3   31.50   12.00
  11  -7  -3  103.49   16.30
  11   7  -2    5.70    6.60
 -11   7   2   24.60    9.90
  11  -7  -2    3.60    7.70
 -11  -7   2    9.50    8.10
  11   7  -1    4.60    6.80
 -11   7   1    4.80    9.10
  11  -7  -1   14.10    7.80
 -11  -7   1   15.30    8.40
 -11   7   0   23.30   11.00
  11   7   0   30.40    9.80
  11  -7   0   22.40   10.10
 -11  -7   0   -0.70    7.70
 -11   7  -1    4.50   10.50
  11   7   1   14.20    7.60
  11  -7   1   -1.80    8.50
 -11  -7  -1    3.20    8.50
 -11   7  -2   12.00   11.10
  11   7   2  -10.90    5.70
  11  -7   2   -1.20    9.30
 -11  -7  -2   -2.20    8.10
  11   7   3   27.00    9.10
 -11   7  -3    8.60   11.40
 -11  -7  -3    7.60    9.30
  11  -7   3   25.00   12.40
  11   8 -11   11.20    8.80
 -11   8  11   15.00    8.90
  11   8 -10   -0.70    8.30
 -11   8  10   -5.80    6.60
 -11  -8  10    4.40    8.00
  11   8  -9    2.10    7.10
 -11   8   9   -5.60    6.60
 -11  -8   9    1.50    7.70
 -11   8   8   15.20    8.40
  11   8  -8   12.30    7.70
  11  -8  -8   32.90   11.20
 -11  -8   8    8.30    9.10
  11   8  -7    7.60    7.00
 -11   8   7   -5.40    7.00
  11  -8  -7   12.70    9.40
 -11  -8   7    0.10    7.60
 -11   8   6    4.40    8.10
 -11  -8   6   -6.00    6.90
  11  -8  -6   -7.80    8.30
  11   8  -5   -1.20    6.30
 -11   8   5   12.60   10.00
  11  -8  -5   -1.20    8.00
 -11   8   4    5.00    8.60
  11   8  -4   -2.20    6.00
 -11  -8   4    8.60    7.90
  11  -8  -4   -3.00    7.90
  11   8  -3   -2.30    6.40
 -11   8   3   -0.60    8.20
  11  -8  -3   -1.10    8.10
 -11  -8   3   -0.10    7.80
 -11   8   2    2.90    8.20
  11   8  -2    6.10    7.00
 -11  -8   2    7.20    7.90
  11  -8  -2   11.80    7.60
  11   8  -1   17.30    7.90
 -11   8   1   -6.10    9.10
  11  -8  -1    7.30    9.50
 -11  -8   1   -4.10    7.30
  11   8   0    6.70    6.90
  11  -8   0   -0.10    8.60
 -11  -8   0   -6.10    8.00
 -11   8  -1   14.60   11.60
  11   8   1    1.30    6.80
 -11  -8  -1    1.90    7.80
  11  -8   1    0.60   10.40
  11   8   2    3.30    6.80
 -11   8  -2   10.60   12.20
  11  -8   2   -1.80    9.90
 -11  -8  -2   -2.60    8.50
  11   9 -10   -0.30    7.80
 -11   9  10    1.90    7.40
 -11  -9  10   -0.90    8.60
 -11   9   9   70.49   16.40
  11   9  -9   94.89   19.30
 -11  -9   9  117.79   20.50
  11   9  -8    4.10    7.20
 -11   9   8    3.10    7.00
 -11  -9   8    6.70    8.60
 -11   9   7   -6.90    7.30
  11   9  -7   -0.80    7.10
 -11  -9   7    5.70    8.20
  11  -9  -7   -5.30    8.20
 -11   9   6   -9.20    7.50
  11   9  -6   -1.80    5.80
  11  -9  -6    4.70    8.90
  11   9  -5   -4.90    5.70
 -11   9   5  -12.60    6.90
 -11  -9   5    2.30    7.30
  11  -9  -5   -5.00    8.30
  11   9  -4    5.80    7.00
 -11   9   4   -0.40    9.20
  11  -9  -4   -0.50    9.30
 -11  -9   4   -8.20    7.30
  11   9  -3    1.70    6.20
 -11   9   3    6.70    8.60
 -11  -9   3   -1.10    7.30
  11  -9  -3   -6.70    7.10
 -11   9   2   -1.00    9.30
  11   9  -2    9.90    7.30
  11  -9  -2    2.10    8.40
 -11  -9   2    4.20    7.70
 -11   9   1   -0.40   10.40
  11   9  -1   14.20    8.10
 -11  -9   1    8.20    8.10
  11  -9  -1    8.00   10.50
 -11   9   0   10.30   12.50
  11   9   0    2.20    6.90
 -11  -9   0    3.20    8.20
  11  -9   0   16.80   10.30
 -11  -9  -1    5.30    8.50
  11  10  -7   14.60    8.10
 -11  10   7    8.10    8.40
  11  10  -6    5.80    7.20
 -11  10   6    0.90    8.30
 -11 -10   6   -0.30    7.80
 -11  10   5   -4.90    8.40
  11  10  -5    2.90    7.00
 -11 -10   5  -10.40    7.50
 -11  10   4    8.70    8.60
  11  10  -4    8.90    7.20
 -11 -10   4   13.40    8.70
  11 -10  -4    2.00   10.00
 -11  10   3   -0.80    8.80
  11  10  -3    2.80    7.10
  11 -10  -3    4.80   10.20
 -11 -10   3    4.80    7.80
  11  10  -2   -7.90    6.00
 -11  10   2  -19.00    9.10
 -11 -10   2   -4.00    8.00
 -12   0  15   -2.90    8.60
 -12   0  14    1.00    8.70
  12   0 -13   10.90    9.60
 -12   0  13   -2.50    9.00
  12   0 -12    6.00    8.50
 -12   0  12   31.00    9.90
 -12   0  11   -8.30    7.00
  12   0 -11   13.40    8.50
 -12   0  10  166.38   30.20
  12   0 -10  202.38   31.10
  12   0  -9   -1.60    6.90
 -12   0   9   -1.40    7.20
  12   0  -8   30.70    9.20
 -12   0   8   25.10    9.60
 -12   0   7    1.50    7.30
  12   0  -7   -5.00    6.60
  12   0  -6  321.67   48.50
 -12   0   5   11.50    8.10
  12   0  -5    0.90    6.50
 -12   0   4   67.49   15.70
  12   0  -4  107.69   17.70
  12   0  -3    2.80    5.70
 -12   0   3   -0.40    6.60
  12   0  -2   35.90   10.80
 -12   0   2   30.00   10.00
  12   0  -1   -0.30    6.70
 -12   0   1    1.40    7.40
 -12   0   0   17.40    8.70
  12   0   0   26.70    9.90
  12   0   1   -6.60    6.10
 -12   0  -1   12.50    9.90
 -12   0  -2  -10.10    8.30
  12   0   2    4.90    7.90
 -12   0  -3   -1.00    9.10
  12   0   3    9.10    8.70
 -12   0  -4    4.30   11.30
  12   0   4   19.10   10.30
 -12   0  -5    7.80   11.50
  12   1 -14    2.80    8.90
 -12   1  14    3.90    8.80
 -12  -1  14   -3.90    8.30
  12  -1 -14    0.10    9.00
  12   1 -13   60.89   13.80
 -12   1  13   28.30   11.20
 -12  -1  13   20.10   10.10
  12  -1 -13   25.30   11.50
  12   1 -12   41.00   11.90
 -12   1  12   27.60   10.50
  12  -1 -12   36.50   11.90
 -12  -1  12   34.60   11.00
 -12   1  11   -6.60    6.20
  12   1 -11    4.70    8.40
 -12  -1  11  -10.70    6.80
  12  -1 -11   -1.90    7.20
 -12   1  10    4.70    8.60
  12   1 -10    6.70    8.60
 -12  -1  10    1.20    7.80
  12  -1 -10   13.70    9.10
  12   1  -9   -1.50    6.60
 -12   1   9   -9.00    7.00
  12  -1  -9    9.30    7.50
 -12  -1   9    7.20    8.50
 -12   1   8    9.20    7.40
  12   1  -8   19.40    8.20
  12  -1  -8    2.40    6.80
 -12  -1   8    2.90    7.50
 -12   1   7   -4.70    7.80
  12   1  -7   -2.20    6.30
 -12  -1   7   -2.60    7.20
  12  -1  -7   -0.90    5.90
  12   1  -6   -9.20    5.80
 -12   1   6   -2.20    6.40
  12  -1  -6   -0.90    5.70
 -12   1   5   48.40   12.10
  12   1  -5   24.40    9.50
 -12  -1   5   35.90   10.40
  12  -1  -5   60.39   13.30
 -12   1   4   25.80    9.60
  12   1  -4   29.60    9.50
  12  -1  -4   39.30   10.00
 -12  -1   4   30.30    9.30
 -12   1   3   -3.10   12.80
  12   1  -3   11.00    8.00
 -12  -1   3    4.90    7.60
  12  -1  -3   16.70    7.50
  12   1  -2   24.10   10.40
 -12   1   2   31.00   10.10
 -12  -1   2   32.30   10.00
  12  -1  -2   28.00    9.00
  12   1  -1   10.00    8.10
 -12   1   1   -1.10    8.10
 -12  -1   1   10.60    8.00
  12  -1  -1    9.50    7.60
  12   1   0   10.30    8.00
 -12   1   0   -5.50    7.60
  12  -1   0   -5.00    7.10
 -12  -1   0    1.30    7.60
  12   1   1   63.89   13.30
 -12   1  -1   22.50   10.60
  12  -1   1   54.59   12.30
 -12  -1  -1   15.70    9.70
 -12   1  -2   13.30    9.50
  12   1   2    4.20    7.50
  12  -1   2   -1.90    7.00
 -12  -1  -2    1.50    9.60
  12   1   3   33.60   10.90
 -12   1  -3   24.60   11.40
 -12  -1  -3    0.20    9.70
  12  -1   3   32.60   11.00
  12   1   4   13.30    8.20
 -12   1  -4   11.40   11.50
  12  -1   4   -5.70    7.30
 -12  -1  -4   -6.20   10.60
  12   2 -14    0.80    9.30
 -12   2  14    8.90   10.10
  12  -2 -14    6.60    9.20
 -12  -2  14    7.80    9.70
 -12   2  13    3.10    8.70
  12   2 -13    6.00    8.80
 -12  -2  13   -0.90    7.30
  12  -2 -13   -0.40    8.70
 -12   2  12  128.09   23.70
  12   2 -12  144.99   24.90
  12  -2 -12  132.59   24.10
 -12  -2  12  105.69   22.40
 -12   2  11   -1.30    7.40
  12   2 -11    6.20    8.20
  12  -2 -11   -1.10    8.40
 -12  -2  11    0.50    7.30
  12   2 -10  285.07   44.70
  12  -2 -10  294.67   44.70
 -12   2   9   -1.70    6.80
  12   2  -9   12.00    8.50
 -12  -2   9   -3.60    6.40
  12  -2  -9    5.20    7.10
 -12   2   8   -7.50    6.10
  12   2  -8   -3.70    6.30
  12  -2  -8    1.70    6.30
 -12  -2   8    2.40    7.80
  12   2  -7    8.40    7.00
 -12   2   7   -2.70    7.00
  12  -2  -7   -1.10    7.00
  12   2  -6  106.29   17.10
 -12   2   6   76.39   16.50
 -12  -2   6   62.89   15.90
  12  -2  -6  114.09   18.40
  12   2  -5    5.30    6.90
 -12   2   5    4.80    6.70
  12  -2  -5   -0.70    8.00
 -12  -2   5    5.10    6.60
 -12   2   4   16.40    8.50
  12   2  -4   17.80    7.60
  12  -2  -4    3.40    6.80
 -12  -2   4   10.50    7.40
 -12   2   3    4.30    8.10
  12   2  -3   11.30    8.30
 -12  -2   3   14.80    8.80
  12  -2  -3   17.30    9.70
  12   2  -2   73.29   15.00
 -12   2   2   47.80   13.30
  12  -2  -2   78.39   14.80
 -12  -2   2   68.59   14.10
  12   2  -1   21.50    8.70
 -12   2   1   26.20    9.60
  12  -2  -1   30.60   10.40
 -12  -2   1   19.80    9.00
  12   2   0   61.29   12.70
 -12   2   0   21.50   12.60
 -12  -2   0   37.60   12.10
  12  -2   0   80.69   14.30
  12   2   1   48.80   11.60
 -12   2  -1   21.50   10.40
 -12  -2  -1    9.60    9.50
  12  -2   1   19.60    9.90
  12   2   2    6.80    7.30
 -12   2  -2   -6.90    8.80
 -12  -2  -2    0.60    8.90
  12  -2   2    4.50    7.90
  12   2   3   -8.70    6.30
 -12   2  -3   -8.20    9.60
  12  -2   3    1.40    8.30
 -12   2  -4   -4.60   11.60
  12   2   4    2.30    7.70
  12  -2   4    5.50   10.50
  12   3 -14    2.20   10.70
 -12   3  14   -6.90    8.70
  12  -3 -14    0.40    9.80
 -12  -3  14   -9.20    8.30
 -12   3  13   33.70   11.70
  12   3 -13   18.50   10.80
  12  -3 -13   44.40   13.50
 -12  -3  13   31.10   11.20
  12   3 -12   -5.50    9.10
 -12   3  12   17.00   11.10
 -12  -3  12   21.20   10.90
  12  -3 -12   50.09   14.60
  12   3 -11   -1.10    8.60
 -12   3  11   -9.20    7.10
  12  -3 -11   -1.10    7.60
 -12  -3  11    3.80    8.10
  12   3 -10   16.40   11.30
 -12   3  10   12.70    8.60
  12  -3 -10   16.50    8.70
 -12  -3  10    5.60    8.70
 -12   3   9   26.30    9.80
  12   3  -9    2.00    7.00
 -12  -3   9    7.60    8.80
  12  -3  -9    7.50    7.40
  12   3  -8   55.19   12.10
 -12   3   8   28.00   12.00
  12  -3  -8   43.40   12.00
 -12  -3   8   45.00   12.90
  12   3  -7   16.80    8.10
 -12   3   7   11.00    8.10
  12  -3  -7   30.50    9.40
 -12  -3   7    5.10    6.90
 -12   3   6   -1.00    7.00
  12   3  -6    8.90    6.70
  12  -3  -6    5.90    7.10
 -12  -3   6   -3.70    6.50
  12   3  -5   85.99   15.40
 -12   3   5   65.69   14.30
 -12  -3   5   43.60   12.90
  12  -3  -5  101.59   16.50
 -12   3   4   28.60    9.70
  12   3  -4   16.20    7.00
 -12  -3   4    6.60    7.20
  12  -3  -4   31.40    9.60
 -12   3   3   22.10   10.60
  12   3  -3   71.99   12.30
 -12  -3   3   37.50   10.60
  12  -3  -3   32.00   10.90
  12   3  -2   -2.50    6.10
 -12   3   2   -2.20    7.90
 -12  -3   2    3.50    7.60
  12  -3  -2   -3.70    7.10
 -12   3   1   44.10   11.90
  12   3  -1   36.80   10.90
 -12  -3   1   31.90   11.00
  12  -3  -1   61.89   12.40
  12   3   0   19.60   11.40
 -12   3   0    5.80    8.80
  12  -3   0    2.20    7.00
 -12  -3   0    6.90    8.30
 -12   3  -1    4.60    9.00
  12   3   1    8.80    7.30
  12  -3   1    4.30    7.60
  12   3   2   10.90    7.70
 -12   3  -2   12.20   10.20
  12  -3   2   20.10    9.10
 -12  -3  -2   -1.40    6.50
  12   3   3    2.40    7.80
 -12   3  -3  -14.60    9.50
 -12  -3  -3   14.70   10.20
  12  -3   3    0.50    8.70
  12   3   4    4.30    7.40
 -12   3  -4   22.90   14.20
 -12  -3  -4   -7.70   10.90
  12  -3   4   -2.90    9.40
  12   4 -14    3.20   10.30
 -12   4  14   -8.00    7.80
 -12  -4  14    8.10   10.20
  12   4 -13    6.80    9.20
 -12   4  13    4.20    8.40
 -12  -4  13    6.00    8.90
  12  -4 -13   -3.90    8.50
  12   4 -12   41.50   12.60
 -12   4  12   18.70    9.50
  12  -4 -12    4.30    8.20
 -12  -4  12    2.90    8.60
 -12   4  11   11.00   13.90
  12   4 -11    3.80    9.00
  12  -4 -11   17.80    8.70
 -12  -4  11    0.30    8.20
  12   4 -10   48.00   13.70
  12  -4 -10  131.99   18.90
 -12  -4  10   56.79   14.40
 -12   4   9   -9.70    6.40
  12   4  -9   -4.30    6.40
  12  -4  -9    7.10    8.10
 -12  -4   9    1.10    8.10
  12   4  -8   -6.10    5.90
 -12   4   8   -2.80    7.20
  12  -4  -8    7.00    8.30
 -12  -4   8    4.80    7.50
 -12   4   7   -7.80    6.60
  12   4  -7    0.10    6.00
 -12  -4   7    5.10    7.40
  12  -4  -7    2.50    7.30
 -12   4   6  101.69   21.00
  12   4  -6  111.09   21.00
 -12  -4   6  126.99   22.30
  12  -4  -6  178.38   23.90
  12   4  -5   -5.70    6.20
 -12   4   5   -0.30    6.50
 -12  -4   5    1.20    7.10
  12  -4  -5  -10.80    6.30
  12   4  -4   36.70   11.10
 -12   4   4   59.09   13.00
 -12  -4   4   32.20   10.10
  12  -4  -4   40.10   10.80
  12   4  -3   11.10    7.60
 -12   4   3   11.30    9.40
  12  -4  -3   -2.10    6.80
 -12  -4   3   -4.50    6.70
  12   4  -2   24.10    8.70
 -12   4   2   17.50   10.50
 -12  -4   2    8.30    7.70
  12  -4  -2   25.80   10.00
 -12   4   1    3.20    8.30
  12   4  -1   10.20    7.60
  12  -4  -1    2.40    7.20
  12   4   0   91.39   17.80
 -12   4   0   64.99   18.30
  12  -4   0  130.79   20.80
 -12   4  -1   53.89   13.80
  12   4   1   45.10   11.60
 -12  -4  -1   30.90   11.30
  12  -4   1   48.60   12.20
 -12   4  -2    0.10   10.00
  12   4   2   22.10    9.10
 -12  -4  -2   -1.00    9.60
  12  -4   2    4.70    7.60
  12   4   3   12.60    8.90
 -12   4  -3   13.70   11.90
  12  -4   3    7.20   10.20
 -12  -4  -3    5.80   10.00
 -12   4  -4    1.00   13.40
 -12  -4  -4   -5.70    9.80
 -12   5  13    5.70    8.50
  12   5 -13   15.80   10.80
 -12  -5  13    8.40    9.40
 -12   5  12    6.50    9.10
  12   5 -12    9.10    9.20
  12  -5 -12    3.90    9.20
 -12  -5  12   -1.30    8.40
  12   5 -11   15.30   15.80
 -12   5  11    6.00    8.00
 -12  -5  11   11.70    8.90
  12  -5 -11    9.30    9.10
 -12   5  10   27.30   10.60
  12   5 -10    3.50    7.40
 -12  -5  10   -2.00    7.40
  12  -5 -10   14.00   10.50
 -12   5   9    9.90    8.40
  12   5  -9   14.20    7.90
  12  -5  -9    9.60    8.60
 -12  -5   9   17.40    8.30
 -12   5   8    3.80    7.70
  12   5  -8   -0.50    6.80
 -12  -5   8    5.70    7.40
  12  -5  -8    8.00    7.80
  12   5  -7    9.50    7.80
 -12   5   7   13.20    8.00
  12  -5  -7  -11.30    6.30
 -12  -5   7  -10.00    6.10
  12   5  -6   -3.50    5.50
 -12   5   6   -1.80    6.70
 -12  -5   6   10.70    8.40
  12  -5  -6   -0.50    6.50
  12   5  -5    3.70    7.10
 -12   5   5    3.20    7.30
 -12  -5   5   -6.80    6.30
  12  -5  -5    0.50    6.70
 -12   5   4   38.00   11.30
  12   5  -4   18.00    9.00
 -12  -5   4   47.00   11.20
  12  -5  -4   64.49   13.00
  12   5  -3    7.60    8.10
 -12   5   3   -2.00    8.20
  12  -5  -3    1.30    7.40
 -12  -5   3   -3.70    7.10
  12   5  -2   15.80    8.20
 -12   5   2   -1.70    8.30
  12  -5  -2    8.60    8.30
  12   5  -1   16.60    7.90
 -12   5   1   10.50    9.60
  12  -5  -1    8.40    8.30
 -12  -5   1   10.00    6.70
 -12   5   0   31.40   11.10
  12   5   0   13.20    8.30
  12  -5   0   21.80   10.20
  12   5   1   57.89   12.20
 -12   5  -1   66.79   16.00
 -12  -5  -1   24.40   11.50
  12  -5   1   38.20   13.70
  12   5   2   -2.00    6.90
 -12   5  -2   11.40   12.70
 -12  -5  -2   -0.80    9.70
  12  -5   2    4.60    9.70
 -12   5  -3   -6.80   10.90
  12   5   3    8.70    7.80
 -12  -5  -3    3.70    9.70
  12  -5   3   25.20   11.80
  12   6 -12   26.50   11.10
 -12   6  12   32.30   10.90
 -12  -6  12   12.40   10.40
  12   6 -11   30.20   12.30
 -12   6  11   11.60    9.00
  12  -6 -11   42.10   12.10
 -12  -6  11   17.30   10.40
  12   6 -10   -7.70    7.50
 -12   6  10   10.60    8.50
  12  -6 -10   10.30    8.50
  12   6  -9   12.40    9.00
 -12   6   9   14.80    9.80
 -12  -6   9    2.10    7.30
  12  -6  -9   -3.40   14.50
  12   6  -8   -1.90    7.40
 -12   6   8    3.80    8.70
 -12  -6   8   -4.00    6.90
  12  -6  -8   -3.60    7.60
  12   6  -7    3.00    6.90
 -12   6   7   -6.10    7.50
 -12  -6   7   11.90    8.70
  12  -6  -7    6.50    8.20
 -12   6   6   28.40   10.10
  12   6  -6   11.40    8.00
 -12  -6   6    9.30    8.00
  12  -6  -6   17.50    9.20
  12   6  -5  -13.10    5.20
 -12   6   5    9.10    7.80
 -12  -6   5    0.80    7.40
  12  -6  -5    8.90    8.10
  12   6  -4   30.90    9.30
 -12   6   4   11.70    9.20
  12  -6  -4   62.19   12.20
 -12  -6   4   17.20    9.10
 -12   6   3   14.40   10.00
  12   6  -3   14.90    8.10
  12  -6  -3   14.80    8.90
 -12   6   2   54.29   13.70
  12   6  -2   69.59   13.90
  12  -6  -2   66.29   14.20
 -12  -6   2   30.20   11.40
  12   6  -1   -7.00    6.00
 -12   6   1   -2.40    8.20
  12  -6  -1    7.30    9.00
 -12  -6   1   -6.30    7.20
 -12   6   0   43.00   12.50
  12   6   0   26.90    9.50
  12  -6   0   37.80   12.20
 -12  -6   0   22.40   10.50
  12   6   1   28.90    8.80
 -12   6  -1   35.40   14.00
  12  -6   1    7.10    9.30
 -12  -6  -1   12.80    9.20
 -12   6  -2   -1.90   11.20
  12   6   2   -0.10    6.60
 -12  -6  -2   -9.40    8.80
  12  -6   2  -12.30    8.80
 -12  -6  -3   11.70   11.10
 -12   7  11   -2.50    7.70
  12   7 -11    0.50    8.40
 -12  -7  11    6.00    9.00
  12   7 -10    0.40    7.60
 -12   7  10   -0.10    8.30
 -12  -7  10    4.60    8.40
  12  -7 -10   14.20    9.40
 -12   7   9    0.20    8.30
  12   7  -9    8.80    8.00
 -12  -7   9    1.30    8.60
  12  -7  -9   18.50    9.70
  12   7  -8   10.60    8.40
 -12   7   8    8.80    8.50
  12  -7  -8   28.10   10.30
 -12  -7   8    2.50    8.10
 -12   7   7    1.80    8.60
  12   7  -7   15.30    8.00
 -12  -7   7    6.20    8.00
  12   7  -6    1.70    6.30
 -12   7   6   -3.30   14.40
 -12  -7   6    1.70    7.70
  12  -7  -6    5.60    7.60
  12   7  -5   24.30   10.70
 -12   7   5   34.80   11.10
  12  -7  -5   38.00   12.00
 -12  -7   5   23.70   10.00
  12   7  -4   13.40    8.10
 -12   7   4   16.80    9.40
  12  -7  -4   10.50    9.20
 -12   7   3    0.90    9.50
  12   7  -3   10.20    7.80
 -12  -7   3    7.60    7.90
  12  -7  -3   21.20   10.20
 -12   7   2   13.40   10.10
  12   7  -2   14.60    7.60
  12  -7  -2   14.10    9.90
 -12  -7   2   -4.20    7.60
  12   7  -1   11.80    7.30
 -12   7   1   12.30   10.10
  12  -7  -1   13.30   10.30
 -12  -7   1    3.40    8.20
 -12   7   0   24.80   13.40
  12   7   0   22.10    8.80
 -12  -7   0   18.00    9.90
  12  -7   0   11.70    9.10
  12   7   1   -3.10    7.10
 -12   7  -1   -4.90   10.40
 -12  -7  -1   -2.10    9.30
  12  -7   1   -6.00    9.70
 -12  -7  -2    4.30    9.50
  12   8 -10   10.50    8.30
 -12   8  10    2.80    8.20
 -12  -8  10    1.90    9.20
  12   8  -9    2.90    8.00
 -12   8   9   14.50    9.20
 -12  -8   9   17.50    9.40
  12  -8  -9   12.80   11.30
 -12   8   8    1.90    8.10
  12   8  -8    2.60    7.40
  12  -8  -8   13.00    9.60
 -12  -8   8   -0.90    8.00
  12   8  -7    2.70    7.60
 -12   8   7    5.90    7.90
 -12  -8   7    8.20    8.70
  12  -8  -7    3.40    8.60
 -12   8   6   -2.30    7.40
  12   8  -6   12.90    9.30
  12  -8  -6   10.60    9.60
 -12  -8   6   15.20    9.90
 -12   8   5  -10.40    7.90
  12   8  -5   -9.30    5.80
  12  -8  -5   -9.30    8.40
 -12   8   4    9.20   10.70
  12   8  -4   -2.10    6.40
 -12  -8   4   -7.20    7.20
  12  -8  -4   -0.30    9.90
  12   8  -3   -0.20    7.20
 -12   8   3    4.30    9.60
 -12  -8   3    8.40    8.90
  12  -8  -3   19.30   17.40
  12   8  -2   -0.10    6.50
  12  -8  -2   15.10    9.00
 -12  -8   2   -1.00    8.00
  12   8  -1    1.30    7.10
 -12   8   1    5.40   13.80
  12  -8  -1    3.80    9.60
 -12  -8   1   -9.90    8.00
 -12   8   0   48.70   15.50
  12   8   0   63.89   14.10
 -12  -8   0   36.70   13.20
  12  -8   0   79.19   17.00
 -12   9   8   -3.00    7.70
  12   9  -8   -3.20    6.80
 -12  -9   8   -0.40    8.40
  12   9  -7   33.60   11.10
 -12   9   7   30.10   11.50
 -12  -9   7   10.80    9.20
  12   9  -6   -3.70    6.60
 -12   9   6   -6.30    7.90
  12  -9  -6   -2.60    9.10
 -12   9   5    4.20    9.90
  12   9  -5  -10.10    5.90
  12  -9  -5    2.70    9.80
 -12  -9   5   -2.10    8.30
 -12   9   4   39.70   13.40
  12   9  -4   49.60   12.10
 -12  -9   4   18.30   11.10
  12  -9  -4   74.99   15.90
  12   9  -3    9.30    7.70
 -12   9   3   -5.00    9.70
  12  -9  -3   18.60    9.10
 -12  -9   3   -0.20    8.20
 -12   9   2   -5.20   10.10
  12   9  -2    4.00    7.50
 -12  -9   2   -6.10    8.60
  13   0 -14   -5.90    8.60
 -13   0  14   -9.50    9.10
  13   0 -13   -0.20    9.30
 -13   0  13    3.20    9.10
  13   0 -12   61.59   15.10
 -13   0  12   36.00   12.90
 -13   0  11    0.50    8.60
  13   0 -11   -0.20    7.60
  13   0 -10   55.59   12.80
 -13   0  10   24.70   10.50
 -13   0   9   11.50    8.10
  13   0  -9    5.60    8.30
 -13   0   8   62.89   15.70
  13   0  -8   76.59   15.30
 -13   0   7   -6.00    6.90
  13   0  -6   -4.20    6.20
 -13   0   6   10.80    9.00
  13   0  -5    0.50    6.70
 -13   0   5   12.60    8.00
 -13   0   4    5.20   14.20
  13   0  -4    6.50    7.50
 -13   0   3   13.10    8.60
  13   0  -3    3.00    7.10
  13   0  -2    3.20    7.50
 -13   0   2   -3.50    7.40
  13   0  -1    8.70    7.50
 -13   0   1  -19.60    6.80
 -13   0   0   24.60   10.80
  13   0   0   60.89   13.20
 -13   0  -1   -0.40    9.70
  13   0   1    2.10    8.90
  13   0   2    0.80    7.70
 -13   0  -2   17.00   12.80
  13   0   3    5.50    8.50
 -13   0  -3   -9.50    9.70
  13   1 -14   16.30   11.50
 -13   1  14   11.10   10.20
 -13  -1  14   -1.60   12.00
  13  -1 -14    7.90   10.30
  13   1 -13   35.90   12.90
 -13   1  13   43.20   19.50
 -13  -1  13   23.40   11.00
  13  -1 -13   18.00   14.30
 -13   1  12   13.80    9.90
  13   1 -12   38.90   12.60
  13  -1 -12   13.70   10.50
 -13  -1  12   20.90   11.00
 -13   1  11   24.70   10.50
  13   1 -11   40.20   11.40
  13  -1 -11   19.20   11.00
 -13  -1  11   19.00   10.90
 -13   1  10   -4.30    7.90
  13   1 -10   -4.60    6.90
 -13  -1  10    8.00    8.70
  13  -1 -10   -2.30    7.10
  13   1  -9   43.80   12.30
 -13   1   9   51.09   13.30
 -13  -1   9   36.10   12.10
  13  -1  -9   59.29   13.20
 -13   1   8   -1.20    7.40
 -13  -1   8    8.30    7.50
  13  -1  -8    2.70    7.20
 -13   1   7   30.20   11.30
  13   1  -7   10.00    8.50
  13  -1  -7   41.70   11.50
 -13  -1   7   15.20    9.30
  13   1  -6    6.00    6.80
 -13   1   6    3.00    7.40
 -13  -1   6    2.30    8.50
  13  -1  -6    9.20    7.80
 -13   1   5  123.89   25.70
  13   1  -5  195.28   28.30
  13  -1  -5  152.98   25.90
  13   1  -4   47.80   11.80
 -13   1   4   29.10   10.90
  13  -1  -4   42.40   11.20
 -13  -1   4   28.90   10.90
 -13   1   3   87.29   19.50
  13   1  -3  121.19   20.60
 -13  -1   3  102.19   19.70
  13  -1  -3  132.79   21.50
 -13   1   2   51.79   20.50
  13   1  -2   10.10    8.50
  13  -1  -2   33.00   10.00
 -13  -1   2   50.79   11.80
  13   1  -1   56.99   13.10
 -13   1   1   32.80   12.20
 -13  -1   1   36.70   11.70
  13  -1  -1   44.80   12.80
  13   1   0   25.30    9.20
 -13   1   0    7.70    9.50
  13  -1   0   23.50    9.00
 -13  -1   0    4.50    8.50
  13   1   1   -4.50    7.20
 -13   1  -1  -10.60    9.00
 -13  -1  -1   11.30    9.90
  13  -1   1    1.90    7.80
 -13   1  -2   11.90   12.20
  13   1   2   -2.90    7.90
 -13  -1  -2   -1.00   10.30
  13  -1   2   -5.40    8.80
  13   1   3   66.69   15.30
 -13   1  -3   58.59   16.10
 -13  -1  -3   42.70   15.90
  13  -1   3   58.79   15.30
 -13   2  14   -4.70    8.90
  13   2 -14    0.80    9.60
 -13  -2  14   11.20    9.40
  13  -2 -14    2.90    8.90
  13   2 -13   -9.30    9.10
 -13   2  13    0.50    8.80
  13  -2 -13   -0.80    9.30
 -13  -2  13   -3.40    9.00
 -13   2  12    1.70    9.30
  13   2 -12    2.20    8.80
 -13  -2  12    0.50    8.40
  13  -2 -12    2.50    9.50
 -13   2  11   35.60   12.40
  13   2 -11   51.49   13.30
 -13  -2  11   24.60   10.60
  13  -2 -11   42.90   12.60
 -13   2  10   22.60   10.00
  13   2 -10   30.80   11.90
  13  -2 -10   30.30   10.50
 -13  -2  10   14.40   10.30
 -13   2   9    6.70    8.20
  13   2  -9   33.40   11.60
  13  -2  -9   14.80    8.20
 -13  -2   9   13.70    8.70
  13   2  -8    8.30    8.20
 -13   2   8    0.90    7.30
 -13  -2   8    2.40    7.70
  13  -2  -8   -4.10    6.60
  13   2  -7   -2.70    6.80
 -13   2   7   10.30    9.10
 -13  -2   7   -5.50    6.40
  13  -2  -7  -10.10    6.30
 -13   2   6    0.10    7.80
  13   2  -6   27.80    9.20
 -13  -2   6    2.40    7.30
  13  -2  -6    7.70    8.40
  13   2  -5   10.50    8.30
 -13   2   5   21.60    9.30
 -13  -2   5    3.50    7.50
  13  -2  -5   19.30    8.10
 -13   2   4  132.99   24.90
  13   2  -4  196.58   27.30
  13  -2  -4  112.79   25.10
 -13   2   3   -3.60    7.80
  13   2  -3   -2.80    7.00
 -13  -2   3    2.10    7.80
  13  -2  -3    2.50    6.80
 -13   2   2    8.50    9.40
  13   2  -2    2.10    6.80
  13  -2  -2    3.20    7.90
 -13  -2   2   -0.30    7.80
 -13   2   1    3.90   10.90
  13   2  -1   17.10    9.70
 -13  -2   1    9.60    9.60
  13  -2  -1   13.80    9.00
 -13   2   0   -0.40    8.60
  13   2   0    9.30    8.10
  13  -2   0   16.40    8.80
 -13  -2   0    6.20    9.20
 -13   2  -1   11.00   10.80
  13   2   1    5.00    8.10
 -13  -2  -1   -2.50    9.00
  13  -2   1   -5.10    7.40
  13   2   2    8.30    9.30
 -13   2  -2   12.30   11.80
 -13  -2  -2    7.40   10.00
  13  -2   2    7.90    9.20
  13   2   3   -4.20    8.80
 -13   2  -3    8.60   11.10
 -13  -2  -3   15.00   12.00
  13  -2   3   12.00   10.00
 -13   3  14   25.50   12.00
  13   3 -13   24.90   10.90
 -13   3  13   43.90   12.80
 -13  -3  13   21.90   11.80
  13  -3 -13   32.60   11.80
  13   3 -12    4.20    9.70
 -13   3  12  -11.40    7.70
  13  -3 -12    0.20    8.80
 -13  -3  12   19.20   10.20
 -13   3  11    8.10    8.70
  13   3 -11    1.60    8.50
  13  -3 -11    2.70    8.40
 -13  -3  11   14.50    9.50
 -13   3  10   -0.60    7.70
  13   3 -10    4.60    8.60
  13  -3 -10    7.30    8.10
 -13  -3  10    4.80    9.00
  13   3  -9   85.39   15.00
 -13   3   9   25.50   11.30
 -13  -3   9   42.10   13.00
  13  -3  -9  119.79   17.30
 -13   3   8   18.50    9.70
  13   3  -8   35.80   10.50
 -13  -3   8   14.50    8.60
  13  -3  -8   13.90    9.10
  13   3  -7   47.40   13.80
 -13   3   7   84.79   15.90
  13  -3  -7   68.59   14.20
 -13  -3   7   60.09   15.00
  13   3  -6   20.50    8.10
 -13   3   6    3.00    8.20
 -13  -3   6    8.10    7.40
  13  -3  -6    6.00    6.90
 -13   3   5   72.79   16.20
  13   3  -5   64.49   14.80
  13  -3  -5  102.49   18.50
 -13  -3   5   75.79   16.40
  13   3  -4   19.60    8.20
 -13   3   4    4.40    8.10
  13  -3  -4    6.00    6.90
 -13  -3   4    4.20    7.60
  13   3  -3   72.29   13.60
 -13   3   3   30.30   11.90
 -13  -3   3   27.40   11.30
  13  -3  -3   60.39   13.10
 -13   3   2    9.60    8.90
  13   3  -2   -4.20    6.50
  13  -3  -2   10.60   10.10
 -13  -3   2   -2.10    8.80
 -13   3   1   35.90   12.80
  13   3  -1   37.60   11.50
 -13  -3   1   52.39   12.70
  13  -3  -1   58.19   13.30
  13   3   0    1.60    7.40
 -13   3   0    2.70    9.10
  13  -3   0   -4.50   12.80
 -13  -3   0    8.30    8.60
  13   3   1    5.80    7.90
 -13   3  -1    3.60   10.70
  13  -3   1    2.90    9.20
 -13  -3  -1   -0.50   10.10
 -13   3  -2    5.40   11.10
  13   3   2   -1.40    7.50
  13  -3   2   -9.40    8.40
 -13   3  -3   52.69   17.00
 -13   4  13   -2.40    9.60
  13   4 -13    2.40    9.60
  13  -4 -13    0.10    9.70
 -13  -4  13    0.60    9.30
  13   4 -12   13.30    9.00
 -13   4  12    1.90    9.20
 -13  -4  12   11.20   10.00
  13  -4 -12    6.50    9.20
 -13   4  11   29.50   11.20
  13   4 -11   69.39   15.00
  13  -4 -11   77.99   14.80
 -13  -4  11   19.60   10.60
 -13   4  10   28.00   10.70
  13   4 -10   33.90   10.60
  13  -4 -10   47.40   12.80
 -13  -4  10   16.30    9.50
  13   4  -9   -9.70    7.30
 -13   4   9   -6.90    7.00
  13  -4  -9   19.00   10.40
 -13  -4   9    0.90    7.60
 -13   4   8   -0.50    7.90
  13   4  -8   26.30    9.80
  13  -4  -8   17.00    8.90
 -13  -4   8   13.00    8.10
  13   4  -7    8.50    8.50
 -13   4   7   25.40    9.70
 -13  -4   7   12.30    8.40
  13  -4  -7   -1.10    7.80
 -13   4   6   -1.20    7.50
  13   4  -6   -4.70    6.30
 -13  -4   6   11.20    7.40
  13  -4  -6   -3.80    7.30
  13   4  -5   14.80    8.20
 -13   4   5   40.90   11.20
  13  -4  -5   23.60    9.80
 -13  -4   5    6.50    7.30
  13   4  -4    9.90    7.50
 -13   4   4    4.20    8.80
  13  -4  -4   24.80   10.00
 -13  -4   4   -2.80    7.40
  13   4  -3   -1.70    7.50
 -13   4   3    2.10    8.80
 -13  -4   3    1.70    7.80
  13  -4  -3   -3.90    7.50
 -13   4   2   11.40    9.60
  13   4  -2    9.90    7.60
  13  -4  -2   13.30    8.60
 -13  -4   2   -0.50    7.30
  13   4  -1    7.30    8.40
 -13   4   1   10.90   10.10
 -13  -4   1    8.40    9.80
  13  -4  -1   -6.90    7.70
 -13   4   0    6.30   10.10
  13   4   0   -0.80    6.90
  13  -4   0    1.50    9.20
  13   4   1   -7.70    6.40
 -13   4  -1   -3.40   10.90
 -13  -4  -1   -1.40    7.70
  13  -4   1    2.80    8.80
 -13   4  -2   33.10   12.60
  13   4   2   18.10    9.70
 -13  -4  -2   42.50   21.50
  13  -4   2   16.20   10.40
  13   5 -12   -4.80    8.50
 -13   5  12   13.20    9.20
 -13  -5  12    1.90    9.10
  13  -5 -12   -8.00    9.30
  13   5 -11   10.70   10.00
 -13   5  11   24.70   10.50
  13  -5 -11   16.00   11.00
 -13  -5  11    8.10    9.60
  13   5 -10    1.70    7.60
 -13   5  10   -0.90    8.00
  13  -5 -10    9.30    9.00
 -13  -5  10    1.30    8.70
 -13   5   9    0.40   15.20
  13   5  -9   25.20   10.20
  13  -5  -9   32.00   10.40
 -13  -5   9   11.40    9.30
 -13   5   8    6.20    8.50
  13   5  -8   -1.40    7.90
 -13  -5   8   -2.50    8.30
  13  -5  -8   15.50    9.20
 -13   5   7   -6.70    7.80
  13   5  -7   12.50    7.90
 -13  -5   7  -10.80    7.20
  13  -5  -7   -8.20    7.60
  13   5  -6    7.10    7.50
 -13   5   6    5.20    9.50
 -13  -5   6   -2.40    8.10
  13  -5  -6   -5.30    7.50
 -13   5   5   51.09   13.40
  13   5  -5   26.70   10.20
 -13  -5   5   31.40   10.80
  13  -5  -5   56.29   13.90
  13   5  -4    6.90    7.40
 -13   5   4    9.40    8.70
  13  -5  -4    6.30    8.90
 -13  -5   4   -0.70    7.20
  13   5  -3  168.68   30.30
  13  -5  -3  189.78   31.00
 -13   5   2   -5.60    8.50
  13   5  -2    0.90    7.50
  13  -5  -2   -2.60    7.60
  13   5  -1   17.40    8.40
 -13   5   1    6.80    9.90
  13  -5  -1   -0.50    8.40
 -13  -5   1    0.80    5.40
  13   5   0   12.00    8.70
 -13   5   0   31.70   12.90
  13  -5   0   36.40   12.00
 -13  -5   0   -3.40   10.70
  13   5   1    2.20    7.10
 -13   5  -1   11.00   11.10
 -13  -5  -1   -2.30    9.60
  13  -5   1    0.50    7.40
 -13  -5  -2   13.10   10.90
 -13   6  12    3.00    8.80
  13   6 -12   10.60    9.80
 -13  -6  12    1.30   10.10
  13   6 -11   65.09   16.40
 -13   6  11   41.80   14.90
 -13  -6  11   82.39   16.80
  13  -6 -11  132.49   20.30
 -13   6  10   26.60   11.40
  13   6 -10   36.00   11.70
 -13  -6  10   34.40   13.20
  13  -6 -10   48.70   13.70
 -13   6   9    7.70    8.60
  13   6  -9   -1.10    6.90
 -13  -6   9   -6.40    8.00
  13  -6  -9    2.20    8.90
 -13   6   8    6.60    8.70
  13   6  -8   -3.50    7.40
 -13  -6   8   -3.60    8.10
  13  -6  -8    9.00   15.20
 -13   6   7   -9.80    7.80
  13   6  -7    3.70    7.80
 -13  -6   7   -7.70    7.80
  13  -6  -7    5.70    8.20
  13   6  -6    7.00    7.20
 -13   6   6    9.30    9.00
  13  -6  -6   -6.20    7.50
 -13  -6   6   -7.50    7.80
 -13   6   5    1.30    8.30
  13   6  -5   11.60    7.70
 -13  -6   5    8.10    8.80
  13  -6  -5    9.60    9.20
  13   6  -4    8.70    9.00
 -13   6   4    9.20   10.10
  13  -6  -4   15.30    9.40
 -13  -6   4    4.80    8.80
  13   6  -3   27.00    9.30
 -13   6   3   -0.40    9.70
  13  -6  -3    9.80   10.10
 -13   6   2   17.00   10.90
  13   6  -2    3.30    7.30
 -13  -6   2    1.70    7.40
  13  -6  -2   -6.80    8.40
  13   6  -1   10.10    8.40
 -13   6   1   -1.70    9.30
 -13  -6   1    1.70    8.60
  13  -6  -1   10.00    9.10
  13   6   0   -3.70    7.20
 -13   6   0    6.00   11.60
 -13  -6   0   -4.20    9.00
  13  -6   0    3.60   10.00
 -13   6  -1   14.70   13.60
  13   6   1   31.30   10.70
 -13  -6  -1   16.60   11.00
 -13   7  10    0.60    8.00
  13   7 -10   -3.00    8.20
 -13  -7  10    1.60    9.60
  13   7  -9   31.40   11.40
 -13   7   9   13.50    9.70
 -13  -7   9   24.00   10.10
  13  -7  -9   40.00   12.80
 -13   7   8   -8.40    7.50
  13   7  -8    5.00    7.60
 -13  -7   8   -6.70    8.00
  13  -7  -8    0.00    8.90
 -13   7   7   11.10    9.40
  13   7  -7   14.60    8.60
 -13  -7   7    4.10    9.00
  13  -7  -7   -1.10    9.90
 -13   7   6    0.70    9.20
  13   7  -6   -2.90    6.60
  13  -7  -6   -5.30    8.10
 -13  -7   6   14.00    9.60
 -13   7   5    0.20   10.00
  13   7  -5    7.40    7.70
  13  -7  -5   -8.00   12.80
 -13  -7   5    2.30    8.30
 -13   7   4   -6.30   10.20
  13   7  -4   -6.10    6.70
  13  -7  -4   12.20    8.70
  13   7  -3    1.80    7.00
 -13   7   3   20.40   11.60
  13  -7  -3   23.70   10.30
 -13  -7   3   10.50    8.80
 -13   7   2    3.50   10.10
  13   7  -2   10.10    8.50
 -13  -7   2    6.10    8.60
  13  -7  -2   11.00    9.30
 -13   7   1   14.30   11.80
  13   7  -1   12.90    8.10
  13  -7  -1    2.60    9.60
 -13  -7   1    2.30    9.10
 -13  -7   0   10.80   10.50
 -13  -8   9   -4.70    8.60
 -13   8   8    5.40    8.70
  13   8  -8   -1.30    7.10
 -13  -8   8    4.10    9.60
  13   8  -7    3.60    7.80
 -13   8   7    5.80    9.40
 -13  -8   7   15.00    9.90
  13  -8  -7    9.40   10.10
  13   8  -6   -0.90    7.10
 -13   8   6    5.10    8.80
  13  -8  -6   -3.50    8.90
 -13  -8   6    7.10    8.80
  13   8  -5    8.50    7.80
 -13   8   5   22.50   10.70
  13  -8  -5   23.90   11.20
 -13   8   4    8.70    9.80
  13   8  -4    4.50    7.40
  13  -8  -4   10.40    9.90
 -13  -8   4    5.80    8.60
  13   8  -3   13.60    8.20
 -13   8   3    1.90   10.70
 -13  -8   3    0.20    8.80
  13  -8  -3   -0.10    9.60
 -13  -8   2   -0.90    9.60
 -14   0  13    4.10   10.30
  14   0 -13   -4.70    9.70
 -14   0  12   60.89   16.30
  14   0 -12   87.39   17.70
  14   0 -11    9.10   10.10
 -14   0  11   -5.50    9.20
  14   0 -10   48.70   13.40
 -14   0  10   37.50   12.90
  14   0  -9    3.00    7.80
 -14   0   9   -2.90    7.50
  14   0  -8   -3.60    6.90
 -14   0   8    0.20    8.20
 -14   0   7    4.00    8.20
  14   0  -7   10.20    8.70
  14   0  -6  166.28   30.00
  14   0  -5    0.00    8.30
 -14   0   5   12.00    9.40
  14   0  -4   19.80    9.60
 -14   0   4   11.70   10.00
 -14   0   3  -14.40   13.40
  14   0  -3  -11.10    7.30
 -14   0   2   -7.80    8.40
  14   0  -2    2.40    7.60
  14   0  -1    2.90    7.90
 -14   0   1    8.40    9.70
 -14   0   0   32.60   12.90
  14   0   0   58.19   14.00
  14   0   1   -9.00    8.00
 -14   0  -1    0.70   11.60
 -14   0  -2    8.50   12.20
  14   1 -13   24.70   11.70
 -14   1  13   32.20   11.80
  14  -1 -13   18.90   11.40
 -14  -1  13    9.40   10.00
 -14   1  12    2.50    9.40
  14   1 -12    4.70    8.50
 -14  -1  12   -8.40    8.40
  14  -1 -12   11.30   10.20
 -14   1  11   -0.60    9.40
  14   1 -11   18.90   10.50
  14  -1 -11   13.60    9.60
 -14  -1  11   15.20   10.20
  14   1 -10   14.80   10.20
 -14   1  10    0.20    7.50
 -14  -1  10   -1.10    8.40
  14  -1 -10    1.80    8.10
  14   1  -9   -1.30    7.50
 -14   1   9   -6.30    9.30
 -14  -1   9   -2.90    8.60
  14  -1  -9   -0.20    7.20
 -14   1   8    5.00    9.10
  14   1  -8   28.80   11.30
 -14  -1   8   19.40    9.30
  14  -1  -8   14.20    9.60
  14   1  -7   65.49   15.10
 -14   1   7   41.10   13.90
  14  -1  -7   89.69   16.10
  14   1  -6    8.00    8.20
 -14   1   6   12.00    9.60
  14  -1  -6    8.30    9.00
 -14  -1   6   12.00    8.60
 -14   1   5   -1.10    8.60
  14   1  -5   14.30   10.10
 -14  -1   5   -3.10    8.50
  14  -1  -5    0.20    6.30
  14   1  -4   32.70   10.40
 -14   1   4   10.30    9.70
  14  -1  -4   15.40    9.40
 -14  -1   4    9.50    9.20
  14   1  -3    1.90    7.80
 -14   1   3   -2.90    8.70
 -14  -1   3    6.00    8.80
  14  -1  -3   -6.90    6.60
  14   1  -2   18.90    9.60
 -14   1   2    9.70    9.80
 -14  -1   2   14.20   10.30
  14  -1  -2   33.20   10.80
 -14   1   1    7.10   10.80
  14   1  -1  -11.10    7.50
  14  -1  -1    3.40    9.10
 -14  -1   1  -20.60    7.80
 -14   1   0    2.70   10.10
  14   1   0   39.50   11.60
  14  -1   0    9.10   10.40
 -14  -1   0   22.30   11.60
  14   1   1   19.20   10.20
 -14   1  -1    0.90   11.00
  14  -1   1   30.80   12.00
 -14  -1  -1   16.30   11.60
 -14   1  -2   -8.00   10.50
 -14  -1  -2   -6.60   10.80
 -14   2  13   -0.20    9.50
  14   2 -13    6.50    9.50
 -14  -2  13   10.50   10.60
  14  -2 -13   -3.30    9.00
  14   2 -12  115.39   20.50
 -14  -2  12   52.39   16.60
  14   2 -11   25.00   10.90
 -14   2  11   11.40    9.50
 -14  -2  11    8.50    9.30
  14  -2 -11   31.70   10.20
 -14   2  10   16.50    9.90
  14   2 -10   43.10   11.50
 -14  -2  10   46.50   12.30
  14  -2 -10   27.00   10.60
  14   2  -9    3.70    8.70
 -14   2   9   -5.20    8.00
  14  -2  -9   -7.20    7.70
 -14  -2   9  -12.30    7.80
  14   2  -8   -2.20    7.20
 -14   2   8   -9.40    7.30
 -14  -2   8    2.80    8.10
  14  -2  -8  -12.10    8.00
 -14   2   7    7.20    9.70
  14   2  -7    6.00    7.40
  14  -2  -7   -2.10    7.60
 -14  -2   7    0.70    8.40
 -14   2   6  131.49   25.30
  14   2  -6  168.58   27.20
  14  -2  -6  148.09   25.90
  14   2  -5   -8.80    6.30
 -14   2   5    6.40    9.40
  14  -2  -5   -2.90    7.90
 -14  -2   5    1.30    7.80
  14   2  -4  128.89   19.10
 -14   2   4   63.99   14.90
  14  -2  -4   69.29   14.80
 -14  -2   4   33.90   13.20
  14   2  -3    8.20    7.70
 -14   2   3   17.40    9.80
  14  -2  -3   20.10    9.60
 -14  -2   3    2.50    8.40
  14   2  -2    3.90    7.40
 -14   2   2   14.40    9.70
 -14  -2   2    0.60    8.50
 -14   2   1   -1.90    9.10
  14   2  -1   11.70    9.10
  14  -2  -1    0.50    8.80
 -14  -2   1    8.70   10.00
  14   2   0   78.09   16.60
  14  -2   0   94.89   18.30
 -14  -2   0   49.40   15.40
  14   2   1    4.70    8.70
 -14   2  -1   11.90   13.00
  14  -2   1    6.50    8.90
 -14  -2  -1    4.30   10.90
  14   3 -13   10.50   10.30
 -14   3  13    2.20    9.60
 -14  -3  13   14.30   11.40
  14  -3 -13   12.10   11.10
 -14   3  12   -1.00    8.70
  14   3 -12   -9.00    8.30
 -14  -3  12   10.40    9.50
  14  -3 -12    6.70    9.20
  14   3 -11   33.30   12.30
 -14   3  11   30.20   13.40
 -14  -3  11   16.00   10.60
  14  -3 -11   36.90   21.40
  14   3 -10   32.20   10.80
 -14   3  10    9.60   10.70
  14  -3 -10   40.80   12.30
 -14  -3  10   22.90   10.90
 -14   3   9  -16.70    7.70
  14   3  -9    0.50    7.50
 -14  -3   9   -6.70    7.40
  14  -3  -9    6.20    8.60
  14   3  -8    0.80    7.60
 -14   3   8   -2.60    8.00
  14  -3  -8    7.70    8.20
 -14  -3   8    7.60    8.10
 -14   3   7   18.30    9.10
  14   3  -7   17.80    8.50
 -14  -3   7   -8.20    8.20
  14  -3  -7    7.90    9.30
 -14   3   6    0.40    7.80
  14   3  -6   12.80    8.30
  14  -3  -6    3.50    8.00
 -14  -3   6    3.80    8.20
  14   3  -5   -1.80    7.00
 -14   3   5   35.00   11.70
 -14  -3   5   -2.00    8.00
  14  -3  -5   12.30    9.00
  14   3  -4   25.50    9.80
  14  -3  -4   10.60    9.10
 -14  -3   4   -3.40    7.90
 -14   3   3    0.40    9.00
  14   3  -3    3.40    7.80
 -14  -3   3   -2.50    8.30
  14  -3  -3   -2.60    8.30
  14   3  -2   17.70    9.20
 -14   3   2   -5.80    8.00
  14  -3  -2   -1.50    7.40
 -14  -3   2   -7.20    8.60
  14   3  -1   20.20   10.70
 -14   3   1  -10.90    9.60
 -14  -3   1   -8.10    9.50
  14  -3  -1   14.30    9.60
  14   3   0    3.70    8.60
 -14   3   0   -5.20   10.00
 -14  -3   0    0.40    9.30
  14  -3   0    3.60    9.70
  14   3   1   25.50   11.50
 -14   3  -1   25.70   12.90
  14  -3   1   51.09   13.20
 -14  -3  -1   -0.40   11.10
  14   4 -12   28.90   12.20
 -14   4  12   31.70   12.60
  14  -4 -12   73.19   15.60
 -14  -4  12   39.10   13.70
 -14   4  11   10.50   10.90
  14   4 -11   24.10   10.50
 -14  -4  11    6.50    9.70
  14  -4 -11    7.50   10.00
  14   4 -10   45.80   13.90
 -14   4  10   28.20   12.00
 -14  -4  10   29.80   11.10
 -14   4   9   -7.60    7.70
  14   4  -9    3.20    8.30
 -14  -4   9    5.00    8.90
  14  -4  -9    9.40    8.70
 -14   4   8   -5.20    8.90
  14   4  -8    8.10    8.50
  14  -4  -8    1.20    7.30
 -14  -4   8    1.50    9.00
 -14   4   7    8.80    9.20
  14   4  -7   13.70    8.70
  14  -4  -7    1.40    8.10
 -14  -4   7    8.00    8.10
 -14   4   6   71.49   16.40
  14   4  -6   61.19   14.80
 -14  -4   6   41.30   13.80
  14  -4  -6   92.69   16.50
  14   4  -5   -2.90    6.70
 -14   4   5    2.30    9.00
  14  -4  -5   15.80   10.40
 -14  -4   5   -4.40    7.80
 -14   4   4    4.30    9.20
  14   4  -4    7.30    7.70
 -14  -4   4   15.70    9.30
  14  -4  -4   16.70   10.00
  14   4  -3    3.50    8.10
 -14   4   3   -3.70    9.50
 -14  -4   3    9.10    8.70
  14  -4  -3    8.40    9.20
 -14   4   2  -12.10    9.10
  14   4  -2   -5.50    7.20
 -14  -4   2   -1.60    9.00
  14  -4  -2    1.80    8.40
 -14   4   1   -0.40   10.30
  14   4  -1   -0.40    7.60
  14  -4  -1    6.30    9.50
 -14  -4   1   -7.70    8.80
 -14   4   0   51.19   14.40
  14   4   0   27.50   12.00
  14  -4   0   59.29   14.00
 -14  -4  -1   -1.90    7.10
 -14   5  11   10.90   10.60
  14   5 -11   20.20   10.80
  14  -5 -11    2.70   10.00
 -14  -5  11    5.40    9.00
 -14   5  10   -3.90    9.30
  14   5 -10   -7.10    7.80
  14  -5 -10    0.80    8.40
 -14  -5  10    8.30    9.40
  14   5  -9   -7.20    7.60
 -14   5   9   -6.20    8.20
  14  -5  -9   -9.00    8.00
  14   5  -8    8.10    9.60
 -14   5   8   30.30   17.40
 -14  -5   8    0.80    8.20
  14  -5  -8   11.40   10.40
  14   5  -7   55.29   13.10
 -14   5   7   50.39   13.50
  14  -5  -7   37.30   12.10
 -14  -5   7   11.80    9.20
 -14   5   6  -11.90    8.50
  14   5  -6    4.10    8.00
 -14  -5   6    0.30    8.80
  14  -5  -6   13.50   10.40
  14   5  -5   -3.30    6.70
 -14   5   5   -2.90    8.20
  14  -5  -5   -4.60    7.80
 -14  -5   5  -10.00    7.60
 -14   5   4   11.90    9.90
  14   5  -4   -1.90    6.80
 -14  -5   4    4.30    8.40
  14  -5  -4    8.30   10.20
  14   5  -3   16.20    9.00
 -14   5   3   12.20   10.90
  14  -5  -3   -9.40    8.30
 -14   5   2  -12.20    8.50
  14   5  -2   13.60    9.50
  14  -5  -2    9.40   10.70
 -14  -5   2    0.90   10.60
 -14   5   1   -4.10    9.60
  14   5  -1    8.20    8.80
  14  -5  -1   14.90   10.30
 -14  -5   1   -1.90   10.20
  14   5   0    5.10    8.30
 -14   5   0   -0.70   11.10
 -14  -5   0   -0.70    9.90
  14   6 -10   15.40    9.40
 -14   6  10   19.80   10.10
 -14  -6  10   14.70   10.30
  14  -6 -10    9.00   10.30
  14   6  -9    7.10    9.60
 -14   6   9   -7.30    8.90
  14  -6  -9   17.40   11.30
 -14  -6   9   -5.10    8.50
 -14   6   8    4.50    9.80
  14   6  -8    0.40    7.50
  14  -6  -8    7.60    9.70
 -14  -6   8   -8.20    8.60
  14   6  -7   37.70   11.40
 -14   6   7   47.60   13.20
 -14  -6   7   21.10   11.70
  14  -6  -7  113.49   17.80
  14   6  -6    9.00    8.70
 -14  -6   6   -5.40    8.80
  14  -6  -6   23.10   11.60
 -14   6   5    0.70    9.60
  14   6  -5    1.40    7.70
 -14  -6   5    6.40    8.60
  14  -6  -5  -10.80    7.50
 -14   6   4    4.00   10.10
  14   6  -4    2.10    7.90
  14  -6  -4   41.00   12.20
 -14  -6   4    9.60    9.10
  14   6  -3   -0.70    7.00
 -14   6   3   -3.20   10.70
  14  -6  -3   -6.30    8.70
  14   6  -2    5.50    9.10
 -14   6   2    2.70    9.60
  14  -6  -2   -4.10    9.40
 -14  -6   2    0.10    7.50
 -14  -6   1    5.90   10.70
 -14  -7   9    2.00   10.00
  14   7  -8   14.90   10.30
 -14   7   8   12.40   10.70
  14  -7  -8   38.00   12.30
 -14  -7   8    8.10    9.50
  14   7  -7    5.90    7.60
 -14   7   7   -8.30    8.30
  14  -7  -7   14.60   11.00
 -14  -7   7    4.00    9.20
  14   7  -6   18.10    8.80
 -14   7   6    9.40   10.00
  14  -7  -6   12.00    9.90
 -14  -7   6   12.10    9.70
  14   7  -5   -3.50    7.10
 -14   7   5   -6.70    9.20
  14  -7  -5    5.40   10.50
 -14  -7   5   14.00    9.60
 -14   7   4    0.50   10.60
  14   7  -4    8.80    8.50
  14  -7  -4   -0.80    9.00
 -14   7   3   -4.30   11.20
 -14  -7   3   -3.50    8.20
  15   0 -12   -6.00    9.10
 -15   0  12   19.30   11.50
  15   0 -11   -1.30    9.10
 -15   0  11    8.70    9.60
 -15   0  10   14.90   11.10
  15   0 -10   23.80   10.10
 -15   0   9   -0.50    8.60
  15   0  -9    1.80    8.50
  15   0  -8   10.30    8.40
 -15   0   8   -0.10   10.00
  15   0  -7   -5.10    8.80
 -15   0   7   -2.30    8.10
  15   0  -6   -1.20    9.20
 -15   0   6   -1.20    8.80
 -15   0   5   -2.60    8.60
  15   0  -5    8.30    9.50
 -15   0   4    5.90   10.00
  15   0  -4   -3.20    7.60
  15   0  -3   -4.30    7.90
 -15   0   3   -7.60    8.30
  15   0  -2   -3.10    8.20
 -15   0   2    6.30   12.50
 -15   0   1   -4.40   10.10
  15   0  -1    0.40    9.10
 -15   0   0   -2.50   10.20
 -15   1  12   12.00   12.90
  15   1 -12    9.90   10.60
 -15  -1  12   -2.40    9.80
  15  -1 -12   -7.40   10.70
 -15   1  11   11.60   10.90
  15   1 -11   31.70   12.20
 -15  -1  11    9.00   11.10
  15  -1 -11   17.10   10.00
 -15   1  10  -10.50    8.50
  15   1 -10   -1.00    8.70
  15  -1 -10    2.30    8.80
 -15  -1  10    8.20    8.90
  15   1  -9    6.60    8.60
 -15   1   9   20.30   11.60
 -15  -1   9   19.30   10.90
  15  -1  -9   34.80   11.00
 -15   1   8    3.00    8.20
  15   1  -8  -12.60    7.00
 -15  -1   8   -4.90    8.10
  15  -1  -8    7.50    8.60
 -15   1   7   -8.20    8.60
  15   1  -7    1.30    8.00
  15  -1  -7    9.40   10.50
 -15  -1   7    5.40    8.90
 -15   1   6    9.20    9.40
  15   1  -6   13.30    9.50
 -15  -1   6   -3.10    8.30
  15  -1  -6   -6.90    8.10
 -15   1   5    3.70    9.50
  15   1  -5   -2.80    7.60
 -15  -1   5    1.40    9.40
  15  -1  -5   -2.80    9.30
  15   1  -4   -0.70    7.20
 -15   1   4  -14.70    8.30
 -15  -1   4   20.20   19.10
  15  -1  -4   -5.30    8.20
 -15   1   3   17.90   11.40
  15   1  -3   34.70   10.30
  15  -1  -3   15.20   10.20
 -15  -1   3    8.60   10.30
 -15   1   2    2.20   10.10
  15   1  -2   -6.60    6.90
 -15  -1   2   -8.40    8.90
  15  -1  -2    5.20    8.60
 -15   1   1   -9.70    8.90
  15   1  -1    5.30    8.90
  15  -1  -1   -7.10    9.80
 -15  -1   1    8.90   11.00
 -15   1   0   -0.60   11.30
 -15  -1   0    4.00   11.50
  15   2 -12   20.70   11.00
 -15   2  12   -3.90    9.00
 -15  -2  12   -8.60    9.60
  15  -2 -12   19.90   11.00
 -15   2  11   -1.50   10.10
  15   2 -11   -2.40    8.90
 -15  -2  11    8.40   10.50
  15  -2 -11  -11.70    8.30
  15   2 -10   45.50   13.00
 -15   2  10   20.00   12.30
  15  -2 -10   56.69   13.70
 -15  -2  10   25.90   11.50
  15   2  -9   14.10    9.30
 -15   2   9    3.70   10.00
 -15  -2   9   -6.30    8.90
  15  -2  -9   -0.30    9.50
  15   2  -8   11.00    9.70
 -15   2   8    0.40    9.40
 -15  -2   8   21.50   11.40
  15  -2  -8   37.00   12.50
 -15   2   7   14.80    9.40
  15   2  -7   14.90    9.60
 -15  -2   7    1.10    8.80
  15  -2  -7   12.90    9.70
 -15   2   6   -8.50    8.80
  15   2  -6   -0.70    8.20
  15  -2  -6    0.10    8.20
 -15  -2   6   -1.90    8.10
  15   2  -5   42.10   11.80
 -15   2   5    0.10   10.60
  15  -2  -5   15.10   10.60
 -15  -2   5   11.80   10.40
 -15   2   4   -0.90    9.30
  15   2  -4    8.50    8.80
 -15  -2   4   -3.10    9.00
  15  -2  -4   -5.90    8.40
  15   2  -3    6.60    8.70
 -15   2   3    0.60    9.10
 -15  -2   3    8.30   10.30
  15  -2  -3    8.10    8.60
  15   2  -2   15.90   11.40
 -15   2   2    5.30   10.70
 -15  -2   2   -4.60    9.30
  15  -2  -2   -0.30    8.80
  15   2  -1    3.60    8.70
 -15   2   1   20.20   11.50
  15  -2  -1   45.70   14.00
 -15  -2   1   -8.20    9.80
 -15   2   0   15.60   13.00
 -15  -2   0   14.30   12.20
 -15   3  12   10.90   10.20
 -15  -3  12   -4.50    9.10
  15   3 -11   -2.60    9.80
 -15   3  11    2.50    8.60
  15  -3 -11   13.30   10.50
 -15  -3  11   -5.90    8.90
 -15   3  10    0.50   10.80
  15   3 -10   17.40   11.60
 -15  -3  10    8.00    9.80
  15  -3 -10   -9.10    9.70
  15   3  -9   33.60   11.50
 -15   3   9   16.10    9.80
  15  -3  -9   33.70   12.70
 -15  -3   9    1.50    9.00
 -15   3   8  -13.30    7.90
  15   3  -8   -6.60    7.00
  15  -3  -8   -4.80    8.00
 -15  -3   8   -6.40    8.20
 -15   3   7    7.30    9.50
  15   3  -7    4.40    8.30
 -15  -3   7   -5.30    9.50
  15  -3  -7    4.20    9.00
  15   3  -6    8.60    7.80
 -15   3   6   -4.80    9.30
  15  -3  -6   -3.90    8.90
 -15  -3   6  -10.90    7.80
 -15   3   5    7.40    9.70
  15   3  -5    8.00    9.70
  15  -3  -5    9.70    8.60
 -15  -3   5    1.70    9.30
 -15   3   4   18.20   10.90
  15   3  -4   10.50   10.50
  15  -3  -4   -6.00    8.00
 -15  -3   4   -5.10    8.80
 -15   3   3   38.30   13.30
  15   3  -3   47.80   12.20
 -15  -3   3   15.30   12.10
  15  -3  -3   69.29   16.20
  15   3  -2   -4.00    9.30
 -15   3   2   -7.80    9.20
  15  -3  -2   -8.70    8.60
 -15  -3   2    4.80   10.30
  15   3  -1   -4.10    8.10
 -15   3   1    8.90   12.40
 -15  -3   1    1.90   10.70
  15  -3  -1   -1.00    9.80
 -15   4  11   -8.50    9.30
  15   4 -11    5.50   10.40
 -15  -4  11   -1.60    9.20
 -15   4  10    6.50   10.00
  15   4 -10   22.40   10.60
  15  -4 -10   27.70   11.20
 -15  -4  10   -7.50    9.10
 -15   4   9   12.00   16.10
  15   4  -9   -2.20    8.40
  15  -4  -9   10.40   17.30
 -15  -4   9    4.60    9.10
 -15   4   8   11.90    9.60
  15   4  -8    6.70    8.70
 -15  -4   8    4.20    8.80
  15  -4  -8    1.70    8.70
  15   4  -7    0.50    8.90
 -15   4   7   -8.60    9.30
  15  -4  -7   -6.70    8.70
 -15  -4   7    1.90    9.00
 -15   4   6   -4.20    9.10
  15   4  -6   -2.80    7.80
  15  -4  -6   -4.80    8.20
 -15  -4   6   -4.10    9.80
 -15   4   5   10.80   10.60
  15   4  -5   27.20   11.10
 -15  -4   5   11.40    9.70
  15  -4  -5   40.20   11.70
 -15   4   4    6.60   10.10
  15   4  -4   -4.10    8.60
 -15  -4   4    7.50   10.60
  15  -4  -4  -10.50    8.10
 -15   4   3   -0.50   10.00
  15   4  -3   12.80    9.40
 -15  -4   3   -4.00    9.00
  15  -4  -3   14.10   10.80
  15   4  -2   -1.60    8.30
 -15   4   2    3.70   10.60
 -15  -4   2   -2.20   10.20
  15  -4  -2   -2.30    9.80
 -15  -4   1  -15.40    9.70
  15   5 -10   -5.10    8.30
 -15   5  10   -2.70    9.10
 -15  -5  10    5.90    9.50
 -15   5   9   -2.30    9.40
  15   5  -9   20.40   10.40
  15  -5  -9    7.50   10.00
 -15  -5   9   12.60    9.40
 -15   5   8    1.80    9.60
  15   5  -8    2.60    8.50
 -15  -5   8   -5.00    8.30
  15  -5  -8   31.50   11.20
  15   5  -7   -4.00    8.20
  15  -5  -7   24.80   12.50
 -15  -5   7   -9.60    8.00
 -15   5   6   12.10   11.90
  15   5  -6    2.10    8.00
  15  -5  -6    4.20   11.00
 -15  -5   6    2.60    9.70
 -15   5   5   -0.80    9.30
  15   5  -5   -0.80    8.40
  15  -5  -5    7.50   10.90
 -15  -5   5    7.20    9.80
  15   5  -4    1.90    7.80
 -15   5   4   17.30   12.80
  15  -5  -4   -2.90    8.70
 -15  -5   4   -1.00    8.60
  15   5  -3    8.80    9.90
 -15   5   3   -3.70    9.40
 -15  -5   3    1.20    9.60
  15   6  -8    4.80    8.60
 -15   6   8   13.60   11.00
 -15  -6   8  -12.10    8.70
  15   6  -7   40.00   12.40
 -15   6   7   19.80   12.30
 -15  -6   7   21.10   11.60
 -15   6   6   -3.00    9.50
  15   6  -6    1.20    8.70
 -15  -6   6   -0.70    8.80
 -15   6   5    7.90   12.00
  15   6  -5   -0.60    8.10
 -15  -6   5   15.30   10.70
 -15  -6   4   -7.70    9.40
 -16   0  11   16.30   12.00
  16   0 -11   -5.30    8.20
 -16   0  10    0.70   10.50
  16   0 -10   -0.80    8.40
 -16   0   9   -3.70    9.30
  16   0  -9   -6.00    8.30
  16   0  -8   10.20    9.60
 -16   0   8    2.00    9.50
  16   0  -7    4.50    9.60
 -16   0   7  -15.50    9.80
 -16   0   6   24.80   11.70
  16   0  -6   47.90   13.20
  16   0  -5   -5.60    8.90
 -16   0   5    6.10   10.00
 -16   0   4   23.90   12.00
  16   0  -4    4.80   12.80
  16   0  -3   15.40   10.60
 -16   0   3    3.70   10.90
 -16   1  11    2.40    9.50
 -16  -1  11    5.10   10.70
 -16   1  10    9.60   10.70
  16   1 -10   -1.90    9.00
  16  -1 -10    0.30    9.40
 -16  -1  10   12.00   10.70
 -16   1   9   -8.30    8.80
  16   1  -9    0.80    8.90
 -16  -1   9   -3.50    8.80
  16  -1  -9   14.30   10.40
  16   1  -8    5.40   10.80
 -16   1   8    3.20    9.40
  16  -1  -8    6.80   11.40
 -16  -1   8  -16.10    7.60
 -16   1   7    9.50   10.10
  16   1  -7   20.20   10.30
 -16  -1   7   -2.00   10.40
  16  -1  -7   37.00   11.80
  16   1  -6   -1.00   12.80
 -16   1   6    5.50   10.50
  16  -1  -6    0.50    8.50
 -16  -1   6    4.50    9.20
 -16   1   5    1.90   10.20
  16   1  -5   -0.20    9.00
 -16  -1   5    0.40   10.00
  16  -1  -5    2.60    8.40
 -16   1   4   -6.40    9.60
  16   1  -4    2.40    9.20
  16  -1  -4    3.50    9.00
 -16  -1   4    5.70   11.70
  16   1  -3    5.10    9.90
 -16   1   3    7.20   11.20
  16  -1  -3   -3.90    8.90
 -16  -1   3    4.40   10.60
  16   2 -10    1.70    9.00
 -16   2  10    1.50    9.10
 -16  -2  10   -0.90    9.80
  16  -2 -10   11.70   11.20
 -16   2   9    3.90   10.80
  16   2  -9    3.10    9.70
  16  -2  -9    1.60   10.30
 -16  -2   9   -4.80    9.40
 -16   2   8    5.60   10.30
  16   2  -8   24.30   11.10
 -16  -2   8    9.10    9.60
  16  -2  -8   30.00   11.50
  16   2  -7    9.20   10.70
 -16   2   7    6.40    9.80
  16  -2  -7   -9.50    7.30
 -16  -2   7   16.40   11.80
 -16   2   6   45.40   13.00
  16   2  -6   76.19   14.90
  16  -2  -6   57.39   14.20
 -16  -2   6    5.30   10.80
  16   2  -5   -2.20    8.10
 -16   2   5    1.70    9.60
  16  -2  -5    7.30   10.20
  16   2  -4   29.60   11.90
 -16   2   4   18.40   11.20
  16  -2  -4   30.50   12.40
 -16  -2   4    2.70   12.00
  16   2  -3   -1.10    8.90
 -16   2   3    0.80   12.10
 -16  -2   3   12.80   10.90
 -16   3  10  -10.60    8.60
 -16  -3  10  -14.80    9.00
  16   3  -9   -4.30    8.70
 -16   3   9    6.90   10.30
  16  -3  -9   -0.40   10.50
 -16  -3   9    3.80    9.60
  16   3  -8   -4.10    7.90
 -16   3   8   -2.10    9.60
  16  -3  -8    8.30    9.80
 -16  -3   8   -9.40    8.10
 -16   3   7   12.60   10.50
  16   3  -7   -4.90    9.10
  16  -3  -7   19.40   10.40
 -16  -3   7   -1.50    9.10
 -16   3   6   14.00   11.30
  16   3  -6    7.60   10.40
 -16  -3   6   11.20   10.10
  16  -3  -6   31.00   12.30
  16   3  -5    1.40    9.70
 -16   3   5    8.00   10.20
 -16  -3   5    4.60    9.90
  16  -3  -5   -6.90   10.30
 -16   3   4    0.60   10.60
  16   3  -4   -9.10    7.60
 -16  -3   4   -1.40   11.20
  16   4  -8   -5.70    8.90
 -16   4   8    3.10   17.60
 -16  -4   8   -4.70    8.20
 -16   4   7   -7.00    9.10
  16   4  -7   -4.10    8.50
 -16  -4   7  -11.70    7.90
 -16   4   6   19.60   12.30
 -16  -4   6   -2.00    8.80
 -16   4   5    4.80   10.60
 -16  -4   5   -4.10   10.60
   0   0   0    0.00    0.00

_computing_structure_solution     'SHELXT 2018/2 (Sheldrick, 2018)'
;
_shelx_hkl_checksum   46955

