 
data_Pvl264btd_auto_a
 
_audit_creation_method            'SHELXL-2018/3'
_shelx_SHELXL_version_number      '2018/3'
_chemical_name_systematic         ?
_chemical_name_common             ?
_chemical_melting_point           ?
_chemical_formula_moiety          ?
_chemical_formula_sum
 'C3.50 H2 N2 O0.50 S0.25 Zn0.12' 
_chemical_formula_weight          96.26

loop_
 _atom_type_symbol
 _atom_type_description
 _atom_type_scat_dispersion_real
 _atom_type_scat_dispersion_imag
 _atom_type_scat_source
 'C'  'C'   0.0033   0.0016
 'International Tables Vol C Tables 4.2.6.8 and 6.1.1.4'
 'H'  'H'   0.0000   0.0000
 'International Tables Vol C Tables 4.2.6.8 and 6.1.1.4'
 'N'  'N'   0.0061   0.0033
 'International Tables Vol C Tables 4.2.6.8 and 6.1.1.4'
 'O'  'O'   0.0106   0.0060
 'International Tables Vol C Tables 4.2.6.8 and 6.1.1.4'
 'S'  'S'   0.1246   0.1234
 'International Tables Vol C Tables 4.2.6.8 and 6.1.1.4'
 'Zn'  'Zn'   0.2839   1.4301
 'International Tables Vol C Tables 4.2.6.8 and 6.1.1.4'
 
_space_group_crystal_system       monoclinic
_space_group_IT_number            15
_space_group_name_H-M_alt         'I 2/a'
_space_group_name_Hall            '-I 2ya'
 
_shelx_space_group_comment
;
The symmetry employed for this shelxl refinement is uniquely defined
by the following loop, which should always be used as a source of
symmetry information in preference to the above space-group names.
They are only intended as comments.
;
 
loop_
 _space_group_symop_operation_xyz
 'x, y, z'
 '-x+1/2, y, -z'
 'x+1/2, y+1/2, z+1/2'
 '-x+1, y+1/2, -z+1/2'
 '-x, -y, -z'
 'x-1/2, -y, z'
 '-x+1/2, -y+1/2, -z+1/2'
 'x, -y+1/2, z+1/2'
 
_cell_length_a                    26.9655(12)
_cell_length_b                    5.5481(2)
_cell_length_c                    20.0398(8)
_cell_angle_alpha                 90
_cell_angle_beta                  106.863(4)
_cell_angle_gamma                 90
_cell_volume                      2869.2(2)
_cell_formula_units_Z             32
_cell_measurement_temperature     290(2)
_cell_measurement_reflns_used     ?
_cell_measurement_theta_min       ?
_cell_measurement_theta_max       ?
 
_exptl_crystal_description        ?
_exptl_crystal_colour             ?
_exptl_crystal_density_meas       ?
_exptl_crystal_density_method     ?
_exptl_crystal_density_diffrn     1.783          
_exptl_crystal_F_000              1560
_exptl_transmission_factor_min    ?
_exptl_transmission_factor_max    ?
_exptl_crystal_size_max           ?
_exptl_crystal_size_mid           ?
_exptl_crystal_size_min           ?
_exptl_absorpt_coefficient_mu     1.073
_shelx_estimated_absorpt_T_min    ?
_shelx_estimated_absorpt_T_max    ?
_exptl_absorpt_correction_type    ?
_exptl_absorpt_correction_T_min   ?
_exptl_absorpt_correction_T_max   ?
_exptl_absorpt_process_details    ?
_exptl_absorpt_special_details    ?
_diffrn_ambient_temperature       290(2)
_diffrn_radiation_wavelength      0.71073
_diffrn_radiation_type            MoK\a
_diffrn_source                    ?
_diffrn_measurement_device_type   ?
_diffrn_measurement_method        ?
_diffrn_detector_area_resol_mean  ?
_diffrn_reflns_number             6472
_diffrn_reflns_av_unetI/netI      0.0355
_diffrn_reflns_av_R_equivalents   0.0200
_diffrn_reflns_limit_h_min        -32
_diffrn_reflns_limit_h_max        34
_diffrn_reflns_limit_k_min        -7
_diffrn_reflns_limit_k_max        5
_diffrn_reflns_limit_l_min        -16
_diffrn_reflns_limit_l_max        26
_diffrn_reflns_theta_min          2.124
_diffrn_reflns_theta_max          29.067
_diffrn_reflns_theta_full         25.242
_diffrn_measured_fraction_theta_max   0.832
_diffrn_measured_fraction_theta_full  1.000
_diffrn_reflns_Laue_measured_fraction_max    0.832
_diffrn_reflns_Laue_measured_fraction_full   1.000
_diffrn_reflns_point_group_measured_fraction_max   0.832
_diffrn_reflns_point_group_measured_fraction_full  1.000
_reflns_number_total              3201
_reflns_number_gt                 2681
_reflns_threshold_expression      'I > 2\s(I)'
_reflns_Friedel_coverage          0.000
_reflns_Friedel_fraction_max      .
_reflns_Friedel_fraction_full     .
 
_reflns_special_details
;
 Reflections were merged by SHELXL according to the crystal
 class for the calculation of statistics and refinement.
 
 _reflns_Friedel_fraction is defined as the number of unique
 Friedel pairs measured divided by the number that would be
 possible theoretically, ignoring centric projections and
 systematic absences.
;
 
_computing_data_collection        ?
_computing_cell_refinement        ?
_computing_data_reduction         ?
_computing_structure_solution     'SHELXT 2014/5 (Sheldrick, 2014)'
_computing_structure_refinement 'SHELXL-2018/3 (Sheldrick, 2018)'
_computing_molecular_graphics     ?
_computing_publication_material   ?
_refine_special_details           ?
_refine_ls_structure_factor_coef  Fsqd
_refine_ls_matrix_type            full
_refine_ls_weighting_scheme       calc
_refine_ls_weighting_details
'w=1/[\s^2^(Fo^2^)+(0.0262P)^2^+3.2817P] where P=(Fo^2^+2Fc^2^)/3'
_atom_sites_solution_primary      ?
_atom_sites_solution_secondary    ?
_atom_sites_solution_hydrogens    geom
_refine_ls_hydrogen_treatment     constr
_refine_ls_extinction_method      none
_refine_ls_extinction_coef        .
_refine_ls_number_reflns          3201
_refine_ls_number_parameters      231
_refine_ls_number_restraints      0
_refine_ls_R_factor_all           0.0456
_refine_ls_R_factor_gt            0.0348
_refine_ls_wR_factor_ref          0.0792
_refine_ls_wR_factor_gt           0.0727
_refine_ls_goodness_of_fit_ref    1.054
_refine_ls_restrained_S_all       1.054
_refine_ls_shift/su_max           0.001
_refine_ls_shift/su_mean          0.000
 
loop_
 _atom_site_label
 _atom_site_type_symbol
 _atom_site_fract_x
 _atom_site_fract_y
 _atom_site_fract_z
 _atom_site_U_iso_or_equiv
 _atom_site_adp_type
 _atom_site_occupancy
 _atom_site_site_symmetry_order  
 _atom_site_calc_flag
 _atom_site_refinement_flags_posn
 _atom_site_refinement_flags_adp
 _atom_site_refinement_flags_occupancy
 _atom_site_disorder_assembly
 _atom_site_disorder_group
Zn01 Zn 0.250000 0.60102(7) 0.500000 0.02682(12) Uani 1 2 d S T P . .
S002 S 0.38514(2) 0.42758(11) 0.84628(3) 0.03204(15) Uani 1 1 d . . . . .
O1 O 0.26397(7) 0.3820(3) 0.43218(8) 0.0374(4) Uani 1 1 d . . . . .
O004 O 0.30325(7) 0.6790(3) 0.39293(8) 0.0425(4) Uani 1 1 d . . . . .
N1 N 0.36567(8) 1.0859(4) 0.60948(10) 0.0358(5) Uani 1 1 d . . . . .
N2 N 0.55517(8) 1.1279(4) 0.93391(10) 0.0407(5) Uani 1 1 d . . . . .
N3 N 0.57971(8) 0.8432(4) 1.01742(10) 0.0440(6) Uani 1 1 d . . . . .
N005 N 0.30872(7) 0.7943(3) 0.56219(9) 0.0277(4) Uani 1 1 d . . . . .
N006 N 0.36825(7) 0.9002(3) 0.65581(8) 0.0247(4) Uani 1 1 d . . . . .
N007 N 0.52302(7) 0.9312(3) 0.91801(9) 0.0288(4) Uani 1 1 d . . . . .
N008 N 0.36934(7) 0.5617(3) 0.77163(9) 0.0292(4) Uani 1 1 d . . . . .
N009 N 0.43660(7) 0.5768(3) 0.88608(9) 0.0291(4) Uani 1 1 d . . . . .
C00D C 0.33442(8) 0.7286(4) 0.62643(10) 0.0272(5) Uani 1 1 d . . . . .
H00D H 0.329591 0.585128 0.647713 0.033 Uiso 1 1 calc R U . . .
C00E C 0.40526(8) 0.9083(4) 0.72282(10) 0.0239(5) Uani 1 1 d . . . . .
C00F C 0.40430(8) 0.7375(4) 0.77497(10) 0.0239(4) Uani 1 1 d . . . . .
C00G C 0.48272(8) 0.9243(4) 0.85424(10) 0.0254(5) Uani 1 1 d . . . . .
C00H C 0.28034(8) 0.4858(4) 0.38493(11) 0.0285(5) Uani 1 1 d . . . . .
C00I C 0.26595(8) 0.3590(4) 0.31532(10) 0.0243(5) Uani 1 1 d . . . . .
C00J C 0.44330(8) 0.7459(4) 0.84163(10) 0.0241(5) Uani 1 1 d . . . . .
C00K C 0.24006(9) 0.1393(4) 0.30660(11) 0.0299(5) Uani 1 1 d . . . . .
H00K H 0.233403 0.064552 0.344644 0.036 Uiso 1 1 calc R U . . .
C00L C 0.27584(9) 0.4686(4) 0.25831(11) 0.0295(5) Uani 1 1 d . . . . .
H00L H 0.293239 0.615298 0.263774 0.035 Uiso 1 1 calc R U . . .
C00M C 0.32929(9) 1.0120(4) 0.55437(11) 0.0336(5) Uani 1 1 d . . . . .
H00M H 0.318526 1.101202 0.513416 0.040 Uiso 1 1 calc R U . . .
C00N C 0.48112(9) 1.0889(4) 0.80325(11) 0.0299(5) Uani 1 1 d . . . . .
H00N H 0.506098 1.209578 0.811589 0.036 Uiso 1 1 calc R U . . .
C00O C 0.44263(9) 1.0820(4) 0.73797(11) 0.0291(5) Uani 1 1 d . . . . .
H00O H 0.442829 1.198416 0.704671 0.035 Uiso 1 1 calc R U . . .
C00P C 0.58768(9) 1.0638(5) 0.99376(12) 0.0388(6) Uani 1 1 d . . . . .
H00P H 0.614467 1.163665 1.018309 0.047 Uiso 1 1 calc R U . . .
C00Q C 0.53914(9) 0.7653(5) 0.96825(12) 0.0416(6) Uani 1 1 d . . . . .
H00Q H 0.523723 0.615346 0.968320 0.050 Uiso 1 1 calc R U . . .
 
loop_
 _atom_site_aniso_label
 _atom_site_aniso_U_11
 _atom_site_aniso_U_22
 _atom_site_aniso_U_33
 _atom_site_aniso_U_23
 _atom_site_aniso_U_13
 _atom_site_aniso_U_12
Zn01 0.0330(2) 0.0312(2) 0.01315(17) 0.000 0.00168(14) 0.000
S002 0.0296(3) 0.0362(3) 0.0255(3) 0.0047(2) 0.0003(2) -0.0094(2)
O1 0.0569(11) 0.0377(9) 0.0187(8) -0.0003(7) 0.0126(7) 0.0032(8)
O004 0.0540(11) 0.0391(10) 0.0282(9) -0.0047(8) 0.0021(8) -0.0076(9)
N1 0.0408(12) 0.0345(11) 0.0267(10) 0.0075(9) 0.0013(8) -0.0052(9)
N2 0.0367(12) 0.0408(12) 0.0352(11) 0.0014(10) -0.0045(9) -0.0153(10)
N3 0.0359(12) 0.0558(15) 0.0307(11) 0.0064(11) -0.0056(9) -0.0137(10)
N005 0.0306(10) 0.0321(10) 0.0177(9) 0.0001(8) 0.0026(7) 0.0016(8)
N006 0.0261(9) 0.0279(10) 0.0181(8) 0.0026(8) 0.0030(7) -0.0005(8)
N007 0.0251(10) 0.0333(10) 0.0239(9) -0.0005(8) 0.0007(7) -0.0075(8)
N008 0.0276(10) 0.0326(11) 0.0229(9) 0.0008(8) 0.0003(7) -0.0037(8)
N009 0.0273(10) 0.0336(11) 0.0232(9) 0.0017(8) 0.0019(7) -0.0056(8)
C00D 0.0308(12) 0.0276(12) 0.0202(10) 0.0000(9) 0.0025(9) -0.0008(10)
C00E 0.0222(10) 0.0277(11) 0.0195(10) -0.0004(9) 0.0023(8) 0.0018(9)
C00F 0.0218(10) 0.0282(11) 0.0205(10) -0.0021(9) 0.0046(8) -0.0002(9)
C00G 0.0221(11) 0.0297(12) 0.0215(10) -0.0027(9) 0.0018(8) -0.0022(9)
C00H 0.0300(12) 0.0326(12) 0.0193(11) 0.0021(10) 0.0016(9) 0.0089(10)
C00I 0.0237(11) 0.0292(11) 0.0190(10) 0.0006(9) 0.0046(8) 0.0044(9)
C00J 0.0242(11) 0.0257(11) 0.0208(10) -0.0010(9) 0.0038(8) 0.0006(9)
C00K 0.0373(13) 0.0342(12) 0.0208(11) 0.0023(10) 0.0126(9) -0.0036(10)
C00L 0.0324(12) 0.0302(12) 0.0260(11) -0.0010(10) 0.0084(9) -0.0051(10)
C00M 0.0377(13) 0.0365(13) 0.0227(11) 0.0071(10) 0.0028(9) 0.0013(11)
C00N 0.0286(12) 0.0285(12) 0.0300(12) -0.0006(10) 0.0043(9) -0.0070(9)
C00O 0.0318(12) 0.0301(12) 0.0232(11) 0.0026(10) 0.0046(9) -0.0029(10)
C00P 0.0298(13) 0.0520(16) 0.0290(12) -0.0053(12) -0.0001(10) -0.0123(11)
C00Q 0.0374(14) 0.0463(15) 0.0318(13) 0.0091(12) -0.0045(10) -0.0102(12)
 
_geom_special_details
;
 All esds (except the esd in the dihedral angle between two l.s. planes)
 are estimated using the full covariance matrix.  The cell esds are taken
 into account individually in the estimation of esds in distances, angles
 and torsion angles; correlations between esds in cell parameters are only
 used when they are defined by crystal symmetry.  An approximate (isotropic)
 treatment of cell esds is used for estimating esds involving l.s. planes.
;
 
loop_
 _geom_bond_atom_site_label_1
 _geom_bond_atom_site_label_2
 _geom_bond_distance
 _geom_bond_site_symmetry_2
 _geom_bond_publ_flag
Zn01 O1 1.9399(15) . ?
Zn01 O1 1.9400(15) 2_556 ?
Zn01 N005 2.0163(18) 2_556 ?
Zn01 N005 2.0164(18) . ?
S002 N008 1.6135(18) . ?
S002 N009 1.6140(18) . ?
O1 C00H 1.291(3) . ?
O004 C00H 1.224(3) . ?
N1 C00M 1.312(3) . ?
N1 N006 1.375(2) . ?
N2 C00P 1.313(3) . ?
N2 N007 1.373(3) . ?
N3 C00Q 1.315(3) . ?
N3 C00P 1.352(3) . ?
N005 C00D 1.324(3) . ?
N005 C00M 1.357(3) . ?
N006 C00D 1.332(3) . ?
N006 C00E 1.423(3) . ?
N007 C00Q 1.340(3) . ?
N007 C00G 1.418(3) . ?
N008 C00F 1.345(3) . ?
N009 C00J 1.342(3) . ?
C00D H00D 0.9300 . ?
C00E C00O 1.363(3) . ?
C00E C00F 1.416(3) . ?
C00F C00J 1.441(3) . ?
C00G C00N 1.361(3) . ?
C00G C00J 1.421(3) . ?
C00H C00I 1.509(3) . ?
C00I C00L 1.387(3) . ?
C00I C00K 1.390(3) . ?
C00K C00L 1.382(3) 7 ?
C00K H00K 0.9300 . ?
C00L H00L 0.9300 . ?
C00M H00M 0.9300 . ?
C00N C00O 1.415(3) . ?
C00N H00N 0.9300 . ?
C00O H00O 0.9300 . ?
C00P H00P 0.9300 . ?
C00Q H00Q 0.9300 . ?
 
loop_
 _geom_angle_atom_site_label_1
 _geom_angle_atom_site_label_2
 _geom_angle_atom_site_label_3
 _geom_angle
 _geom_angle_site_symmetry_1
 _geom_angle_site_symmetry_3
 _geom_angle_publ_flag
O1 Zn01 O1 102.42(10) . 2_556 ?
O1 Zn01 N005 100.22(7) . 2_556 ?
O1 Zn01 N005 119.28(7) 2_556 2_556 ?
O1 Zn01 N005 119.28(7) . . ?
O1 Zn01 N005 100.22(7) 2_556 . ?
N005 Zn01 N005 115.73(11) 2_556 . ?
N008 S002 N009 100.35(10) . . ?
C00H O1 Zn01 114.30(15) . . ?
C00M N1 N006 102.32(18) . . ?
C00P N2 N007 101.88(19) . . ?
C00Q N3 C00P 102.5(2) . . ?
C00D N005 C00M 103.95(18) . . ?
C00D N005 Zn01 123.38(15) . . ?
C00M N005 Zn01 132.54(14) . . ?
C00D N006 N1 110.05(17) . . ?
C00D N006 C00E 130.02(18) . . ?
N1 N006 C00E 119.87(17) . . ?
C00Q N007 N2 109.05(18) . . ?
C00Q N007 C00G 131.0(2) . . ?
N2 N007 C00G 119.87(18) . . ?
C00F N008 S002 107.20(14) . . ?
C00J N009 S002 107.01(14) . . ?
N005 C00D N006 109.35(19) . . ?
N005 C00D H00D 125.3 . . ?
N006 C00D H00D 125.3 . . ?
C00O C00E C00F 118.63(18) . . ?
C00O C00E N006 120.22(19) . . ?
C00F C00E N006 121.16(18) . . ?
N008 C00F C00E 127.67(18) . . ?
N008 C00F C00J 112.46(18) . . ?
C00E C00F C00J 119.84(19) . . ?
C00N C00G N007 120.51(19) . . ?
C00N C00G C00J 118.34(18) . . ?
N007 C00G C00J 121.16(19) . . ?
O004 C00H O1 124.2(2) . . ?
O004 C00H C00I 120.9(2) . . ?
O1 C00H C00I 114.8(2) . . ?
C00L C00I C00K 119.38(19) . . ?
C00L C00I C00H 119.8(2) . . ?
C00K C00I C00H 120.68(19) . . ?
N009 C00J C00G 127.39(18) . . ?
N009 C00J C00F 112.97(18) . . ?
C00G C00J C00F 119.63(19) . . ?
C00L C00K C00I 120.4(2) 7 . ?
C00L C00K H00K 119.8 7 . ?
C00I C00K H00K 119.8 . . ?
C00K C00L C00I 120.3(2) 7 . ?
C00K C00L H00L 119.9 7 . ?
C00I C00L H00L 119.9 . . ?
N1 C00M N005 114.32(19) . . ?
N1 C00M H00M 122.8 . . ?
N005 C00M H00M 122.8 . . ?
C00G C00N C00O 122.1(2) . . ?
C00G C00N H00N 119.0 . . ?
C00O C00N H00N 119.0 . . ?
C00E C00O C00N 121.4(2) . . ?
C00E C00O H00O 119.3 . . ?
C00N C00O H00O 119.3 . . ?
N2 C00P N3 115.7(2) . . ?
N2 C00P H00P 122.1 . . ?
N3 C00P H00P 122.1 . . ?
N3 C00Q N007 110.8(2) . . ?
N3 C00Q H00Q 124.6 . . ?
N007 C00Q H00Q 124.6 . . ?
 
_refine_diff_density_max    0.310
_refine_diff_density_min   -0.377
_refine_diff_density_rms    0.060

_shelx_res_file
;
TITL Pvl264btd_auto_a.res in I2/a
    Pvl264btd_auto_a.res
    created by SHELXL-2018/3 at 10:30:57 on 13-Oct-2022
REM Old TITL Pvl264btd_auto in I2/a
REM SHELXT solution in I2/a
REM R1 0.125,  Rweak 0.065,  Alpha 0.025,  Orientation as input
REM Formula found by SHELXT:  C34 N12 O2 S2 Zn
CELL  0.71073  26.9655   5.5481  20.0398   90.000  106.863   90.000
ZERR   32.000   0.0012   0.0002   0.0008    0.000    0.004    0.000
LATT  2
SYMM 1/2-X, Y, -Z
SFAC C H N O S ZN
UNIT 112 64 64 16 8 4
ACTA
TEMP 17
L.S. 10
BOND $H
LIST 6
FMAP 2
PLAN 20
WGHT    0.026200    3.281700
FVAR       0.27650
ZN01  6    0.250000    0.601020    0.500000    10.50000    0.03298    0.03117 =
         0.01315    0.00000    0.00168    0.00000
S002  5    0.385139    0.427584    0.846280    11.00000    0.02963    0.03616 =
         0.02547    0.00466    0.00030   -0.00936
O1    4    0.263968    0.381961    0.432177    11.00000    0.05687    0.03773 =
         0.01871   -0.00033    0.01264    0.00320
O004  4    0.303250    0.678974    0.392926    11.00000    0.05402    0.03915 =
         0.02816   -0.00472    0.00210   -0.00760
N1    3    0.365666    1.085856    0.609478    11.00000    0.04083    0.03447 =
         0.02669    0.00754    0.00133   -0.00523
N2    3    0.555169    1.127918    0.933911    11.00000    0.03670    0.04082 =
         0.03523    0.00141   -0.00455   -0.01530
N3    3    0.579715    0.843162    1.017422    11.00000    0.03588    0.05583 =
         0.03073    0.00639   -0.00557   -0.01368
N005  3    0.308719    0.794330    0.562188    11.00000    0.03058    0.03214 =
         0.01769    0.00011    0.00255    0.00159
N006  3    0.368249    0.900178    0.655814    11.00000    0.02606    0.02792 =
         0.01806    0.00259    0.00299   -0.00047
N007  3    0.523016    0.931205    0.918012    11.00000    0.02509    0.03327 =
         0.02387   -0.00053    0.00071   -0.00750
N008  3    0.369339    0.561695    0.771628    11.00000    0.02758    0.03258 =
         0.02288    0.00075    0.00031   -0.00366
N009  3    0.436599    0.576793    0.886083    11.00000    0.02727    0.03361 =
         0.02315    0.00170    0.00194   -0.00563
C00D  1    0.334416    0.728636    0.626434    11.00000    0.03078    0.02757 =
         0.02016    0.00003    0.00252   -0.00078
AFIX  43
H00D  2    0.329591    0.585128    0.647713    11.00000   -1.20000
AFIX   0
C00E  1    0.405259    0.908275    0.722824    11.00000    0.02223    0.02772 =
         0.01947   -0.00037    0.00226    0.00184
C00F  1    0.404299    0.737515    0.774968    11.00000    0.02182    0.02822 =
         0.02054   -0.00208    0.00460   -0.00021
C00G  1    0.482716    0.924340    0.854236    11.00000    0.02206    0.02972 =
         0.02146   -0.00266    0.00179   -0.00222
C00H  1    0.280345    0.485834    0.384930    11.00000    0.02998    0.03261 =
         0.01933    0.00208    0.00159    0.00888
C00I  1    0.265952    0.358952    0.315321    11.00000    0.02370    0.02917 =
         0.01902    0.00056    0.00458    0.00438
C00J  1    0.443296    0.745918    0.841630    11.00000    0.02421    0.02572 =
         0.02076   -0.00098    0.00376    0.00060
C00K  1    0.240062    0.139315    0.306602    11.00000    0.03729    0.03417 =
         0.02078    0.00228    0.01256   -0.00361
AFIX  43
H00K  2    0.233403    0.064552    0.344644    11.00000   -1.20000
AFIX   0
C00L  1    0.275840    0.468582    0.258312    11.00000    0.03238    0.03016 =
         0.02602   -0.00102    0.00840   -0.00509
AFIX  43
H00L  2    0.293239    0.615298    0.263774    11.00000   -1.20000
AFIX   0
C00M  1    0.329295    1.011955    0.554373    11.00000    0.03774    0.03647 =
         0.02274    0.00707    0.00276    0.00130
AFIX  43
H00M  2    0.318526    1.101202    0.513416    11.00000   -1.20000
AFIX   0
C00N  1    0.481116    1.088872    0.803252    11.00000    0.02859    0.02849 =
         0.03002   -0.00060    0.00428   -0.00705
AFIX  43
H00N  2    0.506098    1.209578    0.811589    11.00000   -1.20000
AFIX   0
C00O  1    0.442628    1.081953    0.737969    11.00000    0.03183    0.03012 =
         0.02319    0.00260    0.00462   -0.00291
AFIX  43
H00O  2    0.442829    1.198416    0.704671    11.00000   -1.20000
AFIX   0
C00P  1    0.587677    1.063764    0.993761    11.00000    0.02982    0.05205 =
         0.02903   -0.00528   -0.00006   -0.01225
AFIX  43
H00P  2    0.614467    1.163665    1.018309    11.00000   -1.20000
AFIX   0
C00Q  1    0.539138    0.765256    0.968246    11.00000    0.03739    0.04632 =
         0.03182    0.00911   -0.00449   -0.01024
AFIX  43
H00Q  2    0.523723    0.615346    0.968320    11.00000   -1.20000
AFIX   0
HKLF 4




REM  Pvl264btd_auto_a.res in I2/a
REM wR2 = 0.0792, GooF = S = 1.054, Restrained GooF = 1.054 for all data
REM R1 = 0.0348 for 2681 Fo > 4sig(Fo) and 0.0456 for all 3201 data
REM 231 parameters refined using 0 restraints

END

WGHT      0.0262      3.2815

REM Highest difference peak  0.310,  deepest hole -0.377,  1-sigma level  0.060
Q1    1   0.4212  0.7776  0.8084  11.00000  0.05    0.31
Q2    1   0.4056  0.8098  0.7460  11.00000  0.05    0.30
Q3    1   0.4281  0.7401  0.8012  11.00000  0.05    0.30
Q4    1   0.4369  0.9532  0.7237  11.00000  0.05    0.28
Q5    1   0.4998  0.9382  0.8908  11.00000  0.05    0.26
Q6    1   0.3921  0.8890  0.6918  11.00000  0.05    0.25
Q7    1   0.3186  0.7532  0.5893  11.00000  0.05    0.25
Q8    1   0.4613  1.0532  0.7699  11.00000  0.05    0.24
Q9    1   0.2914  0.7284  0.5203  11.00000  0.05    0.24
Q10   1   0.3644  0.4996  0.7496  11.00000  0.05    0.23
Q11   1   0.2644  0.2204  0.3130  11.00000  0.05    0.22
Q12   1   0.2601  0.4216  0.2864  11.00000  0.05    0.22
Q13   1   0.2500  0.2366  0.5000  10.50000  0.05    0.21
Q14   1   0.3344  0.3653  0.4622  11.00000  0.05    0.21
Q15   1   0.4511  0.5053  0.9023  11.00000  0.05    0.20
Q16   1   0.2659  0.4269  0.3407  11.00000  0.05    0.20
Q17   1   0.2815  0.7188  0.3817  11.00000  0.05    0.20
Q18   1   0.4795  1.1605  0.8125  11.00000  0.05    0.20
Q19   1   0.3054  0.8355  0.4207  11.00000  0.05    0.20
Q20   1   0.4533  0.8749  0.8566  11.00000  0.05    0.20
;
_shelx_res_checksum   48248

_shelx_hkl_file
;
   0   0   2  178.10    4.25
   0   0  -2  175.60    4.20
   0   0  -4    2.94    0.92
   0   0   4    2.98    1.06
   0   0  -6  306.79    9.68
   0   0   6  294.54    9.65
   0   0  -8 1424.10   24.42
   0   0   8 1467.58   24.85
   0   0 -10    7.29    2.04
   0   0  10    5.17    1.81
   0   0  12  894.41   24.16
   0   0 -12  932.12   24.17
   0   0 -14  963.83   26.98
   0   0  14  963.87   27.31
   0   0  16  200.04   13.60
   0   0  18  757.88   28.40
   0   0  20  293.95   18.90
   0   0  22   11.89    3.96
   0   0  24   50.57    8.83
   0  -1   1 1444.35   14.53
   0   1  -1 1417.48   14.45
   0   1  -3 4795.36   32.83
   0  -1   3 4807.61   33.21
   0   1  -5  145.08    6.89
   0  -1  -5  146.46    5.84
   0  -1   5  152.83    7.06
   0   1  -7   70.12    5.53
   0   1   7   76.23    5.14
   0  -1   7   75.81    5.77
   0  -1  -7   76.97    5.04
   0   1   9  502.01   14.91
   0  -1  -9  507.64   14.67
   0  -1   9  511.71   16.72
   0   1  -9  511.53   16.47
   0  -1 -11 2080.43   33.60
   0  -1  11 2039.81   36.59
   0   1 -11 2146.04   37.14
   0   1  11 2012.72   33.44
   0  -1 -13   23.28    4.08
   0   1 -13   25.63    4.39
   0   1  13   29.09    4.56
   0  -1  13   25.98    4.47
   0  -1  15 1102.88   31.79
   0   1  15 1134.52   30.25
   0  -1 -15 1150.91   29.67
   0  -1  17  189.83   14.23
   0   1  17  194.35   13.58
   0  -1  19   26.39    5.96
   0   1  19   33.01    6.05
   0   1  21   39.48    7.41
   0  -1  21   38.19    7.59
   0  -1  23  187.34   17.31
   0  -2   0 1497.70   18.77
   0  -2   2  110.32    5.75
   0  -2   4    1.17    1.02
   0   2  -4    0.03    0.76
   0   2  -6    1.21    1.01
   0  -2   6    2.60    1.55
   0  -2  -6    4.02    1.22
   0  -2   8  440.31   15.92
   0   2  -8  423.11   15.50
   0  -2  -8  403.94   12.50
   0   2 -10    9.92    2.38
   0  -2 -10   10.92    2.30
   0  -2  10   10.12    3.10
   0  -2  12  254.50   14.41
   0  -2 -12  240.85   11.76
   0   2 -12  244.11   13.92
   0  -2 -14   77.62    7.34
   0  -2  14   85.19    8.98
   0  -2  16    4.59    2.77
   0   2  16    3.37    0.66
   0  -2 -16    4.53    2.61
   0   2  16    3.02    0.63
   0  -2  18   43.99    7.60
   0  -2  20  180.21   16.03
   0  -2  22    1.40    3.09
   0  -3  -1  621.96   14.43
   0  -3   1  603.61   15.18
   0  -3   3  131.97    7.80
   0  -3   5    8.25    2.41
   0  -3   7   26.45    4.19
   0   3  -7   29.28    4.48
   0   3  -9    1.12    1.36
   0  -3   9    0.07    1.61
   0  -3 -11   29.12    4.11
   0  -3  11   23.84    4.85
   0  -3  13    6.75    2.82
   0  -3 -13    8.46    2.47
   0  -3 -15   22.77    4.41
   0  -3  15   28.04    5.68
   0  -3  17   13.70    4.26
   0  -3  19    7.71    4.30
   0  -3  21    5.50    4.34
   0  -4   0  737.70   18.84
   0  -4   2  100.37    7.42
   0  -4  -2  107.23    6.86
   0  -4   4   80.51    7.09
   0  -4   6  267.37   13.85
   0  -4   8    0.16    2.07
   0  -4 -10  256.98   11.71
   0  -4  10  241.96   15.00
   0  -4 -12  253.26   12.32
   0  -4  12  257.10   16.71
   0  -4  14  162.11   14.08
   0  -4  16   91.19   11.06
   0  -4  18   10.25    3.63
   0  -5   1   63.59    6.45
   0  -5  -1   68.16    6.32
   0  -5  -3  657.60   18.85
   0  -5   3  676.59   22.22
   0  -5   5  149.67   11.05
   0  -5  -5  141.13    8.58
   0  -5  -7   16.55    2.29
   0  -5   7   14.94    4.11
   0  -5  -7   17.43    2.39
   0  -5   9   11.54    3.83
   0  -5  11  172.76   14.22
   0  -5  13   75.49   10.10
   0  -5  15  450.72   25.72
   0  -6   0  712.77   23.19
   0  -6   2    6.36    2.27
   0  -6  -2   11.10    3.14
   0  -6  -4    0.83    1.15
   0  -6   4   -2.55    1.93
   0  -6   6  114.53   10.95
   0  -6   8  103.76   11.00
   0  -6  10    2.05    2.05
   0  -6  12   66.65   10.01
   0  -6  14  160.82   15.73
   0  -7   9   -2.39    3.51
  -1   0  23   -2.97    4.42
  -1   0  21   -2.87    3.29
  -1   0  19   -0.86    2.40
  -1   0  17   -0.60    1.73
  -1   0  15    1.48    1.93
   1   0 -15    0.30    1.78
   1   0 -13   -0.72    1.19
  -1   0  13    1.35    1.66
   1   0 -11   -0.59    1.42
  -1   0  11    2.01    1.85
  -1   0   9   -1.59    1.34
   1   0  -9   -0.16    0.98
  -1   0   7    0.27    1.12
   1   0  -7    0.33    0.78
   1   0  -5   -0.29    0.81
  -1   0   5    4.54    1.22
  -1   0   3   -0.01    0.48
   1   0  -3   -0.11    0.47
   1   0   3    0.13    0.63
  -1   0  -3   -0.46    0.42
   1   0   5   -0.37    1.01
  -1   0  -5    0.43    0.65
  -1   0  -7    1.31    0.95
   1   0   7    1.07    1.28
   1   0   9    3.27    1.88
  -1   0  -9    0.74    1.04
  -1   0 -11    1.16    1.40
   1   0  11    0.90    1.44
   1   0  13    3.50    2.25
  -1   0 -13    2.85    2.17
   1   0  15   -0.39    1.66
  -1   0 -15   -1.41    2.13
   1   0  17   -1.40    2.63
   1   0  19    1.78    1.94
   1   0  21    4.17    2.64
   1   0  23    1.44    3.09
  -1  -1  22  119.15   13.13
  -1   1  20   79.56    6.74
  -1   1  20   98.37   11.22
  -1  -1  20   83.75   10.68
  -1   1  18  497.56   15.61
  -1  -1  18  495.78   23.68
  -1   1  18  499.54   22.74
  -1  -1  16  270.56   16.25
  -1   1  16  265.22   15.35
   1  -1 -14   65.74    6.97
   1   1 -14   72.30    7.78
  -1  -1  14   66.60    7.65
  -1   1  14   57.17    6.59
  -1   1  12   -0.36    1.43
   1   1 -12    1.77    1.74
   1  -1 -12    0.91    1.02
  -1  -1  12    1.67    1.77
   1  -1 -10   19.76    3.29
  -1  -1  10   16.35    3.34
  -1   1  10   14.99    3.07
   1   1 -10   18.20    3.33
   1  -1  -8 2034.82   28.06
   1   1  -8 2026.74   30.95
  -1   1   8 2050.09   28.73
  -1   1   8 2069.36   17.13
  -1  -1   8 2066.52   31.44
   1   1  -6    7.72    1.80
  -1   1   6   10.29    0.94
   1  -1  -6   10.06    1.92
  -1  -1   6    8.18    1.72
   1   1  -4    9.75    1.64
  -1  -1   4    5.41    1.22
  -1  -1   2  241.32    6.34
   1   1  -2  237.59    6.29
  -1  -1   0  824.63    8.47
   1  -1   2  558.59   10.73
  -1   1  -2  546.82   10.62
   1  -1   4   24.81    2.75
  -1  -1  -4   21.22    1.91
  -1   1  -4   23.49    2.72
  -1  -1  -6  101.67    5.22
  -1   1  -6  105.03    6.32
   1  -1   6  107.98    6.46
   1   1   6   95.60    5.11
   1   1   8  341.53   11.37
  -1  -1  -8  348.56   11.39
  -1   1  -8  348.30   13.02
   1  -1   8  349.46   13.19
  -1  -1 -10  482.71   15.24
   1  -1  10  485.24   17.25
   1   1  10  480.64   15.37
  -1   1 -10  477.27   16.93
  -1  -1 -12   89.70    7.29
   1  -1  12   87.89    8.00
   1   1  12   90.36    7.38
  -1   1 -12   91.17    8.27
   1  -1  14  359.14   17.69
  -1  -1 -14  370.90   16.19
   1   1  14  371.09   16.56
   1   1  16   11.75    3.31
  -1  -1 -16   11.04    2.99
   1  -1  16   12.61    3.69
   1   1  18  260.04   16.32
   1  -1  18  245.93   16.90
   1   1  20    4.11    2.06
   1  -1  20    2.48    3.22
   1  -1  22   12.07    5.17
   1   1  22   15.93    5.53
  -1  -2  21  209.43   17.69
  -1  -2  19  757.04   31.42
  -1   2  17  279.41    6.26
  -1   2  17  280.48    6.21
  -1  -2  17  275.76   17.84
   1  -2 -15   34.28    5.05
  -1  -2  15   34.47    5.86
   1  -2 -13  129.49    9.17
  -1  -2  13  130.44   10.70
   1   2 -11 1944.20   37.57
   1  -2 -11 1861.17   31.58
  -1  -2  11 1852.69   37.09
   1  -2  -9  459.18   14.36
   1   2  -9  471.00   16.97
  -1  -2   9  478.77   17.29
   1  -2  -7 1163.32   20.79
   1   2  -7 1197.22   24.44
  -1  -2   7 1176.25   24.34
   1   2  -5 1937.33   27.82
  -1  -2   5 1921.96   27.89
   1  -2  -5 1929.34   12.53
   1   2  -3   75.39    4.87
  -1  -2   3   75.24    4.88
  -1  -2   1  729.17   13.08
   1  -2   1  444.48   11.32
   1  -2   3  325.89   10.83
  -1  -2  -5  250.06    7.87
   1  -2   5  252.86   10.61
  -1   2  -5  249.84   10.46
  -1   2  -7 2474.55   36.51
   1  -2   7 2471.21   36.42
  -1  -2  -7 2419.46   27.53
  -1   2  -9 1107.90   26.53
   1  -2   9 1066.83   26.17
  -1  -2  -9 1051.75   20.64
  -1  -2 -11    0.81    1.07
   1  -2  11    1.46    1.69
  -1   2 -11    2.52    1.69
  -1  -2 -13   45.18    5.43
   1  -2  13   41.73    6.18
   1  -2  15  733.78   27.42
  -1  -2 -15  699.45   22.70
   1  -2  17   22.70    5.30
   1   2  17   17.61    1.49
   1   2  17   19.40    1.66
   1  -2  19   97.80   11.46
   1  -2  21  190.00   16.94
  -1  -3  20  175.50   16.44
  -1  -3  18   -1.54    2.53
  -1  -3  16  137.97   12.88
   1  -3 -16  125.05   10.15
   1  -3 -14  449.34   17.82
  -1  -3  14  482.05   22.32
   1  -3 -12   13.12    3.08
  -1  -3  12   13.76    3.59
   1   3 -10  319.85   15.72
  -1  -3  10  280.01   14.93
   1  -3 -10  290.72   12.35
   1   3  -8 1924.03   35.59
   1  -3  -8 1872.91   29.38
  -1  -3   8 1859.92   35.22
  -1  -3   6 1281.62   26.90
   1  -3  -6 1315.45   14.26
   1   3  -6 1313.17   27.28
  -1  -3   4  169.20    8.89
  -1  -3   2  655.04   15.96
  -1  -3   0  162.52    7.23
   1  -3   0  162.59    7.98
   1  -3   2  168.71    8.67
   1  -3   4 2993.52   39.39
  -1   3  -6   27.14    4.19
   1  -3   6   26.25    4.04
  -1  -3  -6   26.90    1.79
  -1   3  -8    3.40    2.02
  -1  -3  -8    5.77    1.67
   1  -3   8    1.22    1.32
  -1  -3 -10  708.70   18.03
   1  -3  10  744.42   24.58
  -1   3 -10  738.72   24.41
  -1  -3 -12  333.02   13.65
   1  -3  12  338.40   17.84
  -1  -3 -14    7.34    2.13
   1  -3  14    1.15    1.74
  -1  -3 -16    3.81    2.08
   1  -3  16    2.31    1.97
   1  -3  18  400.61   23.74
   1  -3  20    2.16    2.96
  -1  -4  19  191.56   17.43
  -1  -4  17   19.88    5.32
  -1  -4  15   50.87    8.20
   1  -4 -13  243.05   12.75
  -1  -4  13  251.78   16.95
   1  -4 -11  412.21   15.81
  -1  -4  11  433.37   20.62
  -1  -4   9  105.86    9.55
   1  -4  -9  116.26    8.06
   1  -4  -7   29.88    2.55
  -1  -4   7   22.83    4.16
  -1  -4   5  738.10   21.75
  -1  -4   3   52.79    5.43
  -1  -4   1   88.87    6.64
   1  -4  -1   85.13    6.50
  -1  -4  -1  288.96   11.02
   1  -4   1  271.36   12.20
  -1  -4  -3  235.58    9.56
   1  -4   3  230.27   11.88
   1  -4   5    8.71    2.85
  -1  -4  -7  656.76   10.29
  -1  -4  -7  632.39   10.25
   1  -4   7  631.92   22.29
   1  -4   9   -0.01    1.42
  -1  -4  -9    2.01    1.15
  -1  -4 -11   33.78    4.32
   1  -4  11   33.87    6.10
  -1  -4 -13   87.50    7.32
   1  -4  13   91.35   10.45
   1  -4  15  598.65   27.92
   1  -4  17   -0.83    1.95
  -1  -5  16   49.90    8.86
  -1  -5  14    7.96    4.24
  -1  -5  12   10.76    4.13
  -1  -5  10    9.75    3.37
  -1  -5   8    0.67    1.54
   1  -5  -8    0.67    0.69
  -1  -5   6   13.76    3.55
  -1  -5   4    1.44    1.92
   1  -5  -4   -0.66    1.65
   1  -5  -2   43.73    5.06
  -1  -5   2   48.64    5.80
   1  -5   0    1.73    1.88
  -1  -5   0    3.85    1.61
   1  -5   2    3.16    1.85
  -1  -5  -2    7.41    2.00
   1  -5   4  103.99    9.16
  -1  -5  -4  124.10    7.74
  -1  -5  -6   53.16    4.56
   1  -5   6   58.22    7.50
  -1  -5  -6   68.82    5.64
   1  -5   8   84.30    9.23
   1  -5  10   71.34    9.12
   1  -5  12   15.31    4.83
   1  -5  14   17.60    4.44
   1  -5  16    3.19    2.71
  -1  -6  13    8.60    4.09
  -1  -6  11    2.91    2.94
  -1  -6   9   32.47    6.64
  -1  -6   7    3.81    2.52
  -1  -6   5   27.41    5.09
   1  -6  -5   36.89    5.02
  -1  -6   3  147.03   11.21
   1  -6  -3  126.10    9.47
  -1  -6   1    6.08    2.03
   1  -6  -1    5.08    2.10
   1  -6   1    3.67    1.89
  -1  -6  -1    5.23    2.18
  -1  -6  -3    7.36    2.30
   1  -6   3    5.33    2.85
   1  -6   5   23.52    4.87
   1  -6   7    8.37    3.35
   1  -6   9   64.90    9.11
   1  -6  11   27.62    6.97
   1  -6  13   12.43    5.04
   1  -7   8   70.09   10.03
  -2   0  24  145.92   15.39
  -2   0  22   15.82    5.04
  -2   0  20  110.44   11.69
  -2   0  18  900.21   30.84
  -2   0  16 1500.27   36.94
   2   0 -14  233.16   13.26
  -2   0  14  203.48   12.57
   2   0 -12  202.48   11.41
  -2   0  12  211.09   11.79
   2   0 -10  231.60   11.08
  -2   0  10  236.08   11.30
  -2   0   8   18.41    3.03
   2   0  -8   13.96    2.52
  -2   0   6  361.63   10.65
   2   0  -6  343.33   10.37
   2   0  -4 3357.55   26.48
  -2   0   4 3384.57   26.85
  -2   0   2  302.10    5.36
   2   0  -2  293.08    5.29
   2   0  -2  291.24    5.87
  -2   0  -2 1139.50   11.78
   2   0   2 1162.04   11.79
   2   0   4 1251.68   16.46
  -2   0  -4 1208.33   16.09
   2   0   6  211.75    8.27
  -2   0  -6  204.06    8.00
  -2   0  -8  426.92   13.42
   2   0   8  426.59   13.47
   2   0  10 1252.23   26.12
  -2   0 -10 1253.44   25.71
   2   0  12  141.15    9.72
  -2   0 -12  163.85   10.30
  -2   0 -14  661.25   22.48
   2   0  14  647.34   22.52
   2   0  16 1239.11   33.87
   2   0  18  108.71   10.86
   2   0  20  187.24   15.29
   2   0  22  185.48   16.33
   2   0  24   -3.98    3.05
  -2  -1  23    4.63    2.06
  -2  -1  21   19.46    5.58
  -2   1  21   21.82    3.80
  -2  -1  19   35.93    6.78
  -2   1  19   41.12    4.70
  -2   1  19   43.31    6.95
  -2   1  17  586.07   23.80
  -2   1  17  590.74   16.50
  -2  -1  17  557.88   24.17
  -2   1  15  229.43    9.48
  -2   1  15  217.21   13.38
  -2  -1  15  210.00   13.76
   2  -1 -15  218.52   13.17
  -2   1  13   71.64    7.04
   2  -1 -13   69.51    6.84
   2   1 -13   78.22    7.61
  -2   1  13   73.09    4.85
  -2  -1  13   59.16    6.83
   2  -1 -11   21.47    3.56
  -2   1  11   27.34    4.19
   2   1 -11   24.13    3.93
  -2  -1  11   22.78    3.90
  -2   1  11   23.13    2.47
   2  -1  -9 1701.32   27.55
   2   1  -9 1742.25   29.93
  -2   1   9 1708.43   17.80
  -2  -1   9 1725.49   30.24
   2  -1  -7  689.06   15.64
  -2   1   7  686.57    9.20
   2   1  -7  684.60   16.81
  -2  -1   7  690.64   16.89
   2  -1  -5  307.30    9.20
  -2  -1   5  318.82    9.97
   2  -1  -5  306.29    4.98
   2   1  -5  309.15    9.70
  -2   1   5  308.13    4.99
   2   1  -3   47.70    3.15
  -2  -1   3   52.72    3.32
   2  -1  -3   46.09    2.02
  -2  -1   1   62.92    2.60
   2   1  -1   60.93    2.56
  -2  -1  -1  314.88    5.79
   2  -1   1  301.95    7.77
  -2   1  -3  121.68    5.65
   2  -1   3  126.32    5.88
  -2  -1  -3  121.02    3.68
  -2  -1  -5  684.10   11.96
  -2   1  -5  675.26   15.48
   2   1   5  689.69   12.14
   2  -1   5  708.90   15.81
   2   1   5  675.14    7.47
   2   1   7  247.23    8.93
   2   1   7  232.18    5.61
  -2  -1  -7  220.36    8.37
  -2   1  -7  229.51   10.17
   2  -1   7  239.75   10.44
  -2   1  -9  877.28   22.07
   2  -1   9  880.44   22.37
   2   1   9  859.13   19.28
  -2  -1  -9  833.52   18.66
   2   1  11  414.53   15.06
  -2   1 -11  437.89   17.11
   2  -1  11  438.70   17.32
  -2  -1 -11  409.10   14.66
  -2   1 -13  156.39   11.09
  -2  -1 -13  155.66   10.05
   2   1  13  141.30    9.74
   2  -1  13  146.61   10.87
   2   1  15  164.74   11.48
  -2  -1 -15  168.66   11.33
   2  -1  15  171.73   12.67
   2   1  17  610.26   24.05
   2  -1  17  627.11   26.01
   2  -1  19  136.90   13.12
   2   1  19  139.15   12.46
   2  -1  21    7.36    3.42
   2   1  21   25.37    6.36
   2   1  23   44.07    8.49
   2  -1  23   33.73    7.32
  -2  -2  22   -5.47    3.44
  -2  -2  20   29.79    6.81
  -2   2  18   43.83    2.79
  -2  -2  18   53.69    9.53
  -2   2  16   20.46    1.69
   2  -2 -16   14.68    3.80
  -2  -2  16   10.16    3.59
   2  -2 -14    7.52    2.60
  -2  -2  14    2.01    2.03
   2   2 -12  136.23   10.24
   2  -2 -12  121.11    8.67
  -2  -2  12  124.91    9.96
   2   2 -10   28.30    4.39
  -2  -2  10   25.91    4.31
   2  -2 -10   26.37    3.74
  -2  -2   8    1.12    1.36
   2   2  -8    2.44    1.23
   2  -2  -8    1.95    1.40
   2   2  -6  593.54   16.04
  -2  -2   6  598.25   16.26
   2  -2  -6  585.68    6.70
  -2  -2   4  856.81   17.05
   2  -2  -4  840.16   11.27
   2   2  -4  830.76   16.89
  -2  -2   2   14.48    1.99
   2   2  -2   13.85    1.94
  -2  -2   0    9.47    1.36
   2  -2   2  177.27    7.85
   2  -2   4  343.72   12.04
  -2  -2  -4  342.61    6.18
  -2   2  -4  341.85   11.95
  -2   2  -6   -0.13    1.03
   2  -2   6   -0.28    1.24
  -2  -2  -6    1.02    0.85
  -2  -2  -8  356.70   11.11
   2  -2   8  368.02   14.95
  -2   2  -8  377.60   15.09
  -2   2 -10    2.17    1.42
  -2  -2 -10    3.86    1.48
   2  -2  10    4.84    1.66
  -2   2 -12    5.86    2.59
   2  -2  12    1.22    1.53
  -2  -2 -12    5.13    1.94
  -2  -2 -14   38.16    5.07
   2  -2  14   34.75    5.86
   2   2  16   10.20    1.18
   2  -2  16    7.35    2.89
  -2  -2 -16    7.57    2.45
   2   2  16   11.15    1.23
   2  -2  18   24.73    6.11
   2  -2  20    3.10    2.44
   2  -2  22    1.17    2.28
  -2  -3  21    8.27    4.41
  -2  -3  19   19.20    5.59
  -2  -3  17    9.09    3.71
   2  -3 -15   10.47    2.74
  -2  -3  15    9.32    3.70
  -2  -3  13    1.39    1.40
   2  -3 -13    5.03    2.24
   2  -3 -11   36.02    4.77
  -2  -3  11   37.16    5.68
   2   3 -11   30.35    4.98
   2   3  -9    0.17    1.22
  -2  -3   9    0.23    1.24
   2  -3  -9    1.05    1.03
   2  -3  -7    6.82    0.98
  -2  -3   7   10.07    2.77
   2   3  -7    4.99    1.54
  -2  -3   5   17.62    3.06
   2   3  -5   22.03    3.29
  -2  -3   3    2.10    1.50
  -2  -3   1    3.95    1.29
   2  -3   1  229.31   10.07
  -2  -3  -1  217.56    7.61
   2  -3   3   12.10    2.56
   2  -3   5   15.71    3.17
  -2  -3  -5   14.71    1.67
  -2   3  -7   37.62    4.99
   2  -3   7   37.58    5.28
  -2  -3  -7   34.29    3.38
  -2   3  -9   36.89    5.30
   2  -3   9   24.37    4.45
  -2  -3  -9   24.17    3.18
  -2  -3 -11  105.63    7.17
   2  -3  11  111.25   10.05
  -2  -3 -13   94.51    7.56
   2  -3  13  107.25   10.64
   2  -3  15   87.86   10.31
  -2  -3 -15   70.81    7.08
   2  -3  17    5.16    2.67
   2  -3  19   24.05    6.15
  -2  -4  18   19.62    5.78
  -2  -4  16    3.41    3.39
   2  -4 -14  188.94   11.99
  -2  -4  14  234.41   16.58
  -2  -4  12   63.85    8.35
   2  -4 -12   58.83    6.56
   2  -4 -10  213.21   11.55
  -2  -4  10  218.75   14.05
   2  -4  -8   35.14    2.33
   2   4  -8   35.71    5.38
  -2  -4   8   34.85    5.36
  -2  -4   6  405.26   16.38
   2  -4  -6  395.10   11.01
  -2  -4   4   15.16    2.95
  -2  -4   2  131.24    8.04
   2  -4   0   94.72    7.24
  -2  -4   0  101.17    6.54
   2  -4   2   74.74    6.75
  -2  -4  -2   84.34    5.53
   2  -4   4  421.67   16.99
  -2  -4  -6  375.04    9.57
   2  -4   6  361.32   16.65
   2  -4   8   58.69    7.28
  -2  -4  -8   61.58    4.89
  -2  -4 -10  118.03    7.30
   2  -4  10  113.06   10.46
   2  -4  12  288.08   17.96
  -2  -4 -12  281.71   12.11
   2  -4  14    1.34    2.62
   2  -4  16   39.74    7.78
   2  -4  18   24.56    6.47
  -2  -5  17   90.76   12.00
  -2  -5  15   38.47    7.73
  -2  -5  13  135.80   13.16
  -2  -5  11    1.63    2.27
  -2  -5   9   15.00    4.17
   2  -5  -7  107.31    6.27
  -2  -5   7   98.06    9.36
  -2  -5   5  128.24    9.90
  -2  -5   3  629.20   20.41
   2  -5  -3  629.41   19.83
   2  -5  -1   91.48    7.79
  -2  -5   1  110.37    8.05
   2  -5   1  103.26    8.73
  -2  -5  -1  107.47    7.40
   2  -5   3   83.22    8.24
  -2  -5  -3   89.61    6.37
   2  -5   5  138.35   11.05
  -2  -5  -5  130.59    7.35
  -2  -5  -5  144.22    8.00
  -2  -5  -7    9.18    1.55
   2  -5   7    8.44    3.35
   2  -5   9   12.03    4.32
   2  -5  11  108.19   11.40
   2  -5  13  148.78   14.29
   2  -5  15   57.80    9.60
  -2  -6  14   34.01    7.28
  -2  -6  12  127.31   13.25
  -2  -6  10   81.00   10.17
  -2  -6   8    0.85    2.38
   2  -6  -6   22.74    4.04
  -2  -6   6   22.03    4.59
  -2  -6   4  165.11   11.92
   2  -6  -4  180.23   11.49
  -2  -6   2   61.41    6.83
   2  -6  -2   60.52    6.89
   2  -6   0   99.72    9.23
  -2  -6   0   91.77    7.82
   2  -6   2  168.01   12.46
  -2  -6  -2  180.89   10.26
   2  -6   4    6.36    2.54
   2  -6   6   42.83    7.03
   2  -6   8  107.17   11.52
   2  -6  10   -3.00    3.07
   2  -6  12   -0.45    2.77
   2  -7   5   38.53    7.29
   2  -7   7   -7.31    4.18
   2  -7   9    2.94    3.26
  -3   0  23    1.03    1.89
  -3   0  23   -0.63    2.55
  -3   0  21    0.41    2.25
  -3   0  19    3.48    3.24
  -3   0  17   -1.56    1.89
  -3   0  15    2.98    2.38
   3   0 -15   -3.27    1.96
  -3   0  13   -0.17    1.46
   3   0 -13    1.07    1.64
  -3   0  11    0.85    1.80
   3   0 -11    2.00    1.38
   3   0  -9   -0.16    0.92
  -3   0   9    2.58    1.77
   3   0  -7    1.30    1.24
  -3   0   7   -0.36    0.77
   3   0  -5   51.05    3.72
  -3   0   5    1.15    1.11
   3   0  -3    2.84    0.82
  -3   0   3    3.15    0.80
   3   0  -3    2.86    0.70
  -3   0   1    0.13    0.47
   3   0  -1    0.57    0.44
   3   0   1    0.94    0.55
  -3   0  -1    1.04    0.61
   3   0   3   -0.21    0.60
  -3   0  -3    0.05    0.62
  -3   0  -5    0.36    0.87
   3   0   5    0.43    0.70
   3   0   7   -0.59    1.17
  -3   0  -7   -0.37    0.85
   3   0   9   -0.21    1.29
  -3   0  -9    1.63    1.10
   3   0  11   -0.55    1.32
  -3   0 -11   -0.12    1.23
   3   0  13   -0.33    1.93
  -3   0 -13   -1.08    1.56
   3   0  15   -0.97    1.97
   3   0  17    3.45    2.32
   3   0  19    2.28    2.47
   3   0  21   -2.00    3.34
   3   0  23    1.27    2.58
  -3  -1  24   27.89    7.23
  -3  -1  22   -2.22    3.02
  -3   1  20  140.85    8.94
  -3  -1  20  166.38   14.66
  -3   1  18    8.39    2.17
  -3  -1  18   13.27    4.30
  -3   1  16   79.32    5.95
  -3  -1  16   73.57    8.51
  -3   1  14   23.50    2.97
  -3  -1  14   25.55    4.58
   3  -1 -14   24.57    4.40
   3   1 -14   17.24    4.04
  -3   1  12   74.42    4.68
   3   1 -12   69.55    6.98
  -3  -1  12   80.95    7.59
   3  -1 -12   86.31    7.38
   3  -1 -10   57.73    5.45
  -3  -1  10   51.21    5.48
  -3   1  10   56.82    3.63
   3   1 -10   54.38    5.58
  -3  -1   8 3865.08   42.59
  -3   1   8 3806.74   25.65
   3   1  -8 3864.81   42.04
   3  -1  -8 3762.37   39.94
  -3   1   6  260.15    5.76
   3  -1  -6  240.00    9.02
   3   1  -6  249.56    9.50
  -3  -1   6  253.38    9.56
  -3   1   4  330.72    6.17
   3  -1  -4  333.57    6.26
   3   1  -4  324.74    9.06
  -3  -1   4  320.87    9.10
  -3  -1   2 5729.19   28.94
   3  -1  -2 5646.12   28.67
   3   1  -2 5659.47   28.60
  -3  -1   0   90.52    3.77
   3   1   2  495.13    7.50
  -3  -1  -2  508.37    7.63
   3  -1   2  504.77   11.38
   3  -1   4  151.50    7.15
   3   1   4  155.22    4.95
  -3  -1  -4  147.03    4.79
  -3  -1  -4  150.10    3.98
   3   1   4  155.54    4.09
  -3   1  -4  155.98    7.12
   3   1   6  475.37    8.12
   3   1   6  470.13   11.11
  -3  -1  -6  442.54   10.66
  -3   1  -6  481.30   14.13
   3  -1   6  475.25   14.12
   3   1   8    4.72    1.00
  -3  -1  -8    5.47    1.48
  -3   1  -8    5.53    1.77
   3  -1   8    5.78    2.00
   3   1   8    6.91    1.89
   3  -1  10  294.74   13.78
  -3   1 -10  300.68   13.69
  -3  -1 -10  296.16   11.70
   3   1  10  303.66   12.15
  -3   1 -12  718.24   22.97
  -3  -1 -12  668.61   19.87
   3   1  12  666.98   20.16
   3  -1  12  700.27   23.05
   3   1  14    3.43    1.22
   3  -1  14    1.99    1.61
  -3  -1 -14    2.35    2.15
   3  -1  16    8.10    2.88
   3   1  16   13.19    3.56
   3  -1  18   12.15    3.92
   3   1  18   11.41    3.28
   3  -1  20  123.35   12.94
   3   1  20  128.59   12.45
   3  -1  22   11.99    4.64
   3   1  22   15.62    4.61
   3   1  24   79.75   11.23
  -3  -2  23  259.97   20.89
  -3  -2  21    9.50    5.13
  -3  -2  19  118.39   12.39
  -3  -2  17  199.01   15.04
  -3   2  17  199.50    6.10
   3  -2 -15   32.96    5.27
  -3   2  15   30.69    2.14
  -3  -2  15   40.72    6.50
   3  -2 -13    3.56    1.62
  -3   2  13    2.43    0.56
  -3  -2  13   -0.49    1.69
   3   2 -13    6.02    2.59
   3   2 -11  651.48   21.35
  -3  -2  11  614.91   20.97
   3  -2 -11  588.21   18.61
   3   2  -9 2064.87   34.72
   3  -2  -9 2058.22   31.73
  -3  -2   9 2087.05   35.28
  -3  -2   7   86.22    6.56
   3   2  -7   91.52    6.65
   3  -2  -7   88.28    2.94
   3  -2  -5 1700.14   16.14
   3   2  -5 1710.41   25.38
  -3  -2   5 1726.11   25.57
   3   2  -3  445.13   11.12
  -3  -2   3  456.21   11.23
  -3  -2   1    3.48    0.94
  -3  -2  -1  410.91    6.91
  -3  -2  -3  439.52    8.53
   3  -2   3  454.14   13.58
  -3   2  -5  638.09   17.60
   3  -2   5  637.44   17.64
  -3  -2  -5  621.90    7.61
  -3  -2  -5  628.23   10.76
   3  -2   7  835.74   21.90
  -3  -2  -7  816.64   14.97
  -3   2  -7  857.45   22.23
   3  -2   9 2149.79   38.23
  -3  -2  -9 2103.31   28.32
  -3   2  -9 2239.98   38.58
  -3  -2 -11  151.03    8.58
   3  -2  11  129.58   10.15
  -3   2 -11  167.16   11.38
  -3  -2 -13    2.18    1.53
   3  -2  13    5.39    2.93
   3   2  15   79.37    3.27
  -3  -2 -15   65.98    6.88
   3  -2  15   71.26    8.76
   3   2  15   74.53    3.18
   3  -2  17    5.69    3.30
   3   2  17    6.14    1.10
   3  -2  19   39.97    7.41
   3  -2  21  290.50   21.17
  -3  -3  20  234.45   18.79
  -3  -3  18    3.00    3.14
  -3  -3  16   -0.01    2.02
   3  -3 -14  705.03   22.94
  -3  -3  14  724.43   27.15
  -3  -3  12  127.60   10.61
   3  -3 -12  115.52    8.79
   3   3 -10    6.29    2.35
  -3  -3  10    5.55    2.28
   3  -3 -10    5.14    1.90
   3   3  -8  960.03   24.49
  -3  -3   8  959.72   24.78
   3  -3  -8  938.77    9.74
  -3  -3   6  256.41   11.61
   3  -3  -6  253.97    7.38
   3   3  -6  263.44   11.72
   3   3  -4    0.69    1.13
  -3  -3   4    3.18    1.50
  -3  -3   2  168.82    7.53
  -3  -3   0   39.06    3.23
   3  -3   2   11.99    2.55
  -3  -3  -2   12.44    1.72
  -3  -3  -4  275.65    8.06
   3  -3   4  273.06   12.53
  -3  -3  -6 1646.85   14.37
   3  -3   6 1670.90   33.16
  -3  -3  -6 1633.45   20.25
  -3   3  -8  123.01    9.62
  -3  -3  -8  100.23    5.71
   3  -3   8  109.98    9.17
  -3  -3 -10  130.05    7.31
   3  -3  10  130.03   10.60
  -3  -3 -12  956.89   22.08
   3  -3  12  945.85   30.44
  -3  -3 -14    4.26    2.13
   3  -3  14    1.74    2.55
  -3  -3 -16   37.91    5.26
   3  -3  16   33.30    6.66
   3  -3  18  175.53   15.76
   3  -3  20  244.54   19.82
  -3  -4  19   21.82    5.86
  -3  -4  17   75.71   10.53
  -3  -4  15   34.97    6.59
   3  -4 -13    4.96    2.13
  -3  -4  13    0.02    1.83
   3  -4 -11   58.48    6.40
  -3  -4  11   70.32    8.23
   3   4  -9    3.72    1.68
  -3  -4   9    4.26    1.97
  -3  -4   7  325.29   15.11
   3  -4  -7  323.65    9.44
   3   4  -7  336.73   15.35
  -3  -4   5  314.11   13.65
  -3  -4   3  472.07   15.32
  -3  -4   1   -0.20    0.88
   3  -4  -1   -0.07    0.99
   3  -4   1    5.08    2.04
  -3  -4  -1    4.45    1.36
  -3  -4  -3    0.24    0.78
   3  -4   3    1.49    1.59
   3  -4   5   53.19    6.48
  -3  -4  -5   47.49    3.90
  -3  -4  -7    9.08    1.76
   3  -4   7   11.94    3.50
  -3  -4  -7    8.85    1.14
   3  -4   9  167.84   12.78
  -3  -4  -9  200.63    8.58
  -3  -4 -11   39.85    4.21
   3  -4  11   40.29    6.75
   3  -4  13    5.93    3.77
   3  -4  15  119.90   12.91
   3  -4  17   68.61   10.43
  -3  -5  16   21.64    5.94
  -3  -5  14   15.31    5.00
  -3  -5  12    5.11    2.61
  -3  -5  10   12.02    3.94
  -3  -5   8   61.02    7.46
  -3  -5   6   11.53    3.24
   3  -5  -6   18.93    3.08
  -3  -5   4   33.92    4.87
   3  -5  -2  157.00   10.39
  -3  -5   2  149.97    9.35
  -3  -5   0    0.41    1.17
   3  -5   0   -1.49    1.95
   3  -5   2  111.49    9.44
  -3  -5  -2  116.89    7.11
  -3  -5  -4   67.05    5.08
   3  -5   4   58.66    7.32
  -3  -5  -4   58.23    5.51
  -3  -5  -6   98.79    5.79
   3  -5   6  117.44   10.60
  -3  -5  -6  119.65    6.57
   3  -5   8  306.28   18.12
   3  -5  10   15.45    4.33
   3  -5  12    9.10    4.20
   3  -5  14    8.84    3.96
  -3  -6  15    0.65    3.83
  -3  -6  13   10.70    3.18
  -3  -6  11    6.16    3.48
  -3  -6   9    9.56    3.39
  -3  -6   7  125.85   11.20
   3  -6  -7  131.15    9.93
   3  -6  -5   25.89    4.69
  -3  -6   5   26.29    4.96
   3  -6  -3   13.68    3.90
  -3  -6   3    8.66    2.83
   3  -6  -1    1.73    1.43
  -3  -6   1    8.88    2.57
   3  -6   1   29.61    5.29
  -3  -6  -3    1.78    1.54
   3  -6   3   -0.04    1.89
   3  -6   5   66.35    8.42
   3  -6   7   46.30    7.52
   3  -6   9   34.54    7.52
   3  -6  11    7.93    4.68
   3  -7   4   46.51    7.60
   3  -7   6   18.54    5.20
   3  -7   8   11.88    3.37
  -4   0  24  150.04   15.65
  -4   0  22  176.93   15.93
  -4   0  22  192.79   13.03
  -4   0  20  312.37   15.74
  -4   0  20  311.06   19.64
  -4   0  18  215.64   15.14
  -4   0  16 2611.36   48.88
  -4   0  14    8.52    2.64
   4   0 -14    8.45    2.35
  -4   0  12  110.25    8.63
   4   0 -12   98.85    8.07
  -4   0  10 1946.34   32.46
   4   0 -10 1904.59   32.00
   4   0  -8  263.46   10.72
  -4   0   8  266.69   10.83
  -4   0   6  344.32   10.82
  -4   0   6  336.91    9.07
   4   0  -6  327.36   10.41
   4   0  -4  101.99    4.95
   4   0  -4  108.46    4.56
  -4   0   4  112.01    4.61
  -4   0   2 4031.96   25.23
   4   0  -2 3973.89   25.25
  -4   0   0  693.75   10.29
   4   0   0  675.01   10.19
   4   0   2  481.03    8.85
   4   0   2  485.62    9.38
  -4   0  -4 2325.69   23.55
   4   0   4 2301.81   23.75
   4   0   6  182.55    7.94
  -4   0  -6  171.90    7.60
   4   0   8 2749.74   35.07
  -4   0  -8 2702.24   34.23
   4   0  10 1671.80   30.55
  -4   0 -10 1682.38   30.27
   4   0  12  464.74   17.82
  -4   0 -12  491.04   18.07
   4   0  14  124.16   10.07
  -4   0 -14  132.43   10.18
   4   0  16 1161.93   32.94
   4   0  18   -0.12    2.00
   4   0  20    4.42    2.84
   4   0  22   38.41    7.64
  -4  -1  25  139.50   13.32
  -4  -1  23    7.12    3.81
  -4  -1  21    1.02    2.04
  -4   1  21    0.81    1.41
  -4   1  19  150.30    9.03
  -4  -1  19  152.58   13.60
  -4  -1  17   90.23    9.77
  -4   1  17  104.59    7.07
  -4   1  15  194.37    8.89
   4  -1 -15  189.94   12.43
  -4  -1  15  191.87   13.14
  -4  -1  13 1577.12   34.67
   4  -1 -13 1570.79   32.82
  -4   1  13 1613.72   23.25
   4   1 -13 1599.78   34.51
   4   1 -11   25.70    4.14
   4  -1 -11   30.67    4.28
  -4   1  11   27.82    2.84
  -4  -1  11   27.70    4.36
  -4   1   9  371.81    9.12
   4  -1  -9  362.59   13.23
  -4  -1   9  369.02   13.88
   4   1  -9  382.94   14.20
  -4  -1   7  420.18   13.13
   4  -1  -7  419.38   12.86
   4   1  -7  421.08   13.14
  -4   1   7  404.09    8.53
  -4   1   5   26.34    2.06
   4   1  -5   26.10    2.88
   4  -1  -5   27.00    2.10
  -4  -1   5   24.96    2.87
  -4  -1   3 9999.00   44.44
   4   1  -3 9899.54   44.36
  -4   1   3 9901.39   40.26
   4  -1  -3 9931.75   40.23
   4  -1  -1 3349.06   25.88
  -4  -1   1 3456.50   18.14
   4   1  -1 3413.18   17.95
  -4  -1   1 3433.05   26.46
  -4  -1  -1 9945.43   39.76
   4   1   1 9948.97   39.95
  -4  -1  -3  195.24    5.26
   4   1   3  194.98    4.59
   4  -1   3  196.41    7.86
  -4  -1  -3  188.08    4.41
   4   1   3  191.12    5.28
  -4  -1  -5  130.49    5.17
   4  -1   5  130.94    7.23
   4   1   5  136.93    4.64
  -4   1  -5  136.59    7.31
   4   1   5  130.43    5.25
  -4  -1  -7   32.15    3.17
   4  -1   7   27.55    3.78
   4   1   7   33.17    2.60
   4   1   7   39.25    3.58
  -4   1  -7   32.47    4.01
  -4  -1  -9    4.34    1.74
  -4   1  -9    1.43    1.55
   4  -1   9    0.58    1.71
   4   1   9    2.03    1.05
   4   1   9    2.30    0.75
   4   1  11   13.51    2.13
  -4  -1 -11   16.06    3.15
  -4   1 -11   16.78    3.51
   4   1  11   15.42    3.09
   4  -1  11   14.80    3.50
  -4   1 -13 1174.69   30.90
  -4  -1 -13 1153.16   27.37
   4  -1  13 1131.05   30.77
   4   1  13 1112.99   27.31
   4   1  13 1096.15   20.17
   4   1  15   23.50    3.36
   4  -1  15   21.72    4.57
  -4  -1 -15   31.44    5.06
   4   1  15   22.92    4.59
   4   1  17   33.88    4.18
   4   1  17   34.75    5.98
   4  -1  17   37.85    6.60
   4   1  19  399.19   21.00
   4  -1  19  440.00   23.78
   4  -1  21  296.84   20.70
   4   1  21  303.73   19.69
   4   1  23   50.88    8.75
  -4  -2  22   26.42    6.16
  -4  -2  20   16.93    5.31
  -4  -2  18  153.83   13.67
  -4   2  18  132.18    5.58
  -4   2  16  156.64    5.61
  -4  -2  16  162.99   13.07
   4  -2 -14   25.41    4.37
  -4  -2  14   24.15    4.36
  -4   2  14   21.47    1.94
  -4   2  12  183.66    4.92
   4  -2 -12  185.34   11.08
   4   2 -12  203.39   12.36
  -4  -2  12  181.22   11.73
   4   2 -10  121.83    8.77
  -4   2  10  118.87    3.73
  -4  -2  10  124.12    9.06
   4  -2 -10  122.81    8.36
  -4  -2   8  352.62   13.62
   4   2  -8  359.86   13.67
   4  -2  -8  361.09    6.88
   4   2  -6  294.59   11.09
   4  -2  -6  307.01    7.20
  -4  -2   6  320.01   11.61
   4  -2  -4  273.21    7.79
   4   2  -4  265.86    9.08
  -4  -2   4  283.35    9.47
  -4  -2   2    1.54    0.80
   4   2  -2    1.99    0.79
  -4  -2   0   13.95    1.36
  -4  -2  -2   77.15    4.07
   4  -2   2   75.35    5.49
  -4  -2  -4    8.43    1.01
   4  -2   4   15.15    2.65
  -4  -2  -4    7.80    1.14
   4  -2   6   31.75    4.27
  -4  -2  -6   23.82    2.27
  -4   2  -6   23.19    3.62
  -4   2  -8   16.60    3.42
  -4  -2  -8   14.14    2.21
   4  -2   8   19.89    3.85
  -4  -2 -10  233.10    9.84
   4  -2  10  222.83   12.97
  -4   2 -10  259.09   13.89
   4   2  12   84.52    3.10
   4  -2  12   77.24    8.25
  -4  -2 -12   68.88    6.03
   4  -2  14   72.41    8.61
   4   2  14   74.70    3.36
  -4  -2 -14   73.25    6.95
   4   2  16  182.01    5.85
  -4  -2 -16  162.86   11.22
   4  -2  16  186.02   14.58
   4  -2  18   65.51    9.35
   4  -2  20    9.31    4.49
  -4  -3  21    1.31    4.13
  -4  -3  19   19.64    5.74
  -4  -3  17   46.78    7.54
  -4  -3  15   48.26    7.44
   4  -3 -15   33.79    5.66
  -4  -3  13   55.25    7.20
   4  -3 -13   38.55    5.41
   4  -3 -11  205.57   11.69
   4   3 -11  211.42   13.01
  -4  -3  11  208.15   12.91
  -4  -3   9  130.82    9.58
   4  -3  -9  122.12    3.44
   4   3  -9  117.68    8.99
  -4  -3   7    7.65    2.23
   4  -3  -7    6.15    1.22
   4   3  -7   11.46    2.77
   4  -3  -5   17.38    2.26
   4   3  -5   16.75    2.89
  -4  -3   5   19.27    3.21
  -4  -3   3    4.77    1.64
  -4  -3   1    0.32    0.61
  -4  -3  -1   56.87    3.34
   4  -3   1   45.53    4.84
  -4  -3  -3  224.19    5.85
  -4  -3  -3  220.69    8.07
   4  -3   3  234.01   11.49
   4  -3   5   44.53    5.46
  -4  -3  -5   43.80    2.85
  -4  -3  -5   38.18    2.77
  -4  -3  -7    4.37    1.06
   4  -3   7    3.46    2.01
   4  -3   9   98.24    9.01
  -4  -3  -9   89.63    5.57
  -4  -3 -11   24.55    3.35
   4  -3  11   19.40    4.72
  -4  -3 -13    5.80    2.30
   4  -3  13    1.97    1.68
   4  -3  15   18.85    4.96
  -4  -3 -15   23.95    3.82
   4  -3  17    8.81    4.20
   4  -3  19   22.86    6.27
  -4  -4  20    4.03    3.54
  -4  -4  18    4.60    3.41
  -4  -4  16  338.67   20.99
   4  -4 -14  193.62   12.74
  -4  -4  14  201.20   15.11
   4  -4 -12  339.89   16.02
  -4  -4  12  326.14   17.88
  -4  -4  10  456.59   19.90
   4   4  -8    1.41    1.52
   4  -4  -8    2.51    1.13
  -4  -4   8    0.91    1.57
   4  -4  -6   -0.66    0.98
  -4  -4   6    2.41    1.72
  -4  -4   4  145.70    8.71
  -4  -4   2   13.22    2.45
  -4  -4   0  218.15    8.72
   4  -4   0  223.23   11.77
  -4  -4  -2  362.31   10.03
   4  -4   2  344.66   15.22
   4  -4   4  378.15   16.80
  -4  -4  -4  374.54    9.28
  -4  -4  -4  361.24   11.49
  -4  -4  -6  171.50    6.51
  -4  -4  -6  175.00    6.60
   4  -4   6  178.15   12.12
  -4  -4  -8   29.86    2.95
   4  -4   8   23.41    4.71
  -4  -4 -10   85.63    5.52
   4  -4  10   85.39    9.46
   4  -4  12   39.67    7.06
   4  -4  14  109.19   11.88
   4  -4  16  233.71   18.53
  -4  -5  17   -0.28    2.85
  -4  -5  15   23.03    5.77
  -4  -5  13  213.51   16.20
  -4  -5  11   48.65    7.31
  -4  -5   9   26.43    5.20
   4  -5  -7  117.66    7.03
  -4  -5   7  112.81    9.68
   4  -5  -5  327.70   13.33
  -4  -5   5  332.85   15.37
   4  -5  -3   37.24    5.32
  -4  -5   3   36.56    4.80
   4  -5  -1  595.20   21.09
  -4  -5   1  653.46   18.05
  -4  -5  -1  251.27   10.18
   4  -5   1  248.72   14.04
   4  -5   3    4.96    2.28
  -4  -5  -3    4.29    1.54
  -4  -5  -3    1.38    1.38
  -4  -5  -5   11.23    1.89
   4  -5   5    5.97    2.87
  -4  -5  -5   10.74    2.28
  -4  -5  -7  212.80    7.30
   4  -5   7  188.34   14.00
  -4  -5  -7  218.98    7.29
   4  -5   9    1.60    2.09
   4  -5  11   46.12    7.75
   4  -5  13  278.46   19.94
   4  -5  15   93.89   12.09
  -4  -6  14   16.88    5.65
  -4  -6  12   22.34    5.91
  -4  -6  10   60.68    8.71
  -4  -6   8    6.75    2.62
   4  -6  -6   53.58    6.61
  -4  -6   6   50.14    6.81
  -4  -6   4   20.80    4.15
   4  -6  -4   24.07    4.46
   4  -6  -2  440.05   19.62
  -4  -6   2  468.02   17.64
   4  -6   0   21.18    4.77
  -4  -6  -2   27.64    4.61
   4  -6   2   29.63    5.82
   4  -6   4  223.63   15.67
   4  -6   6  134.18   12.67
   4  -6   8   -1.32    3.05
   4  -6  10   49.08    8.40
   4  -6  12    6.19    3.93
   4  -7   3    6.12    3.22
   4  -7   5    6.23    3.87
   4  -7   7   20.80    5.36
  -5   0  23   -1.88    3.45
  -5   0  23   -0.76    1.63
  -5   0  21   -3.97    3.32
  -5   0  21   -0.89    2.39
  -5   0  19   -0.96    2.10
  -5   0  19    4.06    2.30
  -5   0  17    3.37    2.29
  -5   0  17   -0.42    1.50
  -5   0  15    1.60    1.79
   5   0 -15    2.32    1.65
  -5   0  13    0.01    1.73
   5   0 -13    0.86    1.45
  -5   0  11    0.35    1.43
   5   0 -11   -0.59    1.71
   5   0  -9   -1.05    1.27
  -5   0   9    2.00    1.45
  -5   0   9    0.41    0.77
  -5   0   7    0.37    1.35
  -5   0   7   -0.50    1.02
   5   0  -7    0.65    0.82
  -5   0   5   -0.39    0.83
   5   0  -5    2.31    0.90
   5   0  -5   -0.54    0.87
  -5   0   3   -0.34    0.88
   5   0  -3    0.34    0.73
  -5   0   1    0.22    0.76
   5   0  -1   -0.78    0.69
  -5   0  -1    0.49    0.71
   5   0   1    0.80    0.65
  -5   0  -3   -0.09    0.68
   5   0   3    0.22    0.79
   5   0   3   -0.76    0.67
   5   0   5    1.81    1.14
  -5   0  -5    0.30    0.71
   5   0   7    1.30    1.31
  -5   0  -7   -0.14    1.02
  -5   0  -9    0.46    1.19
   5   0   9    3.45    1.97
  -5   0 -11   -0.31    1.39
   5   0  11   -0.79    1.51
   5   0  13    0.32    1.48
  -5   0 -13    0.82    1.63
   5   0  15    0.94    1.30
   5   0  17    1.02    1.83
   5   0  19   -1.11    2.27
   5   0  21    4.45    2.97
   5   0  23   -2.90    4.07
  -5  -1  24   79.67   11.74
  -5  -1  24   83.42   10.03
  -5  -1  22    3.59    2.84
  -5   1  20  122.64    8.51
  -5  -1  20  126.42   12.87
  -5   1  18  881.60   21.46
  -5  -1  18  891.24   31.51
  -5  -1  16   23.62    4.87
  -5   1  16   21.04    3.12
  -5   1  14    5.63    1.72
   5   1 -14    5.29    2.53
   5  -1 -14    2.59    1.70
  -5  -1  14    0.01    1.59
   5   1 -12   75.30    7.29
  -5  -1  12   62.69    6.68
  -5   1  12   70.09    4.83
   5  -1 -12   67.74    6.68
  -5   1  10   10.00    1.83
   5  -1 -10    7.33    2.21
  -5  -1  10   11.75    2.71
   5   1 -10    9.59    2.60
  -5   1   8   34.56    2.82
  -5  -1   8   38.10    4.33
   5  -1  -8   36.20    4.18
   5   1  -8   37.02    4.28
   5   1  -6 1090.79   19.71
   5  -1  -6 1084.31   14.77
  -5  -1   6 1102.89   20.01
  -5   1   6 1093.42   14.81
   5  -1  -4   48.53    3.12
  -5   1   4   50.01    3.18
  -5  -1   4   48.93    3.62
  -5  -1   4   46.84    3.90
   5   1  -4   46.61    3.50
  -5  -1   2  127.05    5.69
   5   1  -2  124.55    4.37
  -5   1   2  126.56    5.29
   5  -1  -2  129.06    5.27
  -5  -1   2  129.59    4.48
  -5  -1   0  348.27    8.57
   5  -1   0  329.56    9.14
   5   1   0  344.89    8.48
   5   1   2  586.86   10.55
  -5  -1  -2  607.37   10.55
   5  -1   2  629.42   13.92
   5  -1   4   22.18    3.01
  -5  -1  -4   23.28    1.94
  -5   1  -4   23.30    3.07
   5   1   4   23.16    2.12
  -5  -1  -4   21.40    2.06
   5   1   4   26.36    2.17
  -5  -1  -6    4.06    1.19
   5   1   6    0.84    0.73
  -5   1  -6    0.54    0.80
   5  -1   6    0.79    1.43
   5   1   6    1.05    0.66
   5  -1   8 1312.74   27.03
   5   1   8 1295.19   18.05
   5   1   8 1304.49   22.25
  -5   1  -8 1267.32   26.39
  -5  -1  -8 1266.72   21.54
  -5  -1 -10  130.18    7.89
   5  -1  10  137.08    9.61
   5   1  10  131.15    6.39
   5   1  10  115.63    7.58
  -5   1 -10  133.11    9.32
   5   1  12  487.29   17.23
   5   1  12  506.15   13.61
  -5  -1 -12  496.36   17.15
  -5   1 -12  516.67   19.89
   5  -1  12  496.72   19.83
   5   1  14  713.42   23.07
   5  -1  14  715.22   25.54
  -5  -1 -14  650.38   21.58
   5   1  14  651.80   16.77
   5  -1  16   32.96    6.03
   5   1  16   31.03    4.07
   5   1  16   38.55    5.97
   5   1  18   52.47    7.49
   5  -1  18   49.14    7.86
   5  -1  20  189.13   16.29
   5   1  20  191.54   15.19
   5   1  22   16.61    5.74
   5  -1  22   16.66    5.81
   5   1  24    8.72    4.62
  -5  -2  23   50.57    9.49
  -5  -2  21  389.91   23.89
  -5  -2  19   16.04    4.52
  -5   2  19   16.35    2.25
  -5   2  17   69.04    4.14
  -5  -2  17   64.76    8.44
  -5  -2  15  362.94   18.61
  -5   2  15  358.19    9.04
   5  -2 -15  368.49   17.46
  -5   2  13  324.38    7.95
   5   2 -13  339.40   16.58
  -5  -2  13  342.38   16.90
   5  -2 -13  319.82   15.27
   5   2 -11   67.02    6.80
  -5   2  11   62.25    3.30
  -5  -2  11   57.57    6.40
   5  -2 -11   55.66    6.12
  -5   2   9  180.46    5.60
  -5  -2   9  194.40   10.64
   5  -2  -9  177.27    5.52
   5   2  -9  170.09    9.96
   5  -2  -7 1653.15   17.87
   5   2  -7 1677.85   27.92
  -5  -2   7 1638.58   27.81
  -5  -2   5  376.38   11.62
   5   2  -5  370.71   11.46
   5  -2  -5  373.18    9.23
  -5  -2   3    6.01    1.42
   5  -2  -3    8.11    1.56
   5   2  -3    9.88    1.69
   5   2  -1  229.69    5.76
  -5  -2   1  226.10    8.60
  -5  -2   1  234.85    5.95
  -5  -2  -1  143.60    6.22
  -5  -2  -3 2133.20   21.30
   5  -2   3 2123.32   31.31
   5  -2   5 3045.24   40.37
  -5  -2  -5 2993.85   22.38
  -5  -2  -5 2986.31   20.55
  -5  -2  -7   35.33    2.97
   5   2   7   39.72    2.38
  -5   2  -7   39.57    5.00
   5  -2   7   30.13    4.36
   5   2   9  142.39    4.37
  -5   2  -9  136.49    9.89
  -5  -2  -9  130.61    6.84
   5  -2   9  131.03    9.79
   5   2  11  476.23   15.46
  -5  -2 -11  446.63   14.36
   5  -2  11  464.51   19.70
   5   2  11  458.30    8.28
  -5  -2 -13  770.53   21.05
   5   2  13  758.16   21.86
   5   2  13  771.49   11.73
   5  -2  13  737.76   26.68
   5  -2  15   48.44    7.45
   5   2  15   59.69    6.76
   5   2  15   65.95    3.72
  -5  -2 -15   64.89    6.79
   5  -2  17  221.41   16.66
   5  -2  19  232.66   18.28
   5  -2  21  162.77   16.15
  -5  -3  20   31.32    7.29
  -5  -3  18  533.34   26.29
  -5  -3  16    6.40    3.34
  -5  -3  14   33.27    5.84
   5  -3 -14   26.16    4.76
   5  -3 -12  506.45   19.21
  -5  -3  12  501.44   20.83
  -5  -3  10  457.66   18.26
   5   3 -10  468.39   18.39
   5  -3 -10  460.42    7.13
  -5  -3   8  130.29    8.99
   5  -3  -8  127.98    5.20
   5   3  -8  125.72    8.76
   5   3  -6  543.72   16.32
  -5  -3   6  523.31   16.20
   5  -3  -6  532.86   12.29
   5   3  -4  105.09    6.41
   5  -3  -4  105.83    6.16
  -5  -3   4  104.93    6.48
  -5  -3   2  343.65   10.16
  -5  -3   0  180.19    6.02
  -5  -3  -2 3562.93   20.70
  -5  -3  -2 3579.46   35.06
   5  -3   2 3583.34   44.84
  -5  -3  -4   69.76    2.72
  -5  -3  -4   70.84    4.37
  -5  -3  -4   76.30    2.75
   5  -3   4   75.75    6.96
  -5  -3  -6  365.73    7.98
   5  -3   6  364.46   16.10
  -5  -3  -6  370.90    7.82
   5  -3   8 1795.49   37.93
  -5  -3  -8 1765.32   21.38
   5  -3  10  156.98   12.00
  -5  -3 -10  161.49    7.58
  -5  -3 -12  354.58   12.80
   5  -3  12  358.27   19.14
  -5  -3 -14  570.20   18.13
   5  -3  14  570.93   25.88
   5  -3  16  336.88   21.10
   5  -3  18   19.73    5.90
  -5  -4  19    9.45    4.00
  -5  -4  17    2.42    3.33
  -5  -4  15   58.94    8.58
  -5  -4  13   63.11    8.36
   5  -4 -13   64.66    7.45
  -5  -4  11   19.39    4.49
   5  -4  -9  219.75    7.07
  -5  -4   9  225.43   13.30
   5   4  -9  216.06   12.88
   5   4  -7  286.74   13.69
  -5  -4   7  291.26   13.95
   5  -4  -7  298.42   10.15
   5  -4  -5  213.60    9.75
  -5  -4   5  208.58   10.77
  -5  -4   3  231.16   10.20
  -5  -4   1  216.26    8.73
  -5  -4  -1  107.94    5.32
   5  -4   1  112.50    8.73
  -5  -4  -1   97.26    7.07
  -5  -4  -3  128.75    4.98
  -5  -4  -3  138.06    7.68
   5  -4   3  129.18    9.91
   5  -4   5  477.42   19.72
  -5  -4  -5  522.74    8.98
  -5  -4  -5  519.93    9.28
  -5  -4  -5  517.43   13.00
  -5  -4  -7   14.01    1.62
  -5  -4  -7   15.60    1.65
   5  -4   7   12.82    3.83
  -5  -4  -9   18.15    2.23
   5  -4   9   11.12    3.81
   5  -4  11   71.40    9.09
  -5  -4 -11   67.96    4.80
   5  -4  13  126.60   12.67
   5  -4  15   -0.97    3.85
   5  -4  17  157.74   15.67
  -5  -5  18   32.38    7.88
  -5  -5  16   56.19    9.23
  -5  -5  14   -2.55    3.22
  -5  -5  12   54.90    8.10
  -5  -5  10   78.91    8.79
  -5  -5   8  231.14   14.20
   5  -5  -6  215.36   10.63
  -5  -5   6  200.40   12.14
  -5  -5   4   45.86    5.40
  -5  -5   2   10.88    2.44
   5  -5  -2   17.27    3.80
   5  -5   0   17.00    3.56
  -5  -5   0   25.34    3.19
   5  -5   2    3.47    1.31
  -5  -5  -2    4.06    1.90
  -5  -5  -2    1.72    0.82
  -5  -5  -4   84.00    4.41
   5  -5   4   71.66    8.21
  -5  -5  -4   85.62    6.58
   5  -5   6   58.37    7.94
  -5  -5  -6   68.72    4.98
  -5  -5  -6   68.21    3.30
   5  -5   8   27.92    5.95
   5  -5  10   45.76    7.78
   5  -5  12   -5.93    4.27
   5  -5  14    7.52    3.04
  -5  -6  15   15.03    5.14
  -5  -6  13    6.87    3.65
  -5  -6  11    6.24    3.82
  -5  -6   9    1.27    1.51
  -5  -6   7   58.94    7.52
  -5  -6   5   30.33    4.96
   5  -6  -5   34.85    5.65
  -5  -6   3    2.56    1.28
   5  -6  -3   10.93    3.34
   5  -6  -1   98.80    9.61
   5  -6   1   27.11    5.35
  -5  -6  -1   32.42    5.27
   5  -6   3   -3.38    3.33
  -5  -6  -3   -1.41    2.02
   5  -6   5    0.85    1.92
   5  -6   7   31.26    6.62
   5  -6   9   60.73    9.18
   5  -6  11    4.71    3.43
  -5  -7   2   28.61    6.41
   5  -7   2   12.04    4.07
   5  -7   4    6.37    2.80
   5  -7   6   13.71    4.90
  -6   0  24   33.77    5.88
  -6   0  22   47.16    8.58
  -6   0  22   35.41    5.59
  -6   0  20    5.53    2.51
  -6   0  20    0.92    2.12
  -6   0  18  265.52   17.08
  -6   0  18  323.48   15.05
  -6   0  16  727.82   21.21
  -6   0  16  747.25   26.43
  -6   0  14 1289.03   32.19
  -6   0  14 1279.11   26.21
   6   0 -14 1280.65   31.44
   6   0 -12    3.73    1.64
  -6   0  12    9.13    2.57
  -6   0  12    9.51    2.24
  -6   0  10  314.34   13.48
  -6   0  10  341.56   11.71
   6   0 -10  359.93   14.06
  -6   0   8 2292.85   28.12
   6   0  -8 2312.55   32.37
   6   0  -6 8183.93   53.83
   6   0  -6 8108.52   48.24
  -6   0   6 8108.10   48.90
  -6   0   4 7513.34   43.41
   6   0  -4 7397.23   43.30
   6   0  -2  176.01    6.42
  -6   0   2  197.61    6.77
   6   0   0 5925.42   36.76
  -6   0   0 5900.51   36.72
   6   0   2  775.94   12.94
  -6   0  -2  791.29   14.17
   6   0   2  764.73   13.95
   6   0   4 2563.83   27.07
  -6   0  -4 2549.45   26.80
   6   0   4 2482.87   26.96
   6   0   6   58.56    4.77
  -6   0  -6   56.92    4.61
   6   0   8  283.72   11.61
  -6   0  -8  274.88   11.29
   6   0  10 1210.91   26.70
  -6   0 -10 1108.85   25.30
   6   0  12 3554.23   49.90
  -6   0 -12 3589.41   49.45
  -6   0 -14   38.39    5.75
   6   0  14   44.49    6.13
   6   0  16   15.41    4.27
   6   0  18  369.27   20.29
   6   0  20  173.57   14.73
   6   0  22   50.04    8.81
  -6  -1  25   89.53   10.60
  -6  -1  23   19.88    5.00
  -6  -1  23   24.86    6.57
  -6   1  21   -0.66    1.50
  -6  -1  21    5.17    3.56
  -6   1  19  248.66   11.97
  -6  -1  19  239.00   16.94
  -6  -1  17  652.82   26.02
  -6   1  17  656.51   18.33
   6  -1 -15  294.94   15.79
  -6  -1  15  299.38   16.31
  -6   1  15  304.31   11.54
   6  -1 -13  240.76   13.27
  -6   1  13  272.38   10.13
   6   1 -13  286.43   14.75
  -6  -1  13  258.13   14.14
  -6  -1  11 1208.45   27.93
   6  -1 -11 1203.10   27.23
  -6   1  11 1197.54   19.82
   6   1 -11 1223.11   27.85
  -6   1   9  132.51    6.10
  -6  -1   9  138.98    8.60
   6  -1  -9  134.40    8.37
   6   1  -9  139.05    8.62
  -6  -1   7  123.09    7.19
   6   1  -7  111.64    6.86
  -6   1   7  111.63    5.32
   6  -1  -7  117.88    5.34
  -6  -1   5  603.74   14.68
  -6   1   5  573.06   11.57
   6   1  -5  573.23   13.28
  -6  -1   5  585.95   13.54
   6  -1  -5  566.23   11.47
  -6  -1   3 9822.05   46.37
   6  -1  -3 9904.16   48.73
  -6   1   3 9931.51   48.81
  -6  -1   3 9974.66   55.17
   6   1  -1   31.16    1.98
   6  -1  -1   32.84    3.01
  -6  -1   1   35.65    3.09
   6   1  -1   34.10    3.01
  -6  -1  -1 6174.24   37.61
   6   1   1 6098.41   37.66
   6  -1   1 6252.60   44.07
   6   1   3 1493.40   18.38
  -6  -1  -3 1551.23   18.44
   6  -1   3 1561.01   23.88
   6   1   3 1562.63   14.31
   6   1   5  404.75    9.63
   6   1   5  405.05    9.74
   6  -1   5  406.52   13.37
  -6   1  -5  409.83   13.40
  -6  -1  -5  404.94    9.43
   6   1   7  341.93   10.68
   6   1   7  338.46    9.52
   6  -1   7  328.77   13.19
  -6   1  -7  326.49   13.05
  -6  -1  -7  334.51   10.41
  -6   1  -9  725.06   21.20
   6   1   9  729.60   15.05
   6   1   9  724.32   17.94
   6  -1   9  766.30   21.93
  -6  -1  -9  695.08   17.19
   6   1  11   68.15    6.23
   6   1  11   66.91    5.02
   6  -1  11   65.10    6.97
  -6  -1 -11   66.98    6.07
  -6   1 -11   59.53    6.55
   6   1  13  131.22    9.53
   6  -1  13  122.58   10.40
   6   1  13  121.80    7.29
  -6  -1 -13  134.31    9.50
  -6  -1 -15  342.99   16.45
   6   1  15  389.58   13.82
   6  -1  15  371.21   19.26
   6   1  15  365.49   17.34
   6   1  17  457.08   21.12
   6  -1  17  476.60   23.49
   6   1  17  471.40   16.21
   6  -1  19   25.34    6.34
   6   1  19   27.42    5.87
   6  -1  21  131.93   13.89
   6   1  21  126.72   12.70
   6   1  23  111.63   12.90
  -6  -2  22    5.44    3.55
  -6  -2  20   -3.56    3.03
  -6   2  18    1.37    0.97
  -6  -2  18    7.81    3.68
  -6  -2  16  201.25   14.45
  -6   2  16  186.50    7.31
   6  -2 -14  207.71   12.89
  -6   2  14  213.85    7.32
  -6  -2  14  204.53   13.52
  -6   2  12   41.02    3.09
  -6  -2  12   36.33    5.33
   6   2 -12   47.16    6.00
   6  -2 -12   47.41    5.85
   6   2 -10   17.33    3.25
  -6   2  10   14.83    1.88
   6  -2 -10   17.62    3.30
  -6  -2  10   17.91    3.59
   6  -2  -8  953.88   14.73
  -6   2   8  954.80   14.62
  -6  -2   8  957.65   22.37
   6   2  -8  932.29   21.88
   6   2  -6   44.81    4.19
  -6  -2   6   53.30    4.77
   6  -2  -6   50.82    3.59
   6   2  -4  325.36    9.82
   6  -2  -4  312.09    9.42
  -6  -2   4  328.69    9.97
   6  -2  -2  112.34    6.18
  -6  -2   2  101.95    6.22
   6   2  -2  106.07    4.45
  -6  -2   2  104.73    4.48
  -6  -2   0   98.36    5.62
   6  -2   2   77.99    6.01
  -6  -2  -2   82.12    4.66
  -6  -2  -4  163.22    6.00
   6   2   4  162.26    6.02
   6  -2   4  157.86    9.13
  -6  -2  -6  113.29    4.57
  -6  -2  -6  113.84    4.68
   6  -2   6  113.77    8.26
   6   2   6  115.35    4.77
  -6  -2  -8  228.94    8.21
   6   2   8  225.55    6.44
   6  -2   8  210.78   12.12
  -6   2  -8  237.47   12.78
   6  -2  10  188.04   12.28
   6   2  10  205.14    9.56
  -6   2 -10  234.37   13.64
  -6  -2 -10  216.25    9.36
   6   2  10  216.39    6.43
   6   2  12  136.32    8.82
  -6  -2 -12  149.47    8.83
   6  -2  12  148.01   11.59
   6   2  12  142.57    5.49
   6   2  14   80.10    7.54
   6   2  14   90.44    4.63
   6  -2  14   93.76   10.02
  -6  -2 -14   85.23    7.48
   6  -2  16   57.06    8.67
   6   2  16   52.66    6.77
  -6  -2 -16   44.39    5.92
   6  -2  18  128.53   13.32
   6  -2  20    4.87    3.68
  -6  -3  21   -5.16    3.35
  -6  -3  19   -2.44    2.11
  -6  -3  17   -0.44    2.11
  -6  -3  15  105.14   10.55
   6  -3 -13  114.74    9.64
  -6  -3  13  118.71   10.52
  -6  -3  11   12.86    3.09
   6   3 -11   14.77    3.26
   6  -3 -11   14.48    3.23
   6   3  -9   89.89    7.67
   6  -3  -9  104.91    4.87
  -6  -3   9   97.50    8.05
  -6  -3   7   19.92    3.39
   6   3  -7   25.17    3.70
   6  -3  -7   27.85    2.91
   6  -3  -5   18.65    2.61
   6   3  -5   19.77    2.91
  -6  -3   5   19.02    2.94
  -6  -3   3   58.78    4.40
   6   3  -3   63.44    4.46
  -6  -3   1  194.08    6.60
  -6  -3   1  200.40    9.62
  -6  -3  -1   42.58    4.23
   6  -3   1   44.72    5.08
  -6  -3  -1   43.55    2.19
  -6  -3  -3  350.33   10.64
   6  -3   3  313.01   13.98
  -6  -3  -5   57.69    3.84
   6  -3   5   63.72    6.72
  -6  -3  -7   51.45    2.96
   6  -3   7   42.62    5.81
  -6  -3  -7   57.64    2.98
   6  -3   9  204.73   13.41
  -6  -3  -9  210.41    7.62
   6  -3  11  202.98   14.29
  -6  -3 -11  188.81    8.51
  -6  -3 -13  109.41    7.41
   6  -3  13  135.23   12.38
   6  -3  15    4.85    3.49
   6  -3  17    7.29    4.77
   6  -3  19    4.00    2.31
  -6  -4  20   25.77    6.58
  -6  -4  18   48.85    8.50
  -6  -4  16  207.81   16.28
  -6  -4  14  142.57   12.55
   6  -4 -12   27.37    4.85
  -6  -4  12   25.29    5.20
   6   4 -10   40.12    5.82
  -6  -4  10   32.76    5.46
   6  -4 -10   42.45    3.01
  -6  -4   8    6.08    2.43
   6   4  -8    3.64    1.17
   6  -4  -8    4.90    1.42
   6   4  -6   19.27    3.47
   6  -4  -6   23.11    3.30
  -6  -4   6   20.95    3.65
  -6  -4   4  115.90    7.51
   6  -4  -4  115.94    7.71
  -6  -4   2  278.21   10.23
  -6  -4   0  602.62   12.72
  -6  -4   0  596.68   18.26
   6  -4   0  600.66   20.36
  -6  -4  -2  459.59   14.84
   6  -4   2  458.65   18.44
  -6  -4  -2  469.42    8.67
   6  -4   4  159.31   11.33
  -6  -4  -4  166.89    8.11
   6  -4   6  213.58   13.85
  -6  -4  -6  212.48    7.65
  -6  -4  -8    0.97    0.50
   6  -4   8    0.58    1.41
   6  -4  10  101.66   10.53
  -6  -4 -10  113.95    5.15
   6  -4  12   80.00   10.00
   6  -4  14   60.93    9.25
   6  -4  16  279.32   20.54
  -6  -5  17   26.75    6.69
  -6  -5  15   10.01    4.49
  -6  -5  13   42.77    7.25
  -6  -5  11  299.18   17.63
  -6  -5   9   47.54    6.73
  -6  -5   7    8.61    2.64
   6  -5  -7    5.58    1.73
   6  -5  -5  102.67    7.94
  -6  -5   5  101.53    8.20
  -6  -5   3  598.92   17.99
  -6  -5   1   69.04    5.53
   6  -5  -1   64.23    7.31
  -6  -5   1   64.18    7.07
  -6  -5  -1   49.47    5.78
  -6  -5  -1   50.19    4.00
   6  -5   1   38.11    5.83
  -6  -5  -3   36.90    4.75
   6  -5   3   28.17    5.35
  -6  -5  -3   31.50    2.36
   6  -5   5   20.41    4.34
  -6  -5  -5   13.81    2.63
   6  -5   7  399.25   21.09
   6  -5   9  176.74   14.74
   6  -5  11   43.23    7.47
   6  -5  13   41.82    7.94
  -6  -6  16   -2.27    3.36
  -6  -6  14  136.15   13.81
  -6  -6  12   14.64    4.70
  -6  -6  10    7.65    3.24
  -6  -6   8   48.77    6.89
  -6  -6   6   12.51    3.59
   6  -6  -4   58.00    7.36
  -6  -6   4   67.60    6.94
  -6  -6   2   51.88    7.38
   6  -6  -2   51.73    7.16
   6  -6   0   70.90    8.61
  -6  -6   0   74.34    8.09
  -6  -6  -2    7.67    2.34
   6  -6   2    7.77    2.65
   6  -6   4   54.14    7.98
   6  -6   6    9.06    3.61
   6  -6   8   28.32    5.94
   6  -6  10    5.92    3.30
  -6  -7   5    9.56    4.35
  -6  -7   3   57.40    8.60
   6  -7   1    7.54    4.23
   6  -7   3   18.59    5.41
   6  -7   5   -0.71    3.26
   6  -7   7   14.77    4.80
  -7   0  23    5.91    3.06
  -7   0  21    0.10    1.72
  -7   0  19   -2.31    1.70
  -7   0  19    1.61    2.38
  -7   0  17    0.23    1.43
  -7   0  17    0.14    1.95
   7   0 -15   -0.34    1.40
  -7   0  15   -0.20    1.75
  -7   0  15   -0.48    1.14
   7   0 -13    1.89    2.10
  -7   0  13   -1.38    1.38
  -7   0  13   -0.11    1.19
  -7   0  11   -0.21    1.05
   7   0 -11    2.29    1.84
  -7   0  11   -0.55    1.22
  -7   0   9    0.16    1.32
   7   0  -9    0.58    1.08
  -7   0   7    2.86    1.36
   7   0  -7    2.26    1.52
   7   0  -5    0.19    0.81
  -7   0   5    2.66    1.42
  -7   0   3    0.07    0.89
   7   0  -3    0.24    0.73
   7   0  -1   -0.69    0.81
  -7   0   1   -0.28    0.79
  -7   0  -1    0.90    0.78
   7   0   1    0.62    0.87
   7   0   3    1.53    1.01
   7   0   3   -0.25    0.85
  -7   0  -5   -0.46    0.85
   7   0   5   -0.14    0.58
   7   0   5   -0.50    1.04
   7   0   7    0.18    0.96
  -7   0  -7   -0.54    0.81
   7   0   7   -0.88    1.18
   7   0   9   -0.75    1.24
  -7   0  -9    0.44    1.51
   7   0  11    0.34    1.51
  -7   0 -11    0.70    1.13
   7   0  13    0.85    1.23
  -7   0 -13    0.30    1.00
   7   0  15    2.98    2.12
   7   0  17    3.72    2.01
   7   0  19   -1.69    2.43
   7   0  21    2.99    3.10
   7   0  23    4.51    3.90
  -7  -1  26   -2.48    3.39
  -7  -1  24  236.63   19.88
  -7  -1  24  206.54   15.86
  -7  -1  22  247.84   19.26
  -7   1  22  257.06   13.18
  -7  -1  22  242.53   16.26
  -7   1  20    0.41    1.27
  -7  -1  20    1.85    2.24
  -7  -1  20   -0.34    3.11
  -7  -1  18  234.31   16.23
  -7   1  18  263.93   12.17
  -7   1  16    6.70    2.03
  -7  -1  16   10.04    3.43
  -7   1  14   35.41    3.94
   7   1 -14   31.80    5.37
  -7  -1  14   28.40    5.13
   7  -1 -14   29.64    4.83
  -7  -1  12   16.34    3.72
   7  -1 -12   22.81    4.15
   7   1 -12   14.98    3.44
  -7   1  12   16.48    2.59
  -7  -1  10  179.27   10.23
   7  -1 -10  212.72   11.11
  -7   1  10  199.79    8.12
   7   1 -10  204.42   11.01
   7  -1  -8  534.77   12.47
  -7   1   8  516.01   12.36
   7   1  -8  532.87   15.94
  -7  -1   8  568.87   16.45
  -7  -1   8  520.76   15.70
   7  -1  -6  921.23   15.87
  -7  -1   6  946.43   18.82
  -7   1   6  920.06   15.94
  -7  -1   6  966.57   19.81
   7   1  -6  928.74   18.43
   7   1  -4 8887.83   48.74
  -7   1   4 8853.21   48.93
   7  -1  -4 8735.52   49.19
  -7  -1   4 8857.35   55.87
  -7  -1   2   19.36    2.62
   7   1  -2   22.43    2.73
   7   1  -2   20.90    2.00
  -7   1   2   22.79    2.73
   7  -1  -2   20.25    2.51
   7  -1   0  402.78   11.51
  -7  -1   0  385.14   10.32
   7   1   0  389.03   10.38
   7  -1   2  247.52    9.56
  -7  -1  -2  245.33    8.00
   7   1   2  238.67    5.34
   7   1   2  226.51    7.76
  -7  -1  -4  841.83   14.91
   7  -1   4  821.45   18.62
   7   1   4  834.46   14.83
   7   1   4  825.04   12.60
  -7  -1  -6  130.76    6.05
   7  -1   6  125.34    8.04
   7   1   6  137.16    6.28
   7   1   6  123.31    6.02
  -7   1  -6  121.35    7.83
   7  -1   8  509.21   17.47
   7   1   8  536.74   14.54
   7   1   8  527.15   13.03
  -7   1  -8  490.06   17.06
  -7  -1  -8  533.54   14.29
  -7   1 -10  542.16   19.32
   7   1  10  522.16   13.93
  -7  -1 -10  529.07   16.11
   7   1  10  531.41   16.47
   7  -1  10  546.28   19.48
  -7   1 -12   59.64    6.98
   7  -1  12   62.99    7.33
   7   1  12   59.70    5.10
  -7  -1 -12   68.04    6.51
   7   1  12   63.07    6.50
   7   1  14   59.01    5.44
   7  -1  14   57.64    7.53
  -7  -1 -14   54.87    6.40
   7   1  14   54.31    6.49
   7  -1  16   61.15    8.54
   7   1  16   43.91    6.34
   7   1  16   42.92    5.02
   7   1  18   16.42    3.98
   7  -1  18   10.30    4.38
   7  -1  20   -0.76    2.74
   7   1  20    1.35    2.40
   7  -1  22  147.34   15.34
   7   1  22  137.51   13.85
   7   1  24   11.93    5.06
  -7  -2  25  123.94   13.40
  -7  -2  23   17.97    5.55
  -7  -2  21  321.21   21.49
  -7   2  19  297.98   10.38
  -7  -2  19  293.61   19.37
  -7   2  17   94.33    5.73
  -7  -2  17  119.51   11.56
  -7   2  15  526.16   12.66
  -7  -2  15  520.38   22.40
  -7   2  13  262.05    8.61
   7  -2 -13  271.14   14.44
  -7  -2  13  277.39   15.12
   7   2 -13  253.94   14.26
   7   2 -11  102.16    8.29
   7  -2 -11   91.29    7.98
  -7  -2  11   91.81    8.00
  -7   2  11   87.92    4.82
  -7   2   9  407.60   10.46
   7  -2  -9  396.59   10.28
  -7  -2   9  435.75   15.79
   7   2  -9  407.01   15.17
  -7  -2   7 2666.52   34.99
  -7   2   7 2608.95   26.98
   7  -2  -7 2613.86   27.12
   7   2  -7 2615.67   34.26
   7  -2  -5  417.12   11.36
  -7  -2   5  419.05   12.22
   7   2  -5  418.95   12.02
  -7  -2   3  802.65   14.06
   7   2  -3  819.84   13.90
  -7  -2   3  835.70   18.77
   7  -2  -3  820.12   16.84
   7  -2  -1 1425.90   23.73
   7   2  -1 1374.18   12.92
  -7  -2   1 1355.21   22.35
  -7  -2  -1    5.58    1.49
   7  -2   3    2.33    1.51
   7   2   3    3.13    1.26
  -7  -2  -3    1.46    1.00
   7  -2   5  667.33   19.79
   7   2   5  626.30   12.46
  -7  -2  -5  642.46    8.78
  -7  -2  -5  656.59   12.63
   7   2   7  322.03    9.15
   7  -2   7  325.65   14.83
  -7  -2  -7  317.83    8.69
   7   2   7  312.91    8.57
   7   2   9    4.82    1.46
   7  -2   9    0.42    1.56
  -7   2  -9    4.53    2.03
   7   2   9    5.44    1.27
  -7  -2  -9    2.74    1.25
   7   2  11 1368.29   26.07
   7   2  11 1353.41   18.24
  -7  -2 -11 1325.71   24.69
   7  -2  11 1394.85   34.87
   7  -2  13   73.71    8.57
  -7  -2 -13   78.50    6.78
   7   2  13   78.15    4.57
   7   2  13   83.80    7.29
   7   2  15   42.01    3.63
  -7  -2 -15   41.89    5.66
   7  -2  15   35.16    6.51
   7   2  15   38.98    5.74
   7  -2  17   24.43    5.84
   7   2  17   44.63    6.56
   7  -2  19  238.67   18.91
  -7  -3  22  102.71   13.29
  -7  -3  20   17.66    5.55
  -7  -3  18  313.66   20.08
  -7  -3  16  295.10   18.11
   7  -3 -14  228.23   14.10
  -7  -3  14  208.31   14.27
  -7  -3  12   84.88    8.50
   7  -3 -12   98.76    9.01
   7   3 -12   99.45    9.11
   7   3 -10 1052.94   27.10
  -7  -3  10 1070.49   27.60
   7  -3 -10 1073.82   16.35
  -7  -3   8   44.28    5.15
   7  -3  -8   39.35    3.54
   7   3  -8   44.32    5.20
   7   3  -6  103.32    6.98
  -7  -3   6   88.76    6.52
   7  -3  -6  104.59    6.16
  -7  -3   4 1548.48   23.82
   7   3  -4 1455.84   22.80
   7  -3  -4 1528.69   25.36
  -7  -3   2  790.89   14.08
  -7  -3   2  796.28   20.21
  -7  -3   0  104.35    3.64
  -7  -3   0   94.95    6.53
   7  -3   2   62.45    6.35
  -7  -3  -2   57.69    4.69
  -7  -3  -4  395.63   11.08
   7  -3   4  384.60   16.25
   7  -3   6   -1.27    2.25
  -7  -3  -6    3.09    1.06
   7  -3   8  576.60   22.18
  -7  -3  -8  594.28   10.57
   7  -3  10  347.17   18.27
  -7  -3 -10  362.91   10.57
  -7  -3 -12  178.92    8.75
   7  -3  12  161.93   13.22
   7  -3  14   65.29    9.06
   7  -3  16  321.45   21.10
   7  -3  18   23.85    5.82
  -7  -4  19   64.23    9.84
  -7  -4  17   -1.90    3.36
  -7  -4  15   16.90    4.92
  -7  -4  13   53.94    7.39
  -7  -4  11   26.28    4.98
   7  -4 -11   27.23    2.38
   7   4  -9  197.14   11.97
   7  -4  -9  212.32    8.49
  -7  -4   9  196.16   12.26
   7   4  -7  191.02   10.86
  -7  -4   7  180.80   10.72
   7  -4  -7  186.81    8.95
   7  -4  -5   19.15    3.23
  -7  -4   5   18.06    3.11
  -7  -4   3   89.75    6.05
  -7  -4   1  670.55   13.74
  -7  -4   1  659.08   20.04
  -7  -4  -1   67.58    3.19
   7  -4   1   68.13    7.26
  -7  -4  -1   69.23    6.12
   7  -4   3  197.74   12.59
  -7  -4  -3  208.57    9.72
  -7  -4  -5   90.20    5.75
   7  -4   5   84.41    8.83
   7  -4   7  517.43   22.29
  -7  -4  -7  554.67   11.05
   7  -4   9    0.70    1.87
   7  -4  11  418.41   22.30
   7  -4  13   27.38    6.15
   7  -4  15   22.62    6.26
  -7  -5  18    4.93    3.84
  -7  -5  16   16.23    5.06
  -7  -5  14    5.79    3.27
  -7  -5  12   -1.03    2.06
  -7  -5  10  126.12   10.93
  -7  -5   8  275.62   14.96
   7  -5  -6   86.22    7.09
  -7  -5   6   96.93    8.19
  -7  -5   4  259.87   12.02
   7  -5  -4  254.90   13.23
  -7  -5   2    2.73    1.33
   7  -5  -2    1.36    1.46
  -7  -5   2    5.90    1.78
  -7  -5   0   13.96    3.45
  -7  -5   0   17.90    2.24
   7  -5   0   18.32    4.05
  -7  -5  -2   35.41    2.22
   7  -5   2   27.93    5.00
  -7  -5  -2   31.44    4.64
  -7  -5  -4   90.58    6.83
   7  -5   4   86.80    9.52
  -7  -5  -6   83.79    5.57
   7  -5   6   65.13    8.51
   7  -5   8   -1.74    1.88
   7  -5  10   53.92    8.24
   7  -5  12   -2.63    2.80
   7  -5  14   12.19    5.24
  -7  -6  15    0.22    3.01
  -7  -6  13   11.29    4.24
  -7  -6  11    5.00    3.22
  -7  -6   9   54.29    7.42
  -7  -6   7   41.10    6.09
  -7  -6   5   71.23    7.23
   7  -6  -5   44.68    6.64
  -7  -6   3   29.30    5.85
   7  -6  -3   31.13    5.64
   7  -6  -1    1.23    1.97
  -7  -6   1   -0.19    1.64
  -7  -6  -1   -1.25    1.40
   7  -6   1   -4.03    3.22
   7  -6   3    0.47    2.16
   7  -6   5    9.24    3.89
   7  -6   7    1.65    2.06
   7  -6   9  153.80   14.96
  -7  -7   6    5.50    3.63
  -7  -7   4  113.73   12.13
   7  -7   0   33.88    6.84
   7  -7   2   14.93    5.10
   7  -7   4   23.65    6.11
   7  -7   6   17.69    6.03
  -8   0  24  148.04   12.08
  -8   0  22  136.67   11.13
  -8   0  20  231.61   13.78
  -8   0  18   16.60    3.82
  -8   0  16   66.98    6.65
   8   0 -14  606.45   22.22
  -8   0  14  590.75   18.43
   8   0 -12 1151.58   28.05
  -8   0  12 1192.65   24.58
   8   0 -10   85.22    7.05
  -8   0  10   80.60    6.02
  -8   0   8   42.43    4.14
   8   0  -8   47.27    4.84
  -8   0   6 4154.71   38.26
   8   0  -6 4171.40   37.91
   8   0  -4  808.95   16.11
  -8   0   4  805.42   16.05
   8   0  -2 7342.40   47.20
  -8   0   2 7386.83   47.60
  -8   0   0 1487.98   21.43
   8   0   0 1557.56   21.86
   8   0   2  944.23   17.62
  -8   0  -2  912.93   17.40
   8   0   4 1641.53   23.41
   8   0   4 1609.76   24.19
   8   0   6 2055.70   29.07
   8   0   6 2043.11   29.17
  -8   0  -6 2052.66   29.01
   8   0   8  202.49    9.80
  -8   0  -8  211.33   10.26
   8   0   8  206.67   10.27
  -8   0 -10  224.75   11.67
   8   0  10  219.41   10.84
   8   0  10  206.47   11.34
  -8   0 -12  603.09   20.70
   8   0  12  623.61   21.48
   8   0  12  622.70   19.36
   8   0  14  889.07   24.49
   8   0  14  904.96   27.84
   8   0  16   49.48    6.25
   8   0  16   47.43    7.13
   8   0  18   67.39    8.89
   8   0  20  365.14   22.06
   8   0  22   83.01   11.04
  -8  -1  25   31.26    6.42
  -8  -1  23  243.44   19.75
  -8  -1  23  214.89   15.79
  -8  -1  21  338.92   21.66
  -8   1  21  338.65   15.09
  -8  -1  21  318.30   18.16
  -8  -1  19   93.45   10.81
  -8   1  19   89.65    7.50
  -8  -1  19   80.27    8.76
  -8  -1  17  217.52   15.16
  -8   1  17  206.62   10.71
  -8  -1  17  210.70   13.26
  -8  -1  15  855.41   27.88
  -8   1  15  844.33   20.15
   8  -1 -15  827.59   26.79
  -8  -1  15  856.97   25.27
  -8  -1  13   15.84    3.53
  -8   1  13   15.56    2.71
  -8  -1  13   19.05    3.83
   8   1 -13   17.39    3.80
   8  -1 -13   22.88    4.44
  -8  -1  11  210.61   11.78
   8   1 -11  209.42   11.57
  -8   1  11  207.33    8.89
   8  -1 -11  192.03   11.26
  -8  -1  11  212.03   11.18
   8  -1  -9  910.03   17.63
   8  -1  -9  928.67   22.99
  -8  -1   9  895.94   22.09
  -8   1   9  905.09   17.66
   8   1  -9  877.92   21.88
  -8  -1   9  927.12   22.02
   8  -1  -7  220.35    8.40
  -8  -1   7  206.79    9.82
   8   1  -7  221.52    9.85
  -8  -1   7  211.69    9.68
  -8   1   7  222.67    8.42
   8   1  -5  337.61   10.59
  -8   1   5  356.55   10.54
   8  -1  -5  351.42   10.41
  -8  -1   5  352.39   11.98
   8   1  -3 1819.47   25.53
   8  -1  -3 1796.93   23.93
   8   1  -3 1787.89   20.79
  -8  -1   3 1834.26   25.66
  -8   1   3 1848.51   24.32
   8   1  -1    3.22    1.44
  -8   1   1    2.65    1.19
   8  -1  -1    2.99    1.22
  -8  -1   1    3.79    1.28
   8  -1   1  534.56   14.33
  -8  -1  -1  522.77   12.67
   8   1   1  530.99   12.68
   8   1   3 1476.58   16.13
   8  -1   3 1453.59   24.77
  -8  -1  -3 1481.91   20.82
   8   1   3 1440.91   20.79
   8  -1   3 1447.13   24.85
  -8  -1  -5 1235.61   19.57
   8  -1   5 1235.03   24.53
   8   1   5 1208.52   19.57
   8   1   5 1224.48   17.76
  -8   1  -7  471.17   16.39
  -8  -1  -7  445.40   12.38
   8  -1   7  469.48   16.47
   8   1   7  467.63   12.66
   8   1   7  481.37   13.15
   8  -1   9   48.04    5.81
   8   1   9   41.98    4.53
   8   1   9   49.08    4.37
  -8   1  -9   42.30    5.45
  -8  -1  -9   48.82    4.71
   8   1  11  464.12   16.42
  -8  -1 -11  457.61   15.93
   8   1  11  412.93   13.37
   8  -1  11  458.54   18.90
  -8   1 -11  479.14   19.19
  -8  -1 -13   16.27    3.52
   8   1  13   19.28    3.19
   8  -1  13   17.94    4.20
   8   1  13   18.19    3.90
   8  -1  15  210.96   14.98
   8   1  15  195.48   12.84
  -8  -1 -15  195.14   12.41
   8   1  15  206.42   10.67
   8   1  17  559.83   23.49
   8  -1  17  548.10   25.55
   8  -1  19   55.21    8.94
   8   1  19   46.95    7.59
   8   1  21    7.03    4.03
   8  -1  21    0.63    2.00
   8   1  23   68.60   10.43
  -8  -2  24   33.01    7.16
  -8  -2  22   72.43    9.79
  -8  -2  22   74.63   10.81
  -8  -2  20   23.36    5.71
  -8   2  18   58.72    4.90
  -8  -2  18   76.35    9.52
  -8  -2  16   10.94    3.87
  -8   2  16    9.55    2.16
  -8  -2  14  164.02   12.22
  -8   2  14  142.19    6.91
   8  -2 -14  171.05   12.15
  -8   2  12  276.02    9.34
  -8  -2  12  314.38   15.56
   8  -2 -12  319.26   15.44
   8   2 -12  296.07   14.89
  -8   2  10   73.37    4.76
  -8  -2  10   82.46    7.40
   8  -2 -10   70.73    4.69
   8   2 -10   85.00    7.40
  -8   2   8   44.20    3.77
   8  -2  -8   50.16    3.92
  -8  -2   8   43.64    4.87
   8   2  -8   44.51    4.77
  -8  -2   6  555.05   15.08
   8  -2  -6  572.58   13.81
   8   2  -6  551.94   14.83
  -8   2   6  552.52   13.45
  -8  -2   6  549.34   17.22
   8  -2  -4  445.16   12.65
  -8  -2   4  440.92   11.48
   8   2  -4  429.48   11.15
  -8  -2   4  444.28   14.50
  -8  -2   2   12.33    2.52
   8   2  -2    8.81    1.28
   8  -2  -2   10.72    2.26
  -8  -2   0 2158.07   28.25
   8  -2   0 2213.31   31.60
  -8  -2  -2   35.80    3.48
   8   2   2   38.56    3.68
   8   2   4    9.14    1.81
  -8  -2  -4    9.19    1.73
   8  -2   4    7.36    2.22
   8   2   6   12.02    1.86
   8  -2   6   10.62    2.61
  -8  -2  -6   11.84    1.54
  -8  -2  -6    9.93    1.68
   8   2   6   11.61    1.61
   8   2   8   70.63    4.44
   8   2   8   77.51    4.96
   8  -2   8   62.81    6.86
  -8  -2  -8   76.51    4.71
   8  -2  10  378.16   17.91
   8   2  10  372.96   12.77
   8   2  10  377.16   10.35
  -8  -2 -10  389.29   12.56
   8   2  12   24.88    3.68
  -8  -2 -12   31.68    4.11
   8   2  12   28.99    2.97
   8  -2  12   32.01    5.73
   8   2  14   97.06    5.67
   8  -2  14   82.87    9.66
   8   2  14   99.69    8.28
  -8  -2 -14   96.72    7.93
   8   2  16   96.96    9.12
   8  -2  16   91.76   10.70
  -8  -2 -16   86.63    8.14
   8  -2  18    0.42    2.21
   8   2  18   -1.05    1.60
   8  -2  20   76.42   10.89
  -8  -3  21   -0.72    3.72
  -8  -3  19   -6.09    3.92
  -8  -3  17    4.00    3.03
  -8  -3  15   34.96    6.03
  -8  -3  13  192.63   13.25
   8  -3 -13  178.45   12.37
   8  -3 -11    5.25    1.31
   8   3 -11    2.57    1.56
  -8  -3  11    8.79    2.85
   8   3  -9   -0.18    1.16
   8  -3  -9    2.37    1.07
  -8  -3   9   -2.15    1.29
   8   3  -7  104.21    7.35
  -8  -3   7  101.43    7.39
   8  -3  -7  114.50    6.52
   8  -3  -5   38.93    4.11
  -8  -3   5   39.55    4.09
   8   3  -5   45.31    4.32
   8   3  -3   35.04    3.13
  -8  -3   3   31.28    4.30
  -8  -3   3   29.26    2.99
   8  -3  -3   23.33    3.44
  -8  -3   1   17.66    3.05
  -8  -3   1   19.06    1.82
  -8  -3  -1   11.64    2.47
  -8  -3  -3  182.13    8.18
   8  -3   3  164.00   10.59
   8  -3   5  175.09   11.56
  -8  -3  -5  156.89    7.05
  -8  -3  -7  223.21    7.38
   8  -3   7  216.59   13.56
   8  -3   9   15.05    4.04
  -8  -3  -9   13.43    1.76
   8  -3  11    9.84    3.75
  -8  -3 -11   11.88    1.99
  -8  -3 -13   52.92    5.05
   8  -3  13   53.25    9.29
   8  -3  15   33.05    7.27
   8  -3  17   47.51    8.80
  -8  -4  20   26.98    6.85
  -8  -4  18   75.60   10.36
  -8  -4  16    9.06    3.97
  -8  -4  14   38.10    6.53
  -8  -4  12   70.52    8.31
   8  -4 -12   82.47    4.06
  -8  -4  10  380.27   17.44
   8  -4 -10  377.89   11.29
   8   4 -10  349.79   16.54
  -8  -4   8   45.69    5.58
   8   4  -8   46.14    5.48
   8  -4  -8   43.66    4.40
   8   4  -6  539.24   17.07
  -8  -4   6  554.73   17.51
   8  -4  -6  553.03   16.66
  -8  -4   4    2.61    0.99
  -8  -4   4    3.90    2.08
   8  -4  -4   -0.93    1.29
  -8  -4   2   92.06    7.91
  -8  -4   2   83.87    5.18
   8  -4   0  639.49   22.11
  -8  -4   0  681.21   10.49
  -8  -4   0  676.17   19.90
  -8  -4  -2   46.35    4.85
   8  -4   2   46.08    6.17
   8  -4   4   25.82    4.64
  -8  -4  -4   24.83    3.35
  -8  -4  -6  295.18    9.75
   8  -4   6  263.63   15.88
   8  -4   8   53.09    7.64
  -8  -4  -8   60.34    3.13
   8  -4  10   61.95    8.50
   8  -4  12   61.54    8.99
   8  -4  14  170.33   15.54
   8  -4  16   76.53   11.10
  -8  -5  17   70.98   10.42
  -8  -5  15   38.92    7.10
  -8  -5  13   28.55    5.97
  -8  -5  11  169.33   12.98
  -8  -5   9  689.22   24.31
  -8  -5   7   36.71    5.21
   8  -5  -7   30.69    4.36
  -8  -5   5   11.01    2.73
   8  -5  -5    8.62    2.70
   8  -5  -3  272.64   14.37
  -8  -5   3  268.48   11.15
  -8  -5   3  255.47   14.80
  -8  -5   1  137.84    6.59
   8  -5  -1  117.99   10.43
  -8  -5   1  120.78    9.68
  -8  -5  -1    0.05    0.46
  -8  -5  -1    1.10    1.26
   8  -5   1   -1.73    2.72
   8  -5   3   68.52    8.40
  -8  -5  -3   83.75    6.96
  -8  -5  -5  286.70   11.51
   8  -5   5  261.16   16.96
   8  -5   7   66.56    9.07
   8  -5   9   92.75   10.96
   8  -5  11   56.94    8.99
   8  -5  13    0.76    2.52
  -8  -6  16    5.77    4.13
  -8  -6  14   40.58    7.52
  -8  -6  12   68.09    9.11
  -8  -6  10   19.64    4.96
  -8  -6   8    3.73    2.34
  -8  -6   6  111.65   11.54
  -8  -6   4   -1.75    2.06
   8  -6  -4   -3.62    1.82
  -8  -6   2    8.03    3.28
   8  -6  -2   19.31    4.55
   8  -6   0  158.94   13.28
  -8  -6   0  152.16   11.58
  -8  -6  -2   43.55    5.98
   8  -6   2   33.54    6.31
   8  -6   4    4.34    3.07
   8  -6   6   24.50    6.32
   8  -6   8   30.93    6.93
   8  -6  10   -0.93    3.57
  -8  -7   7   -1.59    2.62
  -8  -7   5    9.63    4.53
  -8  -7   3    8.64    4.54
   8  -7  -1   12.53    3.96
   8  -7   1    9.55    3.79
   8  -7   3   36.81    7.20
   8  -7   5   13.98    5.11
  -9   0  23    0.33    1.42
  -9   0  21   -0.60    1.69
  -9   0  19    3.73    2.65
  -9   0  17    0.19    1.28
  -9   0  15    1.20    1.32
  -9   0  13    0.68    1.14
   9   0 -13   -0.45    1.38
  -9   0  11   -0.21    0.95
   9   0 -11    0.03    1.78
  -9   0   9   -0.73    0.89
   9   0  -9   -0.09    1.08
   9   0  -7   -0.56    0.78
   9   0  -7    0.71    1.14
  -9   0   7    0.59    1.32
   9   0  -5    0.42    0.71
  -9   0   5   -0.07    1.02
  -9   0   3    0.60    1.03
   9   0  -3    0.95    0.89
  -9   0   1    1.38    1.10
   9   0  -1    0.02    0.75
  -9   0  -1    2.88    1.35
   9   0   1    0.42    1.14
   9   0   3   -0.20    0.90
   9   0   3    1.93    0.99
   9   0   5   -0.02    0.99
   9   0   5    0.94    0.91
  -9   0  -7   -0.77    1.43
   9   0   7    0.64    1.08
   9   0   7   -0.51    0.90
  -9   0  -9    0.58    1.53
   9   0   9    1.65    0.88
   9   0   9   -1.50    1.56
   9   0  11   -0.77    1.25
  -9   0 -11    1.43    1.43
   9   0  11    3.03    1.67
  -9   0 -13   -1.20    2.32
   9   0  13    1.27    1.06
   9   0  13    3.06    2.03
   9   0  15    2.70    2.26
   9   0  15    1.64    2.20
   9   0  17    1.07    1.90
   9   0  19   -5.13    3.82
   9   0  21    2.04    2.96
  -9  -1  26   -3.98    3.08
  -9  -1  24   14.48    4.86
  -9  -1  24   14.07    5.35
  -9  -1  22  130.50   14.23
  -9   1  22  129.19    9.70
  -9  -1  22  139.14   12.58
  -9  -1  20  118.15   12.58
  -9   1  20  123.54    9.13
  -9  -1  20  115.43   10.81
  -9  -1  18   18.20    4.12
  -9  -1  18   19.97    5.22
  -9   1  18   15.78    3.32
  -9  -1  16    0.97    1.67
  -9  -1  16   -1.10    1.78
  -9   1  16    0.24    1.35
   9  -1 -14  569.43   21.78
  -9  -1  14  567.73   22.00
  -9   1  14  580.06   16.62
   9   1 -14  598.57   22.34
  -9  -1  14  564.99   20.16
   9  -1 -12  230.06   12.99
  -9  -1  12  236.59   13.15
  -9   1  12  234.81   10.09
   9   1 -12  240.41   13.13
  -9  -1  12  232.23   12.34
   9  -1 -10  114.15    8.62
  -9  -1  10  107.50    8.08
  -9   1  10  106.31    6.47
   9   1 -10  113.93    8.37
  -9  -1  10  115.01    8.23
   9  -1 -10  108.21    6.52
  -9   1   8 2006.09   27.30
  -9  -1   8 2061.60   32.30
   9   1  -8 1998.17   31.47
   9  -1  -8 2029.67   27.38
  -9  -1   8 2047.38   32.30
   9  -1  -6 1597.64   23.79
   9   1  -6 1643.71   25.26
  -9  -1   6 1657.66   27.37
  -9   1   6 1615.24   23.87
  -9  -1   4   23.62    3.39
   9   1  -4   21.97    3.11
  -9   1   4   20.01    2.77
   9   1  -4   21.30    2.61
   9  -1  -4   26.57    3.12
   9  -1  -2  593.13   14.80
  -9   1   2  600.60   14.96
   9   1  -2  576.88   14.65
  -9  -1   2  599.45   14.94
   9  -1   0 1085.88   20.74
  -9  -1   0 1050.77   19.23
   9   1   0 1071.01   19.36
   9  -1   2    1.01    1.13
  -9  -1  -2   -0.50    1.10
   9   1   2    1.31    0.56
   9   1   2    2.45    1.22
   9  -1   4 1239.77   24.39
   9  -1   4 1239.42   24.72
  -9  -1  -4 1219.76   20.44
   9   1   4 1235.85   17.03
   9   1   4 1186.33   20.27
   9   1   6  860.04   17.82
   9   1   6  881.36   16.86
   9  -1   6  893.14   22.31
   9  -1   8   70.44    6.77
   9   1   8   74.55    5.66
   9   1   8   74.79    5.52
  -9  -1  -8   78.10    5.68
   9  -1  10   59.43    6.78
  -9  -1 -10   58.73    5.57
   9   1  10   55.81    5.51
  -9   1 -10   58.19    6.57
   9   1  10   53.46    4.91
  -9  -1 -12  240.99   12.25
   9   1  12  261.67   13.11
   9  -1  12  263.06   15.07
   9   1  12  256.60   11.31
   9  -1  14    9.54    3.27
  -9  -1 -14    8.75    2.54
   9   1  14    8.63    2.44
   9   1  14    8.76    3.12
   9   1  16   26.19    4.10
   9  -1  16   29.57    5.94
   9   1  16   20.60    4.60
   9  -1  18   88.75   10.92
   9   1  18   88.60    9.77
   9  -1  20   22.03    5.38
   9   1  20   15.56    4.96
   9   1  22   13.95    5.28
  -9  -2  25   31.73    6.94
  -9  -2  23   95.10   11.58
  -9  -2  23   98.30   12.78
  -9  -2  21    4.09    2.15
  -9  -2  21    6.39    3.95
  -9  -2  19  200.31   16.16
  -9  -2  19  188.10   14.37
  -9   2  19  189.58    9.12
  -9   2  17  454.01   13.75
  -9  -2  17  464.11   22.63
  -9   2  15    3.19    1.46
  -9  -2  15    3.82    2.53
   9   2 -13   79.79    8.12
  -9  -2  13   74.35    7.94
  -9   2  13   73.93    5.25
   9  -2 -13   70.52    7.64
   9  -2 -11  423.64   12.28
  -9  -2  11  439.32   17.53
  -9   2  11  429.78   12.20
   9   2 -11  443.47   17.66
  -9  -2   9    4.95    2.40
   9   2  -9    3.15    1.49
  -9  -2   9    3.69    1.77
  -9   2   9    3.42    1.26
   9  -2  -9    3.75    1.34
  -9  -2   7 1077.32   22.43
  -9   2   7 1127.34   20.20
   9   2  -7 1060.56   22.13
  -9  -2   7 1110.50   25.63
   9  -2  -7 1106.77   20.02
  -9  -2   5 1250.15   21.14
   9  -2  -5 1237.07   21.81
   9   2  -5 1201.03   20.49
  -9  -2   5 1190.40   25.14
   9  -2  -3  101.39    6.59
   9   2  -3   95.61    4.82
  -9  -2   3   96.07    6.85
  -9  -2   1    1.89    1.20
   9  -2  -1    1.97    1.29
   9   2  -1    2.00    0.64
   9  -2   1 1024.42   23.05
  -9  -2  -1 1027.25   19.75
   9   2   1  982.81   19.41
  -9  -2  -3 1131.56   19.62
   9  -2   3 1091.25   25.17
   9   2   3 1051.48   19.14
  -9  -2  -5   45.08    3.90
   9   2   5   41.99    2.37
   9   2   5   47.91    4.00
   9  -2   5   49.04    5.63
   9  -2   7  518.68   19.41
   9   2   7  472.79   10.98
   9   2   7  483.28   12.56
  -9  -2  -7  492.87   10.84
  -9  -2  -9 1262.44   20.95
   9   2   9 1215.61   21.32
   9  -2   9 1259.28   32.07
   9   2   9 1247.59   20.14
   9  -2  11   35.83    6.03
   9   2  11   33.29    3.43
   9   2  11   31.84    4.17
  -9  -2 -11   34.75    4.10
   9   2  13   39.93    3.74
   9   2  13   46.62    5.44
  -9  -2 -13   36.46    4.67
   9  -2  13   43.80    7.02
   9   2  15  513.39   19.80
   9  -2  15  492.82   24.33
  -9  -2 -15  492.93   18.59
   9  -2  17    6.88    3.24
   9   2  17    2.72    2.36
   9   2  19  109.08   10.77
   9  -2  19  108.16   12.67
  -9  -3  22  176.07   16.28
  -9  -3  22  192.97   17.79
  -9  -3  20  124.73   13.48
  -9  -3  18  149.95   13.85
  -9  -3  16    2.24    2.59
  -9  -3  14  238.33   15.25
   9  -3 -12    1.15    0.87
   9   3 -12    0.48    1.16
  -9  -3  12    1.74    1.42
   9   3 -10    2.27    1.81
  -9  -3  10   10.89    3.14
   9  -3 -10    6.78    1.87
  -9  -3   8  340.79   14.03
   9  -3  -8  351.96   11.80
   9   3  -8  333.95   13.77
  -9  -3   6  185.27    9.28
   9   3  -6  176.92    8.94
   9  -3  -6  199.69    9.40
  -9  -3   6  189.25   11.42
   9  -3  -4  121.44    7.75
   9   3  -4  121.52    6.34
  -9  -3   4  127.57    6.65
  -9  -3   4  124.03    8.77
   9   3  -2 1004.46   14.26
  -9  -3   2 1001.50   14.73
   9  -3  -2 1048.68   24.07
  -9  -3   2  980.52   23.24
  -9  -3   0   65.12    5.69
   9  -3   2   54.16    6.22
  -9  -3  -2   45.71    4.42
   9  -3   4 1043.58   27.89
  -9  -3  -4 1060.88   19.82
   9  -3   6  588.95   22.14
  -9  -3  -6  600.88   13.79
   9  -3   8  268.25   15.77
  -9  -3 -10   72.59    4.41
   9  -3  10   67.34    8.48
   9  -3  12  293.15   18.27
  -9  -3 -12  317.04   11.06
   9  -3  14   50.70    8.11
   9  -3  16   42.26    8.09
   9  -3  18   71.12   11.05
  -9  -4  19   97.37   12.27
  -9  -4  17   65.46    9.21
  -9  -4  15   85.90   10.07
  -9  -4  13    4.84    3.18
  -9  -4  11  201.48   13.16
   9  -4 -11  191.97    8.17
   9   4  -9    6.37    2.38
   9  -4  -9   17.64    2.89
  -9  -4   9   11.88    3.30
   9   4  -7   96.54    7.54
  -9  -4   7  104.18    7.93
   9  -4  -7  107.16    7.46
   9   4  -5   63.46    5.45
   9  -4  -5   56.73    5.78
  -9  -4   5   65.44    5.64
  -9  -4   5   69.02    7.41
  -9  -4   3   35.45    5.16
   9  -4  -3   30.90    4.63
  -9  -4   3   24.37    2.94
  -9  -4   1   59.44    3.41
  -9  -4   1   63.88    6.44
   9  -4   1  236.36   13.90
  -9  -4  -1  250.08   11.92
   9  -4   3    3.24    2.50
  -9  -4  -3   32.46    4.03
  -9  -4  -5  152.22    7.85
   9  -4   5  126.40   10.98
  -9  -4  -7  430.61   11.09
   9  -4   7  405.84   20.56
   9  -4   9  218.12   15.91
   9  -4  11   39.05    7.10
   9  -4  13   12.34    4.48
   9  -4  15   42.04    8.32
  -9  -5  18   42.39    8.60
  -9  -5  16   12.37    5.23
  -9  -5  14    6.12    3.50
  -9  -5  12   35.18    6.08
  -9  -5  10   -1.68    2.26
  -9  -5   8   16.47    3.79
  -9  -5   6    3.92    2.79
   9  -5  -6    2.75    1.94
  -9  -5   6    4.20    2.06
  -9  -5   4   20.01    4.44
   9  -5  -4   22.70    4.59
  -9  -5   4   25.48    3.70
  -9  -5   2    6.00    2.69
  -9  -5   2    4.79    1.51
  -9  -5   0   25.04    4.42
  -9  -5   0   19.41    1.56
   9  -5   0   12.59    3.74
   9  -5   2  180.83   13.66
  -9  -5  -2  183.42   10.99
   9  -5   4   -3.58    2.96
  -9  -5  -4   -0.31    1.01
   9  -5   6   -2.43    2.52
   9  -5   8  125.55   12.88
   9  -5  10    0.17    1.98
   9  -5  12    2.10    3.09
  -9  -6  15    2.87    2.34
  -9  -6  13   -2.65    2.09
  -9  -6  11   23.90    5.70
  -9  -6   9   58.43    9.13
  -9  -6   9   71.75    8.18
  -9  -6   7   34.93    6.69
  -9  -6   5   -3.51    2.17
   9  -6  -3   94.84   10.15
  -9  -6   3   95.78   10.15
  -9  -6   1   19.52    4.31
   9  -6  -1   20.46    5.11
  -9  -6  -1    2.05    2.46
   9  -6   1    4.27    2.57
   9  -6   3    9.13    4.04
   9  -6   5  106.20   11.96
   9  -6   7    3.14    4.32
   9  -6   9   98.75   12.45
  -9  -7   6   42.96    7.99
  -9  -7   4    2.89    3.10
   9  -7  -2   45.33    7.94
   9  -7   0   16.93    5.39
   9  -7   2   19.20    5.29
   9  -7   4    9.88    4.43
 -10   0  24  185.41   13.74
 -10   0  22   11.58    3.73
 -10   0  20   49.58    6.65
 -10   0  18    6.71    2.62
 -10   0  16  885.01   24.63
  10   0 -14  158.70   11.60
 -10   0  14  144.58    9.56
  10   0 -12 2814.19   45.17
 -10   0  12 2911.64   40.29
  10   0 -10  269.71   12.90
 -10   0  10  271.52   11.66
  10   0  -8    6.17    1.89
  10   0  -8    4.42    1.38
 -10   0   8    5.20    1.67
  10   0  -6    6.10    1.87
 -10   0   6    3.47    1.42
  10   0  -4 1332.00   22.85
 -10   0   4 1295.14   22.68
 -10   0   2    5.78    1.85
  10   0  -2    6.29    1.72
 -10   0   0  784.63   17.33
  10   0   0  769.64   17.26
  10   0   2 2394.93   31.29
 -10   0  -2 2394.51   31.32
  10   0   4    1.98    1.22
  10   0   4    3.54    1.41
  10   0   6  629.81   17.49
  10   0   6  648.34   17.37
  10   0   8  137.07    8.68
  10   0   8  145.88    8.90
  10   0  10  169.59   10.14
 -10   0 -10  168.20   10.44
  10   0  10  168.57   10.52
 -10   0 -12  242.44   13.51
  10   0  12  227.54   12.38
  10   0  12  219.16   13.06
  10   0  14    0.67    1.63
  10   0  14    1.49    1.49
  10   0  16  399.08   20.49
  10   0  18   83.85    9.91
  10   0  20   21.29    5.61
  10   0  22  204.36   17.66
 -10  -1  25   37.37    7.01
 -10  -1  23  170.28   14.18
 -10  -1  21    5.31    3.53
 -10  -1  21    1.83    3.45
 -10   1  21    3.46    1.38
 -10  -1  19   89.08   10.73
 -10   1  19   77.75    7.19
 -10  -1  19   82.73    8.88
 -10  -1  17   20.26    4.41
 -10  -1  17    9.08    3.13
 -10   1  17   17.99    3.48
 -10  -1  15 1239.90   33.98
 -10   1  15 1267.59   25.97
 -10  -1  15 1221.49   30.77
 -10  -1  13  665.72   23.22
  10   1 -13  668.33   22.75
 -10   1  13  660.63   17.84
  10  -1 -13  684.50   23.36
 -10  -1  13  645.93   21.36
  10   1 -11   38.25    5.20
 -10  -1  11   43.28    5.46
  10  -1 -11   36.77    3.99
 -10  -1  11   40.88    5.53
  10  -1 -11   39.14    5.35
 -10   1  11   39.78    4.21
  10  -1  -9   15.35    2.64
 -10  -1   9   16.51    3.20
 -10   1   9   15.60    2.64
  10   1  -9   19.29    3.39
  10   1  -7  377.27   13.16
 -10   1   7  391.37   12.43
  10  -1  -7  380.25   12.24
 -10  -1   7  384.48   14.11
 -10   1   5 1352.54   23.10
  10   1  -5 1360.81   22.20
  10  -1  -5 1424.18   23.48
 -10  -1   5 1401.82   25.38
  10   1  -5 1385.32   25.10
 -10   1   3  270.03   10.43
  10  -1  -3  249.93   10.01
 -10  -1   3  263.29   10.51
  10   1  -3  238.90   10.09
  10   1  -1    2.24    1.05
 -10   1   1    3.52    1.45
  10  -1  -1    2.95    1.29
 -10  -1   1    2.25    1.10
 -10  -1  -1  545.94   14.44
  10   1   1  559.29   14.56
  10  -1   1  562.75   15.97
  10  -1   3  670.15   18.40
  10   1   3  642.59   15.71
  10  -1   3  649.39   17.71
 -10  -1  -3  663.39   15.84
  10   1   3  647.11   12.16
  10   1   5   28.74    2.98
 -10  -1  -5   32.58    3.65
  10  -1   5   37.88    4.63
  10   1   5   32.64    3.66
  10  -1   5   33.70    4.28
  10  -1   7    5.02    2.01
  10  -1   7    3.30    1.87
  10   1   7    6.66    1.80
  10   1   7    4.39    1.26
  10   1   9  113.88    7.57
  10  -1   9  112.98    9.07
  10   1   9  114.65    7.34
 -10  -1  -9  107.78    7.20
  10   1  11  411.94   14.61
 -10  -1 -11  415.47   15.45
  10   1  11  415.40   15.86
 -10   1 -11  438.37   19.01
  10  -1  11  413.79   18.40
  10   1  13  549.51   20.05
 -10  -1 -13  544.36   19.39
  10   1  13  531.76   17.29
  10  -1  13  578.32   23.52
  10   1  15    2.12    1.63
  10  -1  15    4.62    2.96
  10   1  15    9.28    2.70
  10  -1  17  122.27   12.32
  10   1  17  116.55   11.00
  10  -1  19  101.77   11.95
  10   1  19   80.53    9.86
  10  -1  21   46.02    8.49
  10   1  21   34.71    6.97
 -10  -2  24   10.26    3.70
 -10  -2  22   13.58    5.12
 -10  -2  22   13.03    5.07
 -10  -2  20    0.19    1.94
 -10  -2  20   -2.21    3.28
 -10   2  20    2.77    1.75
 -10  -2  18  198.71   15.53
 -10   2  18  186.43    9.38
 -10  -2  18  181.06   13.92
 -10   2  16  140.70    7.93
 -10  -2  16  138.77   12.03
 -10  -2  16  142.51   11.76
 -10  -2  14   72.64    8.16
 -10   2  14   79.44    5.83
 -10  -2  14   84.39    8.67
  10  -2 -12  163.69   11.57
 -10  -2  12  168.21   11.40
 -10   2  12  154.14    7.86
  10   2 -12  155.04   10.86
  10  -2 -12  156.63    7.90
 -10  -2  12  166.00   11.49
  10  -2 -10    0.59    0.76
 -10  -2  10    0.15    1.95
 -10   2  10    0.51    0.72
  10   2 -10    0.49    1.50
 -10  -2  10    0.19    1.41
 -10  -2   8   25.85    4.12
 -10   2   8   27.81    3.38
  10   2  -8   32.29    4.16
 -10  -2   8   27.33    3.89
  10  -2  -8   26.85    3.30
 -10  -2   6 1044.45   21.03
  10  -2  -6 1022.63   20.62
 -10   2   6 1012.95   20.55
  10   2  -6  998.48   20.34
 -10  -2   6 1040.46   24.74
  10   2  -4  653.95   14.11
 -10  -2   4  680.14   18.86
  10  -2  -4  690.16   17.52
 -10  -2   2   29.91    3.89
  10  -2  -2   27.31    3.69
  10   2  -2   27.82    2.35
  10   2   0   21.83    3.23
  10  -2   0   22.69    3.73
  10   2   0   24.22    1.41
 -10  -2   0   23.60    3.34
  10  -2   2  268.24   12.56
 -10  -2  -2  286.92   10.67
  10   2   2  262.46   10.32
  10   2   4   -3.40    1.27
 -10  -2  -4    0.09    0.77
  10   2   4   -0.60    0.44
  10  -2   4   -0.70    1.71
  10   2   6   31.60    2.56
  10  -2   6   31.04    4.88
 -10  -2  -6   31.52    3.43
  10   2   6   31.73    3.51
  10  -2   8  181.77   12.15
  10   2   8  179.23    8.11
  10   2   8  188.67    7.83
  10  -2  10  290.99   16.22
  10   2  10  289.73   11.33
 -10  -2 -10  286.01   10.80
  10   2  10  298.67   10.61
  10  -2  12   59.32    7.97
 -10  -2 -12   61.15    5.65
  10   2  12   59.57    4.88
  10   2  12   58.02    5.71
 -10  -2 -14   78.99    7.19
  10   2  14   71.25    5.46
  10   2  14   63.33    6.67
  10  -2  14   77.71    9.54
  10  -2  16   21.66    5.78
  10   2  16   28.65    5.08
  10  -2  18   11.56    5.00
  10   2  18   18.82    4.67
 -10  -3  23   -0.19    3.76
 -10  -3  21   -1.95    2.21
 -10  -3  21    0.37    2.07
 -10  -3  19   18.52    5.47
 -10  -3  19   11.94    4.64
 -10  -3  17   82.08   10.01
 -10  -3  15   55.58    7.85
 -10  -3  13  281.15   15.91
  10  -3 -13  302.17   10.19
  10   3 -11   62.89    6.97
  10  -3 -11   61.18    4.87
 -10  -3  11   50.99    6.28
 -10  -3   9   28.44    4.36
 -10  -3   9   38.01    5.75
  10   3  -9   31.99    4.54
  10  -3  -9   32.13    3.75
  10   3  -7  186.27    9.59
 -10  -3   7  188.04    9.91
  10  -3  -7  175.92    9.04
 -10  -3   7  188.44   11.83
 -10  -3   5   63.33    5.09
  10   3  -5   59.66    4.80
  10  -3  -5   58.60    5.41
 -10  -3   5   61.78    6.46
 -10  -3   3  120.12    5.78
  10   3  -3  119.45    5.57
  10  -3  -3  124.51    8.38
 -10  -3   3  114.81    8.31
 -10  -3   1   29.85    4.20
  10  -3  -1   32.31    4.46
 -10  -3  -1  326.51   12.59
  10  -3   3  127.71    9.90
 -10  -3  -3  125.84    7.36
 -10  -3  -5    1.74    0.93
  10  -3   5    1.88    1.72
  10  -3   7   23.76    4.79
 -10  -3  -7   22.96    2.81
  10  -3   9   55.88    7.61
  10  -3  11   45.31    7.36
 -10  -3 -11   44.11    3.69
  10  -3  13    3.76    3.33
  10  -3  15   64.67    9.70
  10  -3  17   70.92   10.61
 -10  -4  20   16.68    4.64
 -10  -4  18   59.06    9.25
 -10  -4  16  133.85   12.84
 -10  -4  14   25.56    5.25
 -10  -4  12  118.72   10.59
  10  -4 -12  138.69    7.07
 -10  -4  10  421.79   18.18
  10  -4 -10  457.48   14.24
  10   4 -10  394.83   17.43
 -10  -4   8    5.12    2.54
  10  -4  -8    5.41    1.90
  10   4  -8    3.73    1.72
 -10  -4   8    9.89    2.75
 -10  -4   6   52.89    6.82
  10   4  -6   56.74    5.39
  10  -4  -6   51.66    5.58
 -10  -4   6   56.76    5.57
  10  -4  -4  308.25   14.17
 -10  -4   4  298.63   10.96
 -10  -4   4  307.45   15.44
  10  -4  -2  207.04   12.22
 -10  -4   2  184.66   11.43
 -10  -4   2  217.01    7.27
 -10  -4   0  229.06   12.00
  10  -4   2   40.52    6.01
 -10  -4  -2   38.17    4.67
 -10  -4  -4   53.59    5.08
  10  -4   4   46.47    6.81
 -10  -4  -6   67.97    5.12
  10  -4   6   52.90    7.38
 -10  -4  -8   23.17    2.46
  10  -4   8   26.80    5.69
  10  -4  10   30.80    6.46
  10  -4  12   28.89    6.50
  10  -4  14  119.54   13.49
 -10  -5  19   62.77   10.09
 -10  -5  17   -1.04    2.43
 -10  -5  15   54.20    8.65
 -10  -5  13  172.85   13.77
 -10  -5  11   49.72    6.90
 -10  -5   9  107.05    9.48
  10   5  -9  100.71    9.06
 -10  -5   9  108.01   11.20
 -10  -5   7    8.68    3.16
  10  -5  -7    9.06    2.78
 -10  -5   7    6.95    2.42
 -10  -5   5   56.23    7.47
  10  -5  -5   58.81    6.74
 -10  -5   5   42.67    4.81
 -10  -5   3    5.26    2.76
 -10  -5   3    3.88    1.42
  10  -5  -1   82.96    9.10
 -10  -5   1   96.22    8.87
  10  -5   1  117.95   11.15
 -10  -5  -1  132.36    9.80
 -10  -5  -3  212.33   11.45
  10  -5   3  181.00   14.18
  10  -5   5   86.17   10.24
 -10  -5  -5  106.15    7.35
  10  -5   7  233.99   17.22
  10  -5   9   -1.12    2.37
  10  -5  11  101.84   12.36
 -10  -6  16   -4.30    3.57
 -10  -6  14   19.02    5.23
 -10  -6  12   75.84   11.00
 -10  -6  12   79.72    9.84
 -10  -6  10   35.86    7.35
 -10  -6   8   23.75    5.83
 -10  -6   6   -0.56    2.83
 -10  -6   4   72.82    9.27
  10  -6  -4   75.49    9.35
 -10  -6   2   69.45    8.47
  10  -6  -2   71.11    9.08
 -10  -6   0   20.44    4.77
  10  -6   0   26.91    5.78
  10  -6   2   84.30   10.33
  10  -6   4   15.52    4.69
  10  -6   6    3.24    4.00
  10  -6   8  147.65   14.98
 -10  -7   7   15.60    5.21
 -10  -7   5   -0.14    2.39
  10  -7  -3   -0.18    3.03
  10  -7  -1   22.02    5.43
  10  -7   1    0.01    2.50
  10  -7   3   -0.18    2.44
 -11   0  25   -0.65    2.31
 -11   0  23   -5.52    2.70
 -11   0  21   -0.24    1.90
 -11   0  19   -0.26    1.84
 -11   0  17    1.29    1.76
 -11   0  15    0.25    1.18
 -11   0  13   -0.23    1.20
  11   0 -13   10.26    3.59
 -11   0  11    1.99    1.07
  11   0 -11    0.84    1.15
  11   0  -9    0.71    1.36
  11   0  -9   -0.21    1.37
 -11   0   9    0.51    1.28
  11   0  -7    0.38    1.03
 -11   0   7   -0.50    0.99
  11   0  -5    5.93    1.84
 -11   0   5    0.13    0.93
 -11   0   3    2.10    1.41
  11   0  -3    0.78    1.13
 -11   0   1   -0.71    1.23
  11   0  -1   -0.53    0.87
 -11   0  -1    0.27    1.12
  11   0   1    0.30    1.15
 -11   0  -3   -0.62    1.54
  11   0   3   -0.76    1.33
  11   0   3   -1.46    1.28
  11   0   5   -1.81    1.18
  11   0   5   -0.85    1.47
  11   0   7   -0.13    1.06
  11   0   7    0.11    0.97
  11   0   9   -0.34    1.19
  11   0   9    0.18    1.29
 -11   0 -11   -2.67    1.80
  11   0  11    2.99    2.33
  11   0  11    0.39    1.23
  11   0  13    1.11    2.13
  11   0  13    2.66    2.15
  11   0  15   -0.27    1.80
  11   0  17   -0.83    2.38
  11   0  19   -0.21    2.09
  11   0  21   -2.77    2.55
 -11  -1  26    8.91    4.58
 -11  -1  24  189.75   15.37
 -11  -1  22    7.21    3.28
 -11   1  22    1.79    1.48
 -11  -1  20   48.00    7.16
 -11   1  20   56.58    6.28
 -11  -1  18   36.61    6.02
 -11  -1  18   34.66    6.50
 -11   1  18   30.02    4.64
 -11  -1  16    1.22    2.36
 -11  -1  16    3.35    2.63
 -11   1  16    2.88    2.04
 -11  -1  14  135.46   10.96
  11  -1 -14  125.74   10.54
  11   1 -14  127.91   10.46
 -11   1  14  120.77    8.06
 -11  -1  14  145.62   10.59
  11   1 -12   19.44    3.89
 -11  -1  12   20.99    3.98
  11  -1 -12   18.15    3.99
 -11   1  12   16.18    2.97
 -11   1  10   93.51    6.60
  11   1 -10   89.54    7.56
 -11  -1  10   97.13    7.81
  11  -1 -10   94.99    6.64
  11   1  -8  125.58    8.03
 -11   1   8  126.12    7.51
  11  -1  -8  119.08    7.23
 -11  -1   8  113.58    8.13
 -11   1   6  337.30   12.10
  11  -1  -6  341.64   12.08
 -11  -1   6  357.90   13.58
  11   1  -6  345.25   12.09
  11   1  -6  326.72   13.00
  11   1  -4   36.99    4.30
  11   1  -4   40.27    3.79
 -11   1   4   38.99    4.21
  11  -1  -4   39.82    4.18
 -11  -1   4   40.59    4.37
  11  -1  -2  117.23    7.28
 -11  -1   2  118.38    7.24
 -11   1   2  124.50    7.53
  11   1  -2  106.18    6.98
 -11   1   0  152.22    8.61
  11  -1   0  145.84    8.36
 -11  -1   0  141.48    7.75
  11   1   0  135.02    7.65
 -11  -1  -2  233.16    9.82
  11   1   2  257.84   10.51
  11   1   2  245.15    7.66
  11  -1   2  252.97   11.50
  11   1   4    5.57    1.38
  11  -1   4    7.46    2.29
 -11  -1  -4    3.27    1.72
  11  -1   4    4.44    1.28
  11   1   4    6.26    1.67
  11   1   6  682.03   15.72
  11  -1   6  709.26   21.07
  11   1   6  667.77   17.34
  11  -1   6  671.91   20.37
  11  -1   8  349.89   15.60
  11  -1   8  333.91   15.31
  11   1   8  339.07   12.91
  11   1   8  326.20   12.24
  11  -1  10  151.59   11.08
  11  -1  10  151.54   10.78
  11   1  10  147.79    8.90
  11   1  10  150.77    9.29
 -11  -1 -10  139.10    8.74
  11   1  12  198.57   10.75
  11   1  12  208.09   11.99
 -11  -1 -12  198.86   11.48
  11  -1  12  211.80   13.88
 -11  -1 -14  111.81    9.31
  11  -1  14  117.61   11.15
  11   1  14  113.23    8.46
  11   1  14  113.48    9.62
  11  -1  16    3.52    2.60
  11   1  16   11.93    3.59
  11  -1  18   33.13    7.08
  11   1  18   21.33    5.81
  11  -1  20   42.44    8.25
  11   1  20   54.63    8.33
 -11  -2  25    2.43    2.02
 -11  -2  23  287.19   21.71
 -11  -2  23  243.48   18.27
 -11  -2  21  120.87   13.34
 -11  -2  21  108.91   12.05
 -11  -2  19   42.03    7.24
 -11  -2  19   36.65    7.32
 -11   2  19   41.01    4.65
 -11  -2  17  274.73   17.52
 -11   2  17  284.81   11.93
 -11  -2  17  279.07   16.97
 -11  -2  15   76.96    8.73
 -11   2  15   68.05    5.66
 -11  -2  15   83.94    9.10
 -11  -2  13   23.03    4.60
  11  -2 -13   23.25    3.18
  11   2 -13   23.69    4.62
  11  -2 -13   28.29    5.05
 -11  -2  13   27.81    5.04
 -11   2  13   20.22    3.05
 -11  -2  11  249.26   13.38
 -11   2  11  249.36   10.35
  11   2 -11  235.89   12.98
  11  -2 -11  237.18   10.27
 -11  -2  11  235.77   13.50
 -11  -2   9   52.77    6.12
 -11   2   9   53.20    4.87
 -11  -2   9   54.90    5.81
  11  -2  -9   55.17    4.92
  11   2  -9   48.85    5.36
 -11  -2   7  651.37   17.85
 -11   2   7  640.43   16.88
  11   2  -7  612.95   17.06
 -11  -2   7  632.22   20.05
  11  -2  -7  620.40   16.68
 -11   2   5 1970.86   30.30
  11   2  -5 1951.73   26.63
 -11  -2   5 2046.98   34.49
  11  -2  -5 2018.63   30.83
  11  -2  -3 1058.52   23.12
  11   2  -3 1028.88   16.32
 -11  -2   3 1040.10   23.48
  11  -2  -1 1277.14   26.29
  11   2  -1 1250.77   14.01
 -11  -2   1 1269.89   24.64
  11   2  -1 1231.83   24.46
 -11  -2  -1  286.56   11.27
  11  -2   1  309.06   13.52
  11   2   1  276.18   11.19
 -11  -2  -3  556.81   15.28
  11  -2   3  563.47   19.24
  11   2   3  530.72   15.18
  11  -2   3  576.10   19.29
  11  -2   5   90.60    8.04
 -11  -2  -5  109.48    6.67
  11   2   5  112.21    4.26
  11   2   5  105.31    6.61
  11  -2   7   10.05    3.00
  11   2   7    8.20    1.52
  11   2   7    8.93    2.07
  11  -2   9  800.02   26.56
  11   2   9  784.07   17.45
  11   2   9  777.57   17.97
  11  -2  11  302.37   17.26
  11   2  11  280.23   10.95
  11   2  11  297.48   12.35
 -11  -2 -11  291.47   11.68
  11   2  13  159.32    9.97
  11   2  13  185.87    9.14
 -11  -2 -13  180.07   10.27
  11  -2  13  160.22   13.32
  11   2  15  640.26   22.13
  11  -2  15  687.06   29.47
  11   2  17  175.43   12.60
  11  -2  17  201.32   16.87
  11  -2  19   34.14    7.71
 -11  -3  22    4.97    3.38
 -11  -3  22    5.78    3.00
 -11  -3  20  258.61   19.29
 -11  -3  20  294.03   20.24
 -11  -3  18   92.62   10.87
 -11  -3  18   94.69   11.01
 -11  -3  16  139.66   12.59
 -11  -3  16  153.20   13.27
 -11  -3  14   90.52    9.41
 -11  -3  14   90.86    9.85
  11   3 -12  142.36   10.85
 -11  -3  12  143.40   10.92
  11  -3 -12  146.43    7.94
 -11  -3  12  135.50   11.49
 -11  -3  10    6.40    2.56
 -11  -3  10    1.05    1.29
  11   3 -10    5.11    1.87
  11  -3 -10    6.89    2.04
  11   3  -8 1030.27   24.04
 -11  -3   8 1022.89   24.28
  11  -3  -8 1028.09   22.28
 -11  -3   8 1016.61   28.37
  11   3  -6  133.60    7.61
  11  -3  -6  142.46    8.68
 -11  -3   6  153.55    8.44
 -11  -3   6  130.87    9.78
  11  -3  -4  117.69    8.19
 -11  -3   4  137.67    9.52
  11   3  -4  132.16    6.45
  11  -3  -2  791.52   22.25
 -11  -3   2  739.37   21.04
  11   3  -2  753.22   11.45
 -11  -3   0  750.28   20.23
  11  -3   0  774.64   23.07
 -11  -3  -2   91.69    6.69
  11  -3   2  102.69    8.96
  11  -3   4   18.01    3.79
 -11  -3  -4   26.28    3.46
 -11  -3  -6  321.36   11.22
  11  -3   6  323.36   17.02
  11  -3   8  106.65   10.33
  11  -3  10  719.48   27.97
  11  -3  12  338.41   20.18
  11  -3  14  240.16   17.96
  11  -3  16   -0.94    2.68
 -11  -4  19    4.03    3.54
 -11  -4  19    3.32    3.11
 -11  -4  17   40.78    7.70
 -11  -4  17   48.65    8.15
 -11  -4  15   22.71    5.87
 -11  -4  15   15.60    4.63
 -11  -4  13    9.22    3.72
 -11  -4  13    4.81    2.62
 -11  -4  11  365.16   17.69
  11  -4 -11  325.99   12.28
  11   4 -11  323.01   16.27
 -11  -4  11  336.73   19.07
  11  -4  -9  558.19   17.29
  11   4  -9  504.23   18.59
 -11  -4   9  522.97   22.74
 -11  -4   9  550.38   19.88
  11  -4  -7  427.59   15.96
 -11  -4   7  461.49   16.41
 -11  -4   7  424.88   19.63
  11   4  -7  427.49   15.42
  11  -4  -5  263.67   13.15
  11   4  -5  260.35   10.46
 -11  -4   5  268.09   10.91
 -11  -4   5  268.16   15.00
 -11  -4   3  101.71    5.56
  11  -4  -3  109.53    8.89
 -11  -4   3  121.82    9.57
  11  -4  -1  116.49    9.67
 -11  -4   1   97.24    8.19
  11  -4   1   14.38    3.66
 -11  -4  -1   11.26    2.66
  11  -4   3  549.84   22.88
 -11  -4  -3  557.41   17.33
  11  -4   5    6.65    2.93
 -11  -4  -5    8.12    1.99
  11  -4   7    5.58    2.95
 -11  -4  -7    6.97    1.67
  11  -4   9   83.40   10.13
  11  -4  11   65.58    9.70
  11  -4  13   -3.49    3.09
 -11  -5  18   10.32    3.30
 -11  -5  16    2.59    3.04
 -11  -5  16    4.27    2.87
 -11  -5  14    5.21    4.18
 -11  -5  14    0.38    1.95
 -11  -5  12   -2.52    3.31
 -11  -5  12   -1.00    2.21
 -11  -5  10    4.81    2.65
 -11  -5  10    0.87    1.33
 -11  -5   8    2.28    1.99
 -11  -5   8   -0.36    1.48
 -11  -5   6   26.09    5.20
  11  -5  -6   21.51    3.91
 -11  -5   6   29.93    4.37
 -11  -5   4  150.71    7.96
 -11  -5   4  157.19   12.37
 -11  -5   2   28.40    5.23
  11  -5   0  199.26   14.53
 -11  -5   0  210.35   12.82
  11  -5   2   18.39    4.81
 -11  -5  -2   18.18    3.55
 -11  -5  -4   49.37    5.39
  11  -5   4   40.18    7.09
  11  -5   6   52.85    8.19
  11  -5   8    5.10    3.39
  11  -5  10  -11.00    4.31
 -11  -6  15    6.50    4.44
 -11  -6  11   18.67    5.51
 -11  -6   9    0.77    2.17
 -11  -6   7  146.65   13.77
 -11  -6   5   15.98    4.69
 -11  -6   3    4.75    3.02
  11  -6  -3   -4.67    3.04
 -11  -6   1   18.07    4.32
  11  -6  -1    6.89    2.68
 -11  -6  -1    6.91    3.24
  11  -6   1    5.32    3.22
  11  -6   3    3.13    3.27
  11  -6   5   28.83    6.51
  11  -6   7    5.84    4.22
 -11  -7   6   45.40    8.33
 -11  -7   4    2.12    2.50
  11  -7  -4   11.30    4.90
  11  -7  -2    9.20    4.01
  11  -7   0   32.47    7.11
 -12   0  24   36.47    6.55
 -12   0  22  943.29   30.50
 -12   0  20   -0.19    1.49
 -12   0  18  107.04    9.32
 -12   0  16 1552.42   33.72
  12   0 -14  831.03   26.78
 -12   0  14  828.05   23.59
  12   0 -12    8.16    2.85
 -12   0  12   13.94    3.09
 -12   0  10 2192.17   35.02
  12   0 -10 2174.33   37.94
  12   0 -10 2129.63   34.65
 -12   0   8  525.77   16.56
  12   0  -8  526.11   16.55
  12   0  -6  177.41    9.38
 -12   0   6  179.48    9.41
  12   0  -4  295.59   11.75
 -12   0   4  266.02   11.22
 -12   0   2 1590.14   27.14
  12   0  -2 1625.91   27.41
 -12   0   0   17.33    2.96
  12   0   0   22.83    3.28
 -12   0  -2  971.79   21.84
  12   0   2 1001.91   22.22
  12   0   4 5368.05   48.83
  12   0   4 5415.39   53.47
  12   0   6 1264.00   26.72
  12   0   6 1285.32   25.78
  12   0   8    0.34    0.99
  12   0   8    1.25    1.54
  12   0  10  867.21   24.16
  12   0  10  903.74   25.06
  12   0  12  123.65    9.67
  12   0  12  114.08    9.68
  12   0  14  170.87   12.88
  12   0  16  523.28   23.89
  12   0  18  370.67   21.32
  12   0  20   19.38    5.79
 -12  -1  25  105.50   11.74
 -12  -1  23   31.50    6.85
 -12   1  23   40.37    5.79
 -12  -1  21   31.59    6.12
 -12   1  21   28.22    4.64
 -12   1  19  293.77   14.47
 -12  -1  19  298.03   17.22
 -12  -1  17    0.47    1.84
 -12   1  17    1.04    1.39
 -12  -1  15    8.54    3.21
 -12   1  15   13.35    2.98
  12   1 -13  364.67   17.16
 -12   1  13  365.91   14.16
  12  -1 -13  380.23   17.90
 -12  -1  13  355.09   16.30
  12  -1 -11  973.42   27.22
 -12  -1  11  950.75   25.51
  12   1 -11  985.29   26.12
 -12   1  11  891.85   21.51
  12  -1 -11  919.33   21.74
  12   1  -9   48.26    5.29
 -12   1   9   53.40    5.16
 -12  -1   9   54.45    5.93
  12  -1  -9   53.43    5.21
 -12   1   7 1513.38   26.85
  12  -1  -7 1545.97   27.14
 -12  -1   7 1534.79   29.78
  12   1  -7 1536.15   27.34
  12   1  -7 1532.72   29.51
  12   1  -5 1084.69   21.10
 -12   1   5 1080.61   22.59
  12  -1  -5 1104.16   22.85
 -12  -1   5 1035.98   23.36
  12   1  -5 1044.32   23.54
  12   1  -3    0.62    1.01
  12  -1  -3    3.51    1.78
 -12   1   3   -1.23    1.84
 -12  -1   3    3.70    1.88
  12  -1  -1  290.71   12.15
 -12   1   1  264.50   11.69
 -12  -1   1  270.25   11.30
  12   1  -1  272.15   11.43
 -12  -1  -1 1988.80   30.21
  12   1   1 1953.48   30.33
  12  -1   1 2018.90   32.84
  12   1   3   15.72    2.18
  12  -1   3   19.02    3.48
 -12  -1  -3   16.46    2.87
  12  -1   3   17.03    3.20
  12   1   3   18.65    2.99
  12  -1   5  373.47   14.98
 -12  -1  -5  391.44   13.73
  12  -1   5  397.44   15.90
  12   1   5  401.34   14.02
  12   1   5  399.31   11.80
  12  -1   7 1200.62   28.99
  12  -1   7 1102.65   27.51
  12   1   7 1115.79   23.98
  12   1   7 1163.83   22.29
  12  -1   9  213.53   12.91
  12   1   9  202.60   10.63
  12  -1   9  215.88   12.89
  12   1   9  209.22   10.58
  12  -1  11    2.47    1.66
  12   1  11    0.35    1.36
  12   1  11    3.34    1.62
  12   1  13 1264.37   31.11
  12   1  13 1233.18   28.21
 -12  -1 -13 1214.48   29.76
  12  -1  13 1238.23   35.18
  12   1  15   93.55    9.28
  12  -1  15   96.14   10.55
  12   1  15  104.44    8.69
  12  -1  17   28.08    6.66
  12   1  17   18.38    4.77
  12  -1  19   58.31    9.49
  12   1  19   59.59    8.84
  12   1  21   86.99   11.10
 -12  -2  24    2.65    3.31
 -12  -2  22   60.57    9.14
 -12  -2  22   82.26   11.41
 -12  -2  20   55.74    8.31
 -12   2  20   50.88    5.44
 -12  -2  20   38.27    7.44
 -12  -2  18   17.50    4.62
 -12  -2  18   18.46    5.04
 -12   2  18   16.67    3.20
 -12  -2  16  171.61   13.58
 -12   2  16  171.59    9.49
 -12  -2  16  155.49   12.55
 -12  -2  14   16.41    4.18
 -12  -2  14   20.18    4.66
 -12   2  14   20.44    3.27
  12  -2 -12   37.03    4.33
 -12  -2  12   26.52    4.95
  12   2 -12   29.14    4.77
 -12   2  12   33.07    4.04
 -12  -2  12   20.08    4.13
 -12  -2  10   50.31    6.40
 -12   2  10   46.03    4.71
 -12  -2  10   47.99    5.77
  12  -2 -10   57.39    5.37
  12   2 -10   53.25    5.99
 -12   2   8  250.74   11.00
  12  -2  -8  246.95   10.97
  12   2  -8  246.61   11.49
 -12  -2   8  252.53   13.19
 -12  -2   6   13.23    3.03
  12   2  -6   13.87    2.53
 -12   2   6   13.77    3.00
  12  -2  -6   13.88    2.75
 -12  -2   4   22.08    3.80
  12   2  -4   20.78    2.70
  12  -2  -4   21.19    3.45
  12  -2  -2  887.94   22.25
  12   2  -2  858.19   13.91
 -12  -2   2  870.64   21.54
  12   2  -2  889.48   21.92
  12   2   0   29.21    3.93
  12   2   0   25.30    1.89
  12  -2   0   26.76    4.15
 -12  -2   0   28.02    3.89
  12   2   2  436.55    6.20
  12  -2   2  431.99   16.96
 -12  -2  -2  426.09   14.12
  12   2   2  419.40   14.22
  12  -2   4  545.52   19.84
 -12  -2  -4  502.71   15.07
  12  -2   4  545.14   19.62
  12   2   4  520.11    8.45
  12   2   4  527.67   15.59
  12  -2   6   25.87    4.61
 -12  -2  -6   27.38    3.63
  12  -2   6   30.45    5.02
  12   2   6   24.49    3.44
  12   2   6   22.76    2.32
  12   2   8  709.59   15.48
  12  -2   8  686.26   24.41
  12   2   8  680.41   17.61
  12  -2  10  256.68   15.80
  12   2  10  271.81   11.12
  12   2  10  277.21   11.39
  12  -2  12   71.78    8.95
  12   2  12   74.83    6.06
  12   2  12   77.59    6.79
  12   2  14   -2.46    1.95
  12  -2  14   -0.34    2.21
  12   2  16   -0.67    2.07
  12  -2  16    3.49    3.34
  12  -2  18   96.10   12.40
 -12  -3  21   10.16    4.33
 -12  -3  21   13.19    5.08
 -12  -3  19    1.90    2.23
 -12  -3  19   16.00    5.49
 -12  -3  17   28.91    6.00
 -12  -3  17   20.05    5.25
 -12  -3  15   24.89    5.37
 -12  -3  15   26.85    5.32
  12  -3 -13    3.76    1.37
 -12  -3  13    4.13    2.57
 -12  -3  13    4.75    2.54
  12   3 -11    1.51    1.36
 -12  -3  11    1.32    2.36
 -12  -3  11    0.27    1.65
  12  -3 -11    0.51    0.91
  12   3  -9   12.71    2.88
 -12  -3   9   19.29    4.33
 -12  -3   9   23.10    3.95
  12  -3  -9   23.39    3.66
 -12  -3   7   28.22    4.92
  12   3  -7   26.45    3.74
 -12  -3   7   26.41    3.77
  12  -3  -7   26.77    3.95
  12   3  -5   59.06    4.73
  12  -3  -5   57.79    5.93
 -12  -3   5   60.98    6.75
  12  -3  -3  348.73   14.89
  12   3  -3  319.53    8.82
 -12  -3   3  341.18   15.02
  12  -3  -1  129.76    9.48
 -12  -3   1  117.85    8.47
  12  -3   1   34.62    5.37
 -12  -3  -1   32.11    4.21
  12  -3   3    3.49    2.49
  12  -3   3    1.40    1.30
 -12  -3  -3    5.46    1.68
 -12  -3  -5   -1.06    1.38
  12  -3   5    0.68    1.42
 -12  -3  -7  232.90    9.86
  12  -3   7  228.63   14.88
  12   3   7  231.55    9.87
  12   3   9    1.58    1.18
  12  -3   9   -0.26    2.30
  12  -3  11   12.63    4.28
  12  -3  13   -3.17    2.94
  12  -3  15   36.01    7.63
 -12  -4  20   44.21    8.40
 -12  -4  18   12.28    4.31
 -12  -4  18    4.13    2.41
 -12  -4  16   34.21    7.16
 -12  -4  16   37.02    6.88
 -12  -4  14   31.28    6.75
 -12  -4  14   31.77    6.08
 -12  -4  12   39.39    6.80
 -12  -4  12   50.14    7.00
  12  -4 -12   30.27    3.85
  12  -4 -10  120.88    8.15
  12   4 -10  132.89   10.05
 -12  -4  10  131.28   10.13
 -12  -4  10  143.12   12.31
  12  -4  -8  197.72   10.99
  12   4  -8  198.00   11.04
 -12  -4   8  181.79   10.77
 -12  -4   8  185.46   13.54
 -12  -4   6   52.71    7.00
 -12  -4   6   63.03    5.66
  12  -4  -6   56.82    6.25
  12   4  -6   59.89    5.43
  12  -4  -4  161.19   10.83
  12   4  -4  153.56    7.11
 -12  -4   4  138.21   10.67
  12  -4  -2  418.53   18.19
 -12  -4   2  390.48   17.04
 -12  -4   0  102.59    8.38
  12  -4   2    4.84    2.29
 -12  -4  -2    2.71    1.51
  12  -4   4  282.49   16.99
 -12  -4  -4  275.53   12.17
 -12  -4  -6  229.03   10.19
  12  -4   6  225.25   15.87
  12  -4   8   -0.22    2.71
 -12  -4  -8    1.53    0.95
  12  -4  10  202.76   16.54
  12  -4  12   66.46    9.80
  12  -4  14    6.10    2.88
 -12  -5  19  107.66   13.04
 -12  -5  17   53.55    8.96
 -12  -5  15    5.20    3.32
 -12  -5  15    4.01    2.98
 -12  -5  13   60.78    9.30
 -12  -5  13   55.90    7.99
 -12  -5  11  229.45   14.65
 -12  -5  11  257.06   18.32
 -12  -5   9   36.48    6.84
 -12  -5   9   36.78    5.56
 -12  -5   7   73.96    9.18
 -12  -5   7   75.49    6.94
  12  -5  -7   75.24    7.58
 -12  -5   5   97.57    6.87
 -12  -5   5   81.91    9.27
 -12  -5   3    8.96    3.44
 -12  -5   1  167.87   11.98
  12  -5  -1  167.43   13.40
 -12  -5  -1  296.77   15.06
  12  -5   1  309.47   18.55
 -12  -5  -3  122.55    9.05
  12  -5   3  106.01   11.26
  12  -5   5   27.62    6.21
 -12  -5  -5   18.90    3.21
  12  -5   7  206.74   16.71
  12  -5   9   32.71    7.10
  12  -5  11    5.15    3.53
 -12  -6  10  138.08   14.19
 -12  -6   8  154.72   14.67
 -12  -6   6   -0.93    2.33
 -12  -6   4   -1.58    2.09
  12  -6  -4    2.36    2.56
 -12  -6   2   78.96    9.25
  12  -6  -2   82.26   10.25
 -12  -6   0    3.14    2.27
  12  -6   0   -4.63    3.99
  12  -6   2    2.71    2.73
  12  -6   4  126.88   13.46
  12  -6   6  -12.58    4.66
 -12  -7   5   -0.93    2.89
  12  -7  -5   -2.71    2.56
  12  -7  -3   24.42    6.29
  12  -7  -1   51.64    8.80
 -13   0  25   -1.22    2.47
 -13   0  23   -2.12    2.68
 -13   0  21    1.94    2.07
 -13   0  19   -1.27    1.81
 -13   0  17   -2.35    2.08
 -13   0  15    1.95    1.89
  13   0 -13    0.74    1.79
 -13   0  13   -0.35    1.65
  13   0 -11    0.30    1.64
 -13   0  11    0.68    1.38
  13   0  -9    0.42    1.28
  13   0  -9    0.10    1.34
 -13   0   9    0.08    1.00
  13   0  -7   -0.13    0.98
 -13   0   7   -0.37    0.97
 -13   0   5    0.80    1.03
  13   0  -5    0.57    1.13
 -13   0   3   -0.09    1.31
  13   0  -3    1.88    1.18
 -13   0   1    2.45    1.50
  13   0  -1    1.45    1.41
 -13   0  -1   -0.66    1.09
  13   0   1   -0.31    1.13
  13   0   3   -0.86    1.41
 -13   0  -3    0.03    1.08
  13   0   3   -1.22    1.71
  13   0   5    0.62    1.32
  13   0   5    1.45    1.23
  13   0   7   -1.11    1.58
  13   0   7   -0.04    1.12
  13   0   9   -2.75    1.86
  13   0   9   -0.66    1.49
  13   0  11    1.69    1.64
  13   0  11   -1.25    1.44
  13   0  13    2.24    1.82
  13   0  15    2.17    2.39
  13   0  17    7.02    4.42
  13   0  19   -2.69    2.59
  13   0  21    6.86    4.61
 -13  -1  26    7.04    2.67
 -13  -1  24   67.75    9.72
 -13  -1  22   76.23    9.65
 -13   1  22   85.14    8.51
 -13  -1  20    5.19    2.42
 -13   1  20    8.70    3.13
 -13   1  18  309.15   14.90
 -13  -1  18  316.70   17.50
 -13  -1  16   41.63    6.09
 -13   1  16   51.88    5.79
 -13   1  14  110.45    8.19
 -13  -1  14  107.61    9.35
  13  -1 -12  289.44   15.46
  13   1 -12  259.12   14.07
 -13   1  12  249.43   11.94
 -13  -1  12  260.63   13.92
  13  -1 -12  235.00   11.65
  13   1 -10  520.72   18.53
 -13   1  10  515.49   16.72
 -13  -1  10  508.91   18.57
  13  -1 -10  534.91   16.99
  13   1  -8  705.73   20.82
 -13   1   8  679.95   18.84
  13   1  -8  662.51   19.19
  13  -1  -8  706.74   19.31
 -13  -1   8  693.48   20.89
  13   1  -6   83.53    6.32
 -13   1   6   68.91    6.07
  13  -1  -6   64.83    5.80
 -13  -1   6   60.87    6.02
  13   1  -6   63.23    6.10
 -13   1   4 1072.00   23.40
  13  -1  -4 1110.53   23.96
 -13  -1   4 1112.83   24.53
  13   1  -4 1155.77   25.11
  13  -1  -2   57.18    5.56
 -13   1   2   67.05    6.11
 -13  -1   2   58.05    5.57
  13   1  -2   55.99    5.42
 -13   1   0    0.15    1.23
  13  -1   0    0.10    1.35
 -13  -1   0    2.68    1.78
  13   1   0   -0.17    0.86
  13   1   2    1.17    0.81
  13  -1   2    2.15    1.68
 -13  -1  -2    2.74    1.32
  13   1   2    4.84    2.00
 -13  -1  -4  119.62    7.83
  13  -1   4  133.35    9.39
  13  -1   4  125.76    8.74
  13   1   4  125.58    8.10
  13   1   4  126.13    6.63
  13   1   6    0.99    1.04
  13  -1   6   -0.19    1.24
  13  -1   6    1.07    1.64
  13   1   6    0.91    1.04
  13   1   8  739.05   20.54
  13  -1   8  781.65   24.45
  13  -1   8  790.64   24.59
  13   1   8  764.08   19.49
  13  -1  10    4.53    2.56
  13   1  10    0.73    1.14
  13   1  10    1.38    1.37
  13   1  12  170.08   10.70
  13   1  12  173.96   11.19
  13  -1  12  155.28   12.14
  13   1  14   24.17    4.57
  13   1  14   27.43    4.46
  13  -1  14   38.19    6.85
  13  -1  16   51.96    8.15
  13   1  16   47.24    6.71
  13  -1  18    0.16    2.80
  13   1  18    1.62    2.46
  13  -1  20   15.63    5.52
  13   1  20   15.25    4.91
 -13  -2  25    4.82    3.32
 -13  -2  23   49.54    9.00
 -13  -2  21  498.25   27.22
 -13  -2  21  461.08   24.37
 -13  -2  19  250.87   18.28
 -13   2  19  253.66   12.37
 -13  -2  19  226.85   16.38
 -13  -2  17  103.05   10.96
 -13   2  17  105.39    7.80
 -13  -2  17  114.27   11.26
 -13  -2  15  199.47   14.21
 -13   2  15  186.46   10.23
 -13  -2  15  191.11   13.71
 -13  -2  13  353.05   17.53
  13   2 -13  336.51   16.83
 -13  -2  13  349.52   17.67
  13  -2 -13  344.42   13.61
 -13   2  13  349.83   13.72
  13  -2 -11   17.54    3.10
 -13  -2  11   18.14    4.21
  13   2 -11   20.57    3.93
 -13   2  11   21.64    3.45
  13   2  -9  177.30   10.31
  13  -2  -9  159.12    9.24
 -13  -2   9  175.15   11.48
 -13   2   9  162.39    9.24
 -13   2   7 2772.94   38.37
  13  -2  -7 2752.28   38.48
  13   2  -7 2662.62   36.18
 -13  -2   7 2732.23   43.53
 -13   2   5  239.94   11.52
  13  -2  -5  259.78   12.10
  13   2  -5  248.28    9.86
 -13  -2   5  249.19   12.57
  13  -2  -3  778.67   21.33
  13   2  -3  715.93   14.42
 -13  -2   3  742.71   20.91
  13   2  -3  757.96   21.13
  13  -2  -1 1728.24   32.76
  13   2  -1 1660.85   18.47
 -13  -2   1 1646.75   30.05
  13   2  -1 1659.92   30.38
  13  -2   1  220.79   12.16
  13   2   1  207.89    5.25
 -13  -2  -1  217.68   10.69
  13   2   1  209.12   10.52
 -13  -2  -3   50.65    5.04
  13  -2   3   64.83    6.91
  13  -2   3   47.94    5.92
  13   2   3   54.18    5.33
  13   2   3   52.81    2.72
  13  -2   5  724.34   23.71
  13  -2   5  729.51   24.09
 -13  -2  -5  748.50   19.09
  13   2   5  729.79   12.20
  13   2   5  733.95   19.26
  13   2   7  695.37   14.48
  13   2   7  685.59   18.60
  13  -2   7  690.89   24.37
  13   2   9   45.66    4.38
  13   2   9   49.63    5.14
  13  -2   9   61.81    7.82
  13  -2  11  156.08   12.78
  13   2  11  159.96    9.19
  13   2  11  159.58    9.13
  13  -2  13   59.76    8.46
  13   2  13   53.89    6.01
  13   2  15   27.20    4.70
  13  -2  15   27.60    6.29
  13  -2  17   33.26    7.30
 -13  -3  22   33.54    7.44
 -13  -3  22   54.85    9.74
 -13  -3  20  104.73   12.43
 -13  -3  20  123.82   13.35
 -13  -3  18  494.07   25.28
 -13  -3  18  548.70   26.73
 -13  -3  16   32.14    6.33
 -13   3  16   34.68    4.13
 -13  -3  16   46.90    7.59
  13  -3 -14    3.58    1.60
 -13  -3  14   -0.47    1.87
 -13  -3  14    1.80    1.80
 -13  -3  12  302.92   15.88
  13  -3 -12  298.50   12.50
 -13  -3  12  290.18   17.14
  13   3 -12  305.70   15.77
 -13  -3  10   27.41    5.06
 -13  -3  10   36.43    5.18
  13  -3 -10   22.38    3.54
  13   3 -10   25.62    4.24
 -13  -3   8   83.69    7.06
  13  -3  -8   76.54    6.71
 -13  -3   8   75.76    8.06
  13   3  -8   70.70    6.29
  13  -3  -6 1133.45   26.47
 -13  -3   6 1137.06   29.61
  13   3  -6 1078.47   21.63
  13   3  -4  876.31   16.54
  13  -3  -4  918.29   24.50
 -13  -3   4  872.53   24.95
  13   3  -2    5.11    0.95
  13  -3  -2    1.59    1.31
 -13  -3   2    6.06    2.19
  13  -3   0    8.10    3.00
 -13  -3   0   10.10    2.47
 -13  -3  -2  591.31   18.13
  13  -3   2  579.16   22.08
  13  -3   4   14.67    3.91
 -13  -3  -4   16.59    3.00
  13   3   6   26.28    3.77
 -13  -3  -6   40.38    4.48
  13  -3   6   33.39    5.75
  13  -3   8 1318.54   37.35
  13   3   8 1326.33   24.31
  13  -3  10  119.86   11.80
  13   3  10  108.24    6.71
  13  -3  12   94.35   11.09
  13  -3  14   98.24   11.86
  13  -3  16   48.54    9.27
 -13  -4  19   28.78    6.71
 -13  -4  19    6.72    3.06
 -13  -4  17    9.29    4.32
 -13  -4  17   11.93    4.11
 -13  -4  15  102.80   10.90
 -13  -4  15  122.96   12.68
 -13  -4  13   73.35    9.35
 -13  -4  13   80.99    9.01
 -13  -4  11   80.37    9.62
  13   4 -11   79.22    7.96
 -13  -4  11   95.35    9.03
  13  -4 -11   84.53    6.98
 -13  -4   9  150.19   10.29
  13  -4  -9  142.51    9.55
  13   4  -9  144.14    9.88
 -13  -4   9  144.33   12.20
 -13  -4   7  260.33   12.18
  13  -4  -7  255.17   13.18
  13   4  -7  257.92   11.71
 -13  -4   7  255.76   15.52
 -13  -4   5    6.68    2.46
  13   4  -5    5.22    1.65
  13  -4  -5    7.73    2.87
 -13  -4   3   43.37    6.02
  13  -4  -3   43.16    5.91
 -13  -4   1  245.81   13.52
 -13  -4  -1   17.18    3.55
  13  -4   1   11.43    3.54
  13  -4   3   38.36    6.27
 -13  -4  -3   41.46    5.10
 -13  -4  -5  316.38   12.96
  13  -4   5  290.93   17.90
 -13  -4  -7  132.45    7.76
  13  -4   7  126.61   12.40
  13  -4   9    0.20    2.97
  13  -4  11  110.55   12.66
  13  -4  13   37.76    7.84
 -13  -5  18    1.20    2.22
 -13  -5  16    1.50    2.48
 -13  -5  14    6.15    4.23
 -13  -5  14    7.87    3.57
 -13  -5  12    1.66    3.09
 -13  -5  12   -0.76    1.46
 -13  -5  10   15.06    3.68
 -13  -5  10   21.33    4.96
 -13  -5   8    7.33    3.90
 -13  -5   8    9.66    2.79
 -13  -5   6    8.47    3.27
 -13  -5   6   15.78    3.10
 -13  -5   4   25.50    5.36
 -13  -5   2   44.37    6.49
  13  -5   0   28.02    5.89
 -13  -5   0   31.93    5.35
  13  -5   2   14.44    4.50
 -13  -5  -2   15.08    3.54
  13  -5   4    0.81    3.32
 -13  -5  -4    2.97    2.00
  13  -5   6    5.73    3.01
  13  -5   8   53.35    8.91
  13  -5  10   22.08    5.78
 -13  -6  11   64.20   10.03
 -13  -6   9   10.71    4.57
 -13  -6   7   69.94    9.59
 -13  -6   5   30.06    6.35
 -13  -6   3   -2.10    3.08
  13  -6  -3   -1.74    3.26
 -13  -6   1    0.59    1.62
  13  -6  -1   -1.63    3.13
  13  -6   1   17.68    5.28
  13  -6   3   26.97    6.47
  13  -6   5    6.16    3.78
 -13  -7   6    0.95    2.94
  13  -7  -6   -2.28    2.95
  13  -7  -4   80.62   10.86
  13  -7  -2    8.52    4.40
 -14   0  24   79.84    9.54
 -14   0  22   53.65    7.69
 -14   0  20  240.22   15.21
 -14   0  18   28.14    5.17
 -14   0  16   25.59    4.59
 -14   0  14 1561.70   33.76
  14   0 -12  505.19   20.09
 -14   0  12  483.24   18.05
  14   0 -10  176.54   11.27
 -14   0  10  175.05   10.56
  14   0 -10  168.86   10.39
 -14   0   8   69.67    6.46
  14   0  -8   61.55    6.04
  14   0  -6   40.45    4.86
 -14   0   6   46.29    5.17
 -14   0   4  111.28    7.86
  14   0  -4  112.06    8.00
  14   0  -2  807.88   21.18
 -14   0   2  738.93   20.34
 -14   0   0  813.74   21.29
  14   0   0  882.05   22.23
 -14   0  -2  322.29   13.68
  14   0   2  340.94   14.06
  14   0   4  668.86   18.37
  14   0   4  674.87   20.32
  14   0   6 2007.12   36.26
  14   0   6 1952.69   33.48
  14   0   8    9.80    2.80
  14   0   8   11.24    2.64
  14   0  10   34.09    5.22
  14   0  10   30.34    4.76
  14   0  12  135.07   10.94
  14   0  14  199.22   14.27
  14   0  16   25.36    5.52
  14   0  18  203.28   16.16
  14   0  20   48.17    8.44
 -14  -1  25  176.73   15.51
 -14  -1  23   52.68    8.47
 -14   1  23   72.54    8.07
 -14  -1  21    0.44    2.35
 -14   1  21    2.58    2.18
 -14  -1  19   13.63    4.18
 -14   1  19   14.65    3.59
 -14  -1  17  121.07   10.76
 -14   1  17  104.92    8.75
 -14   1  15   84.09    7.50
 -14  -1  15   82.72    8.41
 -14   1  13  341.76   14.61
 -14  -1  13  315.18   15.92
  14   1 -13  349.49   17.10
  14  -1 -13  345.86   14.72
  14   1 -11  686.31   22.33
 -14   1  11  675.06   20.04
 -14  -1  11  639.18   21.73
  14  -1 -11  679.08   20.30
  14   1  -9  421.48   16.27
 -14   1   9  413.27   15.35
 -14  -1   9  407.83   16.77
  14  -1  -9  443.05   15.95
  14   1  -7   27.40    4.19
  14   1  -7   29.26    3.93
 -14   1   7   32.21    4.34
  14  -1  -7   26.29    3.91
 -14  -1   7   30.82    4.63
  14   1  -5   28.21    4.15
 -14   1   5   27.73    4.01
  14  -1  -5   28.10    4.02
 -14  -1   5   26.25    4.06
 -14   1   3  563.70   17.90
  14  -1  -3  584.27   18.28
 -14  -1   3  537.26   17.50
  14   1  -3  590.42   18.51
 -14   1   1  318.71   13.78
  14  -1  -1  355.88   14.53
  14   1  -1  343.34   13.96
 -14  -1   1  309.04   13.05
  14  -1   1 1165.33   26.94
 -14  -1  -1 1101.44   24.45
  14   1   1 1170.78   25.41
  14   1   3  180.21    7.90
 -14  -1  -3  184.41   10.05
  14  -1   3  182.60   11.01
  14   1   3  175.10    9.96
  14  -1   3  161.83   10.01
  14  -1   5   16.10    3.46
 -14  -1  -5   10.84    2.71
  14  -1   5   13.12    3.26
  14   1   5   13.41    2.98
  14   1   5   11.73    2.14
  14   1   7  235.78   10.66
  14   1   7  224.14   11.69
  14  -1   7  237.58   13.63
  14  -1   7  255.08   13.83
  14  -1   9  520.46   20.89
  14   1   9  536.16   18.46
  14   1   9  537.64   17.59
  14  -1  11  104.75   10.00
  14   1  11  100.60    8.41
  14   1  11  106.43    8.60
  14   1  13    9.49    3.10
  14   1  13   17.38    3.91
  14  -1  13    9.64    3.35
  14  -1  15   83.99   10.20
  14   1  15   79.49    8.75
  14   1  17   83.92    9.72
  14  -1  17   92.60   11.36
  14  -1  19   14.78    5.11
  14   1  19    3.06    2.76
 -14  -2  24   71.42   10.22
 -14  -2  22    7.43    4.54
 -14   2  20  126.72    9.13
 -14  -2  20  127.95   12.78
 -14  -2  18    1.64    2.16
 -14   2  18    1.82    1.37
 -14  -2  16    0.99    2.00
 -14   2  16    1.23    1.23
 -14   2  14  307.62   13.50
 -14  -2  14  292.84   16.76
  14  -2 -14  310.95   13.50
  14  -2 -12    5.51    2.09
 -14  -2  12    5.02    2.41
  14   2 -12    4.30    2.18
 -14   2  12    2.13    1.28
 -14  -2  10   10.41    3.21
  14   2 -10   12.25    2.92
 -14   2  10    8.91    2.37
  14  -2 -10   11.99    2.73
 -14  -2   8   31.17    4.99
  14   2  -8   26.74    3.90
 -14   2   8   38.69    4.75
  14  -2  -8   35.00    4.58
 -14   2   6 1224.25   26.73
  14   2  -6 1201.83   23.28
  14  -2  -6 1285.77   27.62
 -14  -2   6 1242.72   29.40
  14  -2  -4   89.71    7.45
  14   2  -4   77.19    5.26
 -14  -2   4   85.28    7.45
  14   2  -4   78.54    7.26
  14   2  -2   41.64    5.20
  14   2  -2   34.68    3.13
  14  -2  -2   33.52    4.76
 -14  -2   2   38.32    4.88
  14   2   0    9.17    2.43
  14   2   0   15.50    1.82
  14  -2   0   15.82    3.28
 -14  -2   0   11.63    2.56
 -14  -2  -2   45.01    5.11
  14  -2   2   40.81    5.64
  14   2   2   40.41    2.56
  14   2   2   45.15    5.26
  14   2   4   28.80    3.99
  14  -2   4   27.87    4.80
 -14  -2  -4   34.59    4.34
  14   2   4   29.19    2.40
  14  -2   4   23.42    4.45
  14   2   6    1.14    0.84
 -14  -2  -6    0.08    1.15
  14  -2   6   -2.70    2.64
  14   2   6    0.47    1.01
  14   2   8   10.24    2.08
  14  -2   8    5.92    2.38
  14   2   8    6.27    2.07
  14  -2  10    0.24    1.82
  14   2  10   -0.32    1.19
  14   2  10    0.48    1.21
  14  -2  12  277.95   17.84
  14   2  12  298.20   13.28
  14   2  12  290.28   13.06
  14   2  14   28.10    4.59
  14  -2  14   29.97    5.71
  14  -2  16   15.43    4.93
  14  -2  18    0.58    2.53
 -14  -3  21   39.25    7.63
 -14  -3  21   42.67    8.66
 -14  -3  19   25.08    6.35
 -14  -3  19   20.39    5.55
 -14  -3  17   15.04    4.95
 -14  -3  17   19.32    5.40
 -14   3  17   14.25    2.88
 -14  -3  15    0.37    2.35
  14  -3 -15   -1.57    1.27
 -14   3  15    1.75    1.71
 -14  -3  15   -1.76    1.96
  14  -3 -13   -1.60    1.72
 -14  -3  13    1.96    3.11
 -14  -3  13   -2.55    2.39
 -14  -3  11   -0.26    1.69
 -14  -3  11    3.05    1.89
  14   3 -11    2.23    1.34
  14  -3 -11    4.59    1.75
  14  -3  -9  174.41   10.35
 -14  -3   9  177.13   12.75
  14   3  -9  174.64   10.45
 -14  -3   7   27.57    5.05
  14  -3  -7   25.75    4.23
  14   3  -7   24.24    3.52
 -14  -3   5   24.13    4.49
  14  -3  -5   27.09    4.37
  14   3  -5   18.25    2.70
  14   3  -3   14.45    1.89
  14  -3  -3   13.26    2.87
 -14  -3   3   22.95    4.29
  14  -3  -1  202.84   12.47
 -14  -3   1  189.69   11.17
 -14  -3  -1   10.81    2.58
  14  -3   3    1.53    1.95
 -14  -3  -3   -0.14    0.96
  14  -3   5    2.18    1.74
  14   3   5    3.22    1.56
 -14  -3  -5    7.34    2.37
 -14  -3  -7  231.49   10.80
  14  -3   7  223.92   15.36
  14   3   7  228.85   10.92
  14  -3   9   36.01    6.59
  14   3   9   33.86    4.08
  14  -3  11    2.58    2.91
  14  -3  13   21.10    5.86
  14  -3  15    2.77    2.17
 -14  -4  20   31.80    7.17
 -14  -4  18    9.48    3.80
 -14  -4  18    4.75    3.99
 -14  -4  16   14.83    4.43
 -14  -4  16   15.86    4.55
 -14  -4  14  100.89   10.37
 -14  -4  14  106.83   11.88
 -14  -4  12  199.16   13.55
  14  -4 -12  203.29   11.07
 -14  -4  12  231.01   16.63
 -14  -4  10  308.21   15.43
  14   4 -10  298.65   14.75
  14  -4 -10  315.47   14.25
 -14  -4  10  301.84   18.25
 -14  -4   8    7.66    3.14
  14   4  -8    3.52    1.22
  14  -4  -8    4.46    2.26
  14  -4  -6  143.93   10.36
 -14  -4   6  142.02   11.53
  14   4  -6  144.98    8.08
 -14  -4   4   18.49    4.17
  14   4  -4   17.85    2.27
  14  -4  -4   21.25    4.34
 -14  -4   2   40.95    5.89
 -14  -4   0   61.68    6.77
 -14  -4  -2  126.18    9.23
  14  -4   2  112.99   10.90
  14  -4   4   31.79    5.91
 -14  -4  -4   31.72    4.50
 -14  -4  -6   65.86    5.89
  14  -4   6   58.62    8.47
  14  -4   8  165.95   14.83
  14  -4  10    2.34    2.99
  14  -4  12   57.54    9.36
 -14  -5  19    8.05    4.04
 -14  -5  17  116.32   12.87
 -14  -5  15   12.12    5.37
 -14  -5  15   26.11    6.04
 -14  -5  13  103.64   12.35
 -14  -5  13  101.43   10.42
 -14  -5  11   50.99    8.52
 -14  -5  11   38.08    6.06
 -14  -5   9  268.64   14.24
 -14  -5   9  266.60   18.13
 -14  -5   7   -1.57    1.81
 -14  -5   5   13.56    4.25
 -14  -5   3   45.05    6.64
  14  -5  -1    8.90    3.92
 -14  -5   1    8.21    2.59
  14  -5   1  255.34   17.57
 -14  -5  -1  264.84   14.64
  14  -5   3  124.15   12.50
 -14  -5  -3  132.27    9.75
  14  -5   5   -4.83    3.85
  14  -5   7   27.04    6.96
  14  -5   9   35.16    7.59
 -14  -6  10    0.39    2.42
 -14  -6   8   56.93    9.05
 -14  -6   6   28.22    6.37
 -14  -6   4   11.68    4.16
 -14  -6   2   28.82    5.68
  14  -6  -2   26.78    6.30
  14  -6   0   33.40    6.66
 -14  -6   0   52.08    7.24
  14  -6   2   -3.15    2.05
  14  -6   4   20.81    5.92
 -15   0  25   -2.38    2.93
 -15   0  23    0.67    3.20
 -15   0  21   -2.11    2.40
 -15   0  19   -0.53    1.83
 -15   0  17   -1.89    2.10
 -15   0  15    5.63    2.88
 -15   0  13   -1.35    1.80
  15   0 -11    0.66    1.32
  15   0 -11    0.32    1.11
 -15   0  11    2.16    2.02
  15   0  -9   -1.73    1.54
 -15   0   9   -0.08    1.29
  15   0  -7   -1.47    1.53
 -15   0   7   -2.00    1.74
 -15   0   5    0.27    1.04
  15   0  -5    2.73    1.69
 -15   0   3    1.65    1.49
  15   0  -3   -0.88    1.58
 -15   0   1    0.52    1.25
  15   0  -1   -1.30    1.17
 -15   0  -1    2.09    1.73
  15   0   1   -0.25    1.33
  15   0   3   -0.45    1.10
 -15   0  -3   -0.83    1.34
  15   0   3    0.53    1.29
  15   0   5    1.07    1.16
  15   0   5    1.18    1.79
  15   0   7   -1.61    1.48
  15   0   7    2.83    1.69
  15   0   9    1.52    1.72
  15   0   9   -0.48    1.35
  15   0  11   -1.18    2.04
  15   0  13   -1.77    2.36
  15   0  15    1.92    1.90
  15   0  17   -1.87    2.19
  15   0  19    1.94    4.44
 -15  -1  26   -2.70    3.19
 -15  -1  24   19.37    5.80
 -15  -1  22    2.49    2.72
 -15   1  22    3.40    1.78
 -15  -1  20   42.32    7.08
 -15   1  20   40.79    6.01
 -15   1  18  151.82   10.92
 -15  -1  18  160.39   12.99
 -15  -1  16   23.17    4.79
 -15   1  16   33.85    5.07
 -15  -1  14   19.18    4.27
 -15   1  14   13.06    3.27
  15  -1 -12  208.04   13.66
  15   1 -12  223.88   13.34
 -15   1  12  196.99   11.36
 -15  -1  12  198.29   12.62
  15  -1 -12  212.99   11.91
  15   1 -10  360.52   15.92
 -15   1  10  350.30   14.79
 -15  -1  10  366.65   16.44
  15  -1 -10  365.70   15.13
  15   1  -8   33.97    5.00
  15   1  -8   35.12    4.76
 -15   1   8   25.44    4.01
 -15  -1   8   28.08    4.58
  15  -1  -8   33.41    4.67
  15   1  -6  223.06   10.85
 -15   1   6  212.92   11.42
  15  -1  -6  225.06   11.69
 -15  -1   6  224.81   12.12
  15   1  -6  239.01   12.50
  15   1  -4    9.80    2.80
 -15   1   4   17.71    3.47
  15  -1  -4   14.32    3.10
 -15  -1   4   15.65    3.37
 -15   1   2 1424.70   29.73
 -15  -1   2 1377.91   28.67
  15   1  -2 1468.47   29.95
  15  -1  -2 1511.10   30.62
 -15   1   0  187.32   11.05
 -15  -1   0  172.89   10.13
  15   1   0  182.33   10.49
  15  -1   0  199.70   11.51
 -15  -1  -2   93.22    7.46
  15  -1   2   88.81    7.86
  15   1   2   87.93    7.32
  15   1   2   94.51    5.86
 -15  -1  -4  189.19   10.65
  15  -1   4  190.71   11.81
  15  -1   4  199.87   11.64
  15   1   4  196.25   10.97
  15   1   4  191.43    8.75
  15   1   6  261.42   11.03
  15  -1   6  272.68   14.70
  15   1   6  273.07   13.27
  15  -1   6  259.93   13.90
  15   1   8   96.90    8.10
  15  -1   8   94.60    8.87
  15   1   8   97.40    7.27
  15   1  10   57.51    6.43
  15  -1  10   58.71    7.42
  15   1  10   73.58    6.93
  15  -1  12   16.05    4.15
  15   1  12   20.62    4.07
  15   1  12   15.91    3.59
  15   1  14   54.58    7.10
  15  -1  14   47.23    7.54
  15   1  16  245.50   15.81
  15  -1  16  279.24   19.28
  15  -1  18    7.45    3.98
  15   1  18   14.45    4.47
 -15  -2  23    6.14    3.17
 -15  -2  21  171.72   15.20
 -15  -2  19   41.48    7.62
 -15   2  19   40.23    5.22
 -15   2  17  147.96   10.00
 -15  -2  17  147.25   12.84
 -15  -2  15    8.46    3.35
  15  -2 -15    7.20    2.64
 -15   2  15    6.13    2.33
 -15   2  13  239.95   12.19
 -15  -2  13  247.08   15.27
  15  -2 -13  228.78   11.99
 -15  -2  11   60.58    7.43
 -15   2  11   58.59    5.98
  15   2 -11   59.89    6.73
  15  -2 -11   64.50    6.35
 -15  -2   9    6.97    3.08
  15   2  -9    3.29    2.01
 -15   2   9   12.80    2.99
  15  -2  -9   11.24    2.84
 -15   2   7  629.59   19.76
  15   2  -7  653.88   18.48
  15  -2  -7  669.02   20.49
 -15  -2   7  630.92   21.87
  15  -2  -5  252.85   12.92
 -15   2   5  243.43   12.53
  15   2  -5  225.86    9.77
 -15  -2   5  244.55   13.09
  15   2  -5  247.43   13.24
  15   2  -3   67.52    4.80
  15  -2  -3   53.88    6.08
 -15  -2   3   70.66    6.92
  15   2  -3   59.44    6.52
  15   2  -1  764.45   14.14
  15  -2  -1  823.81   24.18
 -15  -2   1  776.48   22.01
  15   2  -1  752.59   21.82
  15  -2   1  699.77   22.92
 -15  -2  -1  623.29   19.42
  15   2   1  648.19   11.41
  15   2   1  628.85   19.71
  15   2   3    4.65    1.82
  15  -2   3    0.01    1.78
  15   2   3    1.24    0.50
 -15  -2  -3    3.75    2.33
  15  -2   3    1.44    1.57
  15  -2   5  631.33   23.10
 -15  -2  -5  648.11   19.34
  15   2   5  600.80   19.01
  15   2   5  631.64   12.69
  15   2   7    2.02    1.17
  15  -2   7    0.22    1.59
  15   2   7    2.40    1.29
  15  -2   9  223.23   15.12
  15   2   9  226.17    9.87
  15   2   9  207.79   11.29
  15  -2  11  179.51   14.23
  15   2  11  192.70   10.20
  15   2  11  179.16   10.67
  15  -2  13  268.06   18.36
  15   2  13  275.49   13.52
  15  -2  15  111.18   12.75
  15  -2  17    0.02    2.66
 -15  -3  22  159.30   15.75
 -15  -3  20    3.35    2.04
 -15  -3  20    2.49    3.07
 -15  -3  18   81.94   10.34
 -15  -3  18   97.94   11.46
 -15  -3  16   42.10    7.45
 -15   3  16   49.87    5.41
 -15  -3  16   56.31    8.10
  15  -3 -14    7.21    2.16
 -15  -3  14   17.72    4.86
 -15   3  14   11.29    2.93
 -15  -3  14   16.17    4.30
  15  -3 -12    2.42    1.76
  15   3 -12    1.21    1.47
  15  -3 -10 1466.75   30.77
 -15  -3  10 1546.81   38.61
  15   3 -10 1475.20   32.00
 -15  -3   8   47.53    6.74
  15  -3  -8   44.33    5.63
  15   3  -8   45.10    5.15
 -15  -3   6   31.48    5.21
  15  -3  -6   31.48    4.86
  15   3  -6   24.61    3.31
  15  -3  -4  400.00   17.22
 -15  -3   4  405.49   17.69
  15   3  -4  368.37   10.85
  15   3  -2  536.28    9.38
  15  -3  -2  549.35   20.70
 -15  -3   2  500.46   18.92
 -15  -3   0    6.10    2.60
  15   3   2  139.51    9.51
 -15  -3  -2  152.00    9.83
  15  -3   2  149.39   11.82
  15  -3   4  398.98   19.66
 -15  -3  -4  384.59   15.15
  15   3   4  362.09   14.86
 -15  -3  -6  170.67    9.81
  15   3   6  158.96    9.69
  15  -3   6  167.28   13.29
  15  -3   8  250.51   16.87
  15   3   8  244.52   11.60
  15  -3  10  148.91   13.62
  15  -3  12    3.63    3.60
  15  -3  14    6.82    3.57
 -15  -4  19   -1.24    2.12
 -15  -4  17   17.52    5.22
 -15  -4  17   10.92    4.01
 -15  -4  15   25.32    6.09
 -15  -4  15   15.48    4.30
 -15  -4  13  198.09   14.07
 -15  -4  13  167.77   14.49
 -15  -4  11    6.39    3.04
 -15  -4  11    4.20    2.30
  15  -4 -11    8.95    3.34
  15   4 -11   12.31    3.45
 -15  -4   9   -2.83    2.90
  15  -4  -9    2.27    1.81
  15   4  -9   -0.24    1.41
  15  -4  -7  169.72   11.55
  15   4  -7  153.76    8.98
 -15  -4   7  177.41   13.59
 -15  -4   5   10.05    2.80
  15   4  -5   11.33    2.13
 -15  -4   3   64.83    7.48
 -15  -4   1    2.52    1.59
 -15  -4  -1  427.93   17.76
  15  -4   1  441.36   21.61
  15  -4   3    0.01    2.23
 -15  -4  -3    6.39    2.52
 -15  -4  -5   37.30    4.80
  15  -4   5   43.68    7.60
  15  -4   7   31.30    6.82
 -15  -4  -7   34.15    4.35
  15  -4   9   18.40    5.77
  15  -4  11   36.60    7.54
 -15  -5  18    7.14    4.05
 -15  -5  16    9.12    4.26
 -15  -5  14   19.69    5.70
 -15  -5  14   12.82    3.85
 -15  -5  12    2.34    2.36
 -15  -5  12    3.95    2.26
 -15  -5  10  148.16   11.13
 -15  -5  10  121.11   12.76
 -15  -5   8   19.46    5.54
 -15  -5   6  113.48   11.55
 -15  -5   4    8.85    3.45
 -15  -5   2   -0.73    2.18
  15  -5   0   34.99    6.84
 -15  -5   0   33.85    5.59
  15  -5   2   20.73    5.34
 -15  -5  -2   15.74    3.65
  15  -5   4    7.35    3.62
  15  -5   6    6.42    3.12
  15  -5   8    6.75    4.08
 -15  -6   9    3.66    3.69
 -15  -6   7   25.86    6.42
 -15  -6   5    7.35    3.04
 -15  -6   3   15.03    4.29
  15  -6  -3    5.32    2.55
  15  -6  -1   12.22    4.20
 -15  -6   1   20.04    4.74
  15  -6   1   14.41    5.20
  15  -6   3   56.87    9.34
 -16   0  24   46.45    7.53
 -16   0  22    3.56    2.22
 -16   0  20  169.08   13.09
 -16   0  18  500.55   21.41
 -16   0  16   86.32    8.61
 -16   0  14    3.74    2.26
  16   0 -12 1209.98   32.12
 -16   0  12 1235.01   30.28
  16   0 -12 1249.07   30.49
  16   0 -10  669.37   22.73
 -16   0  10  625.27   20.92
  16   0 -10  644.17   21.35
  16   0  -8    8.97    2.46
 -16   0   8    5.90    1.98
 -16   0   6 1172.81   27.62
  16   0  -6 1259.11   28.73
 -16   0   4    1.65    1.62
  16   0  -4    4.63    2.10
 -16   0   2   33.39    4.65
  16   0  -2   30.38    4.53
 -16   0   0 1157.12   27.29
  16   0   0 1272.62   28.89
 -16   0  -2  499.69   18.20
  16   0   2  517.43   18.68
  16   0   4  124.54    8.42
  16   0   4  119.90    9.21
  16   0   6   69.64    7.33
  16   0   6   74.89    6.91
  16   0   8  255.21   13.49
  16   0   8  244.16   13.95
  16   0  10  197.68   12.75
  16   0  12   73.72    8.31
  16   0  14  484.91   22.57
  16   0  16   41.75    7.13
  16   0  18   60.86    9.17
  16   0  20  399.48   24.42
 -16  -1  25   58.59    9.32
 -16   1  23  150.90   11.99
 -16  -1  23  181.82   15.43
 -16   1  21  167.12   12.34
 -16  -1  21  200.72   15.60
 -16  -1  19    4.10    3.25
 -16   1  19    3.63    1.95
 -16  -1  17    6.36    3.50
 -16   1  17    9.43    3.14
 -16   1  15  741.70   23.44
 -16  -1  15  748.58   26.34
 -16  -1  13   18.96    4.20
  16  -1 -13   29.97    4.85
 -16   1  13   24.99    4.25
  16   1 -11  178.04   11.69
 -16   1  11  163.15   10.50
 -16  -1  11  177.76   11.98
  16  -1 -11  185.82   11.35
 -16   1   9  354.10   15.26
  16   1  -9  356.16   15.45
 -16  -1   9  358.44   16.38
  16  -1  -9  358.19   15.43
  16   1  -9  359.33   16.30
  16   1  -7   53.82    5.75
 -16   1   7   64.41    6.58
 -16  -1   7   60.95    6.62
  16  -1  -7   60.78    6.38
  16   1  -7   55.44    6.42
 -16   1   5  220.24   11.95
 -16  -1   5  204.61   11.77
  16  -1  -5  227.32   12.23
  16   1  -5  221.15   12.33
 -16   1   3 1573.85   32.06
 -16  -1   3 1590.25   32.10
  16  -1  -3 1703.73   33.71
  16   1  -3 1618.35   32.67
 -16   1   1    2.15    2.14
 -16  -1   1    3.51    2.11
  16  -1  -1   -0.21    1.03
  16   1  -1   -0.34    1.67
 -16  -1  -1  158.08    9.99
  16  -1   1  166.72   10.99
  16   1   1  162.44   10.35
  16   1   3  472.60   13.88
 -16  -1  -3  447.95   16.91
  16  -1   3  486.73   19.12
  16   1   3  474.96   17.73
  16  -1   3  448.87   17.56
  16  -1   5 1411.49   32.20
  16  -1   5 1469.97   34.18
 -16  -1  -5 1412.67   30.40
  16   1   5 1438.07   30.96
  16   1   5 1413.18   25.50
  16  -1   7    8.60    3.04
  16   1   7   10.07    2.48
  16   1   7   15.99    3.51
  16   1   9   39.85    5.49
  16   1   9   33.21    4.66
  16  -1   9   27.55    4.88
  16  -1  11  160.22   12.73
  16   1  11  169.02   11.55
  16   1  11  162.25   10.84
  16   1  13   11.66    2.90
  16  -1  13    9.02    2.94
  16   1  15    2.83    2.29
  16  -1  15    5.85    3.09
  16  -1  17   93.35   11.96
  16   1  17   90.55   10.00
 -16  -2  24    9.37    3.36
 -16  -2  22   34.85    7.41
 -16  -2  20    2.77    2.73
 -16   2  20    0.54    1.62
 -16  -2  18    9.03    3.75
 -16   2  18   13.84    3.21
 -16  -2  16   73.23    9.32
 -16   2  16   54.66    6.21
 -16  -2  14   -1.21    1.40
  16  -2 -14    4.65    2.09
 -16   2  14    2.04    1.56
 -16  -2  12   32.94    5.73
  16  -2 -12   46.07    5.65
  16   2 -12   38.65    5.75
 -16   2  12   44.88    5.53
 -16  -2  10   10.15    3.46
  16   2 -10    9.77    2.98
 -16   2  10   11.33    2.92
  16  -2 -10   10.46    2.38
 -16   2   8   72.25    6.96
  16   2  -8   69.00    6.49
  16  -2  -8   64.92    6.60
 -16  -2   8   62.99    7.20
 -16   2   6  318.97   14.76
  16   2  -6  317.76   12.52
  16  -2  -6  344.57   15.46
 -16  -2   6  335.33   15.96
  16   2  -4    0.09    1.29
 -16   2   4    4.83    2.02
  16  -2  -4    6.02    2.13
  16   2  -4    4.33    1.45
 -16  -2   4    2.69    1.96
  16   2  -2  125.96    6.42
  16  -2  -2  118.26    9.38
 -16  -2   2  128.19    9.43
  16   2  -2  128.94    9.47
  16   2   0   37.96    5.30
  16  -2   0   34.25    5.25
 -16  -2   0   31.03    4.62
  16   2   2   33.96    4.74
 -16  -2  -2   39.91    5.04
  16   2   2   40.34    3.04
  16   2   4   44.66    5.40
  16   2   4   52.64    3.60
 -16  -2  -4   49.98    5.63
  16  -2   4   53.38    6.94
 -16  -2  -6    2.42    1.71
  16   2   6    2.14    0.85
  16  -2   6    1.15    1.98
  16   2   6   -0.14    1.46
  16   2   8  119.39    6.97
  16  -2   8  110.17   10.68
  16   2   8  130.18    9.21
  16  -2  10    8.59    3.36
  16   2  10    6.01    2.52
  16   2  10    5.23    1.99
  16  -2  12    9.51    3.50
  16   2  12    9.86    2.73
  16  -2  14   32.61    6.67
  16  -2  16   -0.23    2.45
 -16  -3  21   34.99    7.36
 -16  -3  19   55.62    9.22
 -16  -3  17    9.17    4.21
 -16   3  17    7.44    2.20
 -16  -3  15    6.94    3.36
  16  -3 -15    2.00    1.39
 -16   3  15    1.54    1.15
  16  -3 -13   55.70    6.30
 -16  -3  13   69.96    8.92
 -16   3  13   50.45    5.78
 -16  -3  11    4.68    2.98
  16   3 -11    6.72    2.76
  16  -3 -11    8.34    3.27
  16  -3  -9  317.96   15.04
 -16  -3   9  334.45   17.98
  16   3  -9  321.58   14.39
 -16  -3   7    1.78    1.94
  16   3  -7    1.01    1.59
  16  -3  -7    1.17    1.97
  16  -3  -5   72.83    7.52
 -16  -3   5   70.93    7.83
  16   3  -5   71.08    5.32
  16  -3  -3   49.25    6.33
 -16  -3   3   50.23    6.37
  16   3  -3   49.22    3.56
 -16  -3   1   90.85    8.21
  16   3   1   39.02    5.40
 -16  -3  -1   36.24    5.19
  16  -3   3   53.41    7.30
 -16  -3  -3   42.72    5.37
  16   3   3   51.93    6.03
  16  -3   5   43.84    6.89
  16   3   5   52.23    5.91
 -16  -3  -5   53.24    5.84
 -16  -3  -7   64.25    6.30
  16  -3   7   57.33    8.19
  16   3   7   62.79    6.23
  16  -3   9   17.84    4.39
  16  -3  11    2.51    2.78
  16  -3  13   25.26    5.83
 -16  -4  20   -2.38    3.24
 -16  -4  18   53.60    9.29
 -16  -4  18   38.01    7.28
 -16  -4  16  114.65   12.00
 -16  -4  16  141.60   14.27
 -16  -4  14   26.07    6.54
 -16  -4  12   50.09    8.24
  16   4 -10  108.30    8.91
  16  -4 -10  103.91    8.94
 -16  -4  10  108.06   11.27
 -16  -4   8   71.26    8.95
  16   4  -8   65.63    6.31
  16  -4  -8   67.00    7.39
 -16  -4   6   31.51    5.88
  16   4  -6   43.82    4.37
  16   4  -4   17.31    2.14
 -16  -4   4   14.63    3.99
 -16  -4   2    9.54    2.87
 -16  -4   0  298.54   15.38
 -16  -4  -2  157.83   10.85
  16  -4   2  166.66   13.73
  16  -4   4   81.03    9.98
 -16  -4  -4   80.18    7.43
 -16  -4  -6    3.26    1.89
  16  -4   6    0.13    2.36
  16  -4   8  287.56   19.86
  16  -4  10   29.54    6.61
 -16  -5  19    0.58    2.31
 -16  -5  17    9.10    4.99
 -16  -5  15  142.38   13.30
 -16  -5  13   20.87    6.00
 -16  -5  13   21.40    5.16
 -16  -5  11   -3.25    2.85
 -16  -5   9  126.13   12.82
 -16  -5   7   80.39   10.09
 -16  -5   5   -3.60    3.12
 -16  -5   3  152.02   12.67
 -16  -5   1  130.05   11.13
  16  -5  -1  124.18   12.56
 -16  -5  -1   20.98    4.63
  16  -5   1    8.45    3.69
  16  -5   3  155.38   14.61
 -16  -5  -3  144.17   10.65
  16  -5   5  147.41   14.67
  16  -5   7   -6.36    3.69
 -16  -6  10    3.64    2.57
 -16  -6   8    8.15    4.10
 -16  -6   6   88.47   11.25
 -16  -6   4    0.46    2.10
  16  -6  -2   -0.42    2.48
 -16  -6   2   13.56    4.64
  16  -6   0   65.43    9.82
  16  -6   2   55.93    9.40
 -17   0  25    0.94    3.00
 -17   0  23    0.13    1.90
 -17   0  21    1.19    1.70
 -17   0  19   -0.27    1.81
 -17   0  17   -1.00    2.48
 -17   0  15   -0.69    1.87
 -17   0  13   -0.74    1.84
  17   0 -11   -0.41    1.51
  17   0 -11    2.74    2.17
 -17   0  11    5.23    2.63
  17   0  -9    0.76    1.58
 -17   0   9    2.15    1.34
  17   0  -7   -1.50    2.12
 -17   0   7    1.59    2.04
 -17   0   5    0.18    1.16
  17   0  -5   -0.89    1.29
 -17   0   3    1.34    1.02
  17   0  -3    0.17    1.05
 -17   0   1   -1.29    1.66
  17   0  -1   -0.52    1.25
 -17   0  -1    1.96    1.40
  17   0   1   -2.23    1.90
  17   0   3   -0.52    1.26
 -17   0  -3    1.12    1.96
  17   0   3    2.14    1.74
  17   0   5   -0.23    1.33
  17   0   5   -0.44    1.80
  17   0   7   -2.65    2.08
  17   0   7   -1.09    1.72
  17   0   9   -1.44    2.00
  17   0  11   -0.61    2.01
  17   0  13    0.92    2.04
  17   0  15    3.65    2.36
  17   0  17    1.26    2.52
  17   0  19   -5.25    4.55
 -17  -1  26    9.18    6.09
 -17  -1  24   -2.31    3.01
 -17  -1  22   -1.26    2.36
 -17   1  22    0.60    2.04
 -17   1  20  107.31   10.03
 -17  -1  20  119.54   11.94
 -17   1  18   77.91    8.30
 -17  -1  18   85.94    9.79
 -17  -1  16   13.67    4.08
 -17   1  16    8.74    2.86
  17  -1 -14   29.68    4.72
 -17   1  14   30.12    4.94
 -17  -1  14   29.49    5.57
  17  -1 -12   25.34    4.41
 -17   1  12   28.81    4.70
  17   1 -12   28.98    5.14
 -17  -1  12   24.80    4.87
  17   1 -10   53.59    6.53
 -17   1  10   73.69    7.28
 -17  -1  10   66.40    7.53
  17  -1 -10   71.06    7.18
  17   1 -10   73.45    7.68
  17   1  -8   43.42    5.74
  17   1  -8   43.62    5.45
 -17   1   8   50.05    5.94
 -17  -1   8   33.10    5.07
  17  -1  -8   47.20    5.85
 -17   1   6   60.47    6.56
 -17  -1   6   74.59    7.43
  17  -1  -6   75.58    7.35
  17   1  -6   67.59    7.01
 -17   1   4  118.95    9.10
 -17  -1   4  138.06    9.91
  17  -1  -4  129.72    9.63
  17   1  -4  151.50   10.34
 -17   1   2  594.42   20.60
 -17  -1   2  602.51   20.27
  17  -1  -2  624.13   21.25
  17   1  -2  640.44   21.19
 -17   1   0  164.73   11.01
 -17  -1   0  146.58   10.01
  17  -1   0  176.35   11.46
  17   1   0  172.25   10.95
 -17  -1  -2    0.01    1.36
  17  -1   2    1.82    1.19
  17   1   2    4.53    1.42
  17   1   2    1.07    1.88
 -17  -1  -4    2.88    1.58
  17   1   4    1.06    0.87
  17   1   4    6.11    2.57
  17  -1   4    3.07    1.75
  17   1   6  107.28    7.55
  17   1   6  119.18    9.37
  17  -1   6  113.39    9.64
  17   1   8   23.36    3.84
  17  -1   8   28.49    5.14
  17   1   8   15.61    3.58
  17  -1  10   11.17    3.77
  17   1  10   12.26    3.13
  17   1  10   12.58    3.47
  17  -1  12  172.32   13.94
  17   1  12  179.05   12.09
  17   1  14   18.36    4.53
  17  -1  14   21.58    5.55
  17   1  16   -0.95    1.75
  17  -1  16    5.30    2.81
  17  -1  18   38.59    7.76
 -17  -2  23  109.99   12.92
 -17  -2  21   27.15    6.40
 -17   2  21   24.83    4.56
 -17   2  19  144.91   10.65
 -17  -2  19  136.18   13.36
 -17  -2  17  374.59   21.05
 -17   2  17  373.85   16.80
 -17  -2  15    3.92    2.22
  17  -2 -15   10.89    2.77
 -17   2  15    8.48    3.01
 -17  -2  13    2.63    2.08
  17  -2 -13    0.83    1.77
 -17   2  13   -0.09    1.27
 -17   2  11  213.48   12.21
  17   2 -11  216.60   12.95
  17  -2 -11  195.73   11.93
 -17  -2  11  222.73   14.50
 -17   2   9   77.50    7.44
  17   2  -9   72.16    7.00
  17  -2  -9   82.82    7.79
 -17  -2   9   78.83    8.46
 -17   2   7   34.67    5.07
  17  -2  -7   37.32    5.51
  17   2  -7   29.96    4.11
 -17  -2   7   29.51    5.03
 -17   2   5  703.14   22.73
  17   2  -5  676.45   17.82
  17  -2  -5  729.85   23.28
 -17  -2   5  715.62   23.49
  17   2  -5  708.37   23.41
  17   2  -3  326.12   11.23
  17  -2  -3  384.15   17.22
 -17  -2   3  323.67   15.41
  17   2  -3  341.00   16.03
  17  -2  -1  338.82   16.44
 -17  -2   1  286.22   14.30
  17   2  -1  303.26   14.73
  17   2   1    7.06    2.07
  17   2   1    9.01    1.59
 -17  -2  -1   13.14    3.12
 -17  -2  -3  106.37    8.45
  17   2   3  100.85    5.13
  17  -2   3   97.65    9.27
  17   2   3   93.46    8.06
  17  -2   5   30.01    5.41
 -17  -2  -5   38.67    5.15
  17   2   5   40.56    3.52
  17   2   5   32.74    4.76
  17   2   7  366.24   11.79
  17   2   7  344.57   15.50
  17  -2   7  339.98   18.55
  17  -2   9  854.21   30.62
  17   2   9  892.61   20.53
  17   2   9  821.32   24.03
  17   2  11   79.54    6.72
  17  -2  11   89.17   10.46
  17  -2  13   19.77    5.31
  17  -2  15  194.24   16.83
 -17  -3  20  128.66   13.80
 -17  -3  18   10.75    4.71
 -17   3  18    9.05    3.00
 -17   3  16  102.23    8.41
 -17  -3  16  103.57   11.69
 -17   3  14  391.23   16.61
  17  -3 -14  401.36   16.86
 -17  -3  14  395.84   22.73
 -17  -3  12   17.33    5.09
  17  -3 -12   20.08    3.98
  17  -3 -10  417.50   17.70
 -17  -3  10  415.62   20.61
  17   3 -10  423.75   17.39
  17  -3  -8 1518.76   34.29
 -17  -3   8 1516.49   38.09
  17   3  -8 1467.95   29.47
  17  -3  -6  117.11    9.72
 -17  -3   6  106.92    9.77
  17   3  -6  107.88    7.08
  17   3  -4   27.64    3.08
 -17  -3   4   27.31    4.92
 -17  -3   2  147.44   10.86
  17   3  -2  138.31    5.07
 -17  -3   0  306.61   15.19
 -17  -3  -2  119.29    9.30
  17  -3   2  126.92   11.28
  17   3   2  124.37    9.48
  17   3   4   30.26    4.63
 -17  -3  -4   44.95    5.49
  17  -3   4   30.37    5.47
 -17  -3  -6  516.37   18.46
  17   3   6  519.25   18.69
  17  -3   6  504.89   23.85
  17  -3   8   28.45    5.84
  17  -3  10  170.03   15.08
  17  -3  12  389.65   23.65
  17  -3  14   23.76    6.30
 -17  -4  17   92.88   11.92
 -17  -4  15   26.24    6.51
 -17  -4  13    4.17    2.92
 -17  -4  11   27.68    6.16
  17   4 -11   29.28    5.13
  17  -4 -11   35.70    5.42
 -17  -4   9   10.15    3.78
  17   4  -9    9.58    2.77
  17   4  -7    3.89    1.26
 -17  -4   7    5.54    2.99
 -17  -4   5  236.27   15.32
  17   4  -5  237.97    8.86
 -17  -4   3   54.85    7.15
 -17  -4   1    6.71    2.90
 -17  -4  -1   65.04    7.29
  17  -4   1   84.21   10.03
  17  -4   3  137.82   12.84
 -17  -4  -3  136.84   10.19
 -17  -4  -5  103.18    8.39
  17  -4   5  111.12   12.13
  17  -4   7  185.58   16.02
  17  -4   9   56.61    9.14
 -17  -5  14   15.08    5.47
 -17  -5  12    6.54    4.10
 -17  -5  10   20.01    5.46
 -17  -5   8   13.44    4.32
 -17  -5   6    4.11    2.92
 -17  -5   4    1.41    2.26
 -17  -5   2    0.75    1.60
  17  -5   0   16.01    5.06
 -17  -5   0    8.53    2.91
  17  -5   2    3.02    2.13
 -17  -5  -2    3.74    2.41
  17  -5   4   41.74    7.99
  17  -5   6    7.61    4.42
 -17  -6   9   -3.19    3.64
 -17  -6   7    8.11    4.12
 -17  -6   5    9.86    4.44
  17  -6  -3   20.75    5.93
 -17  -6   3   12.73    4.42
  17  -6  -1   31.38    6.79
 -18   0  24   24.95    6.24
 -18   0  22  191.28   14.90
 -18   0  20   30.94    5.86
 -18   0  18   33.73    6.01
 -18   0  16   51.05    6.91
 -18   0  14  122.30   10.21
 -18   0  12  206.93   13.03
  18   0 -12  217.35   13.41
 -18   0  10 1270.34   31.55
  18   0 -10 1308.07   32.10
  18   0  -8    1.20    1.26
 -18   0   8    2.01    1.92
 -18   0   6   27.66    4.62
  18   0  -6   33.00    5.05
 -18   0   4 1345.94   31.17
  18   0  -4 1393.41   31.91
 -18   0   2  377.66   16.57
  18   0  -2  425.52   17.66
 -18   0   0   90.16    8.18
  18   0   0  103.33    8.87
 -18   0  -2 1542.79   34.17
  18   0   2 1582.44   34.88
  18   0   4  422.40   16.44
  18   0   4  476.12   19.50
  18   0   6  150.43   10.35
  18   0   8  263.57   14.40
  18   0  10 1269.03   33.36
  18   0  12   49.71    6.96
  18   0  14  159.84   13.48
  18   0  16  109.03   11.80
  18   0  18   33.24    6.95
 -18  -1  25   57.24    9.23
 -18   1  23   12.26    3.63
 -18  -1  23    6.86    3.32
 -18   1  21   26.89    5.43
 -18  -1  21   35.76    6.99
 -18   1  19  267.64   15.76
 -18  -1  19  282.47   18.06
 -18   1  17   95.04    9.25
 -18  -1  17   86.91    9.72
 -18   1  15  198.48   12.72
 -18  -1  15  201.69   14.20
  18  -1 -15  206.45   13.07
 -18   1  13  378.24   17.20
 -18  -1  13  396.82   19.12
  18  -1 -13  396.97   17.76
  18   1 -11  210.59   13.12
 -18   1  11  184.01   11.83
 -18  -1  11  208.07   13.37
  18  -1 -11  208.40   12.77
  18   1  -9   78.09    7.63
 -18   1   9   76.80    7.56
 -18  -1   9   79.91    8.24
  18  -1  -9   83.93    8.02
  18   1  -9   84.47    8.37
  18   1  -7   87.05    7.58
 -18   1   7   82.88    7.77
 -18  -1   7   95.29    8.61
  18  -1  -7   98.43    8.56
  18   1  -7   94.30    8.61
 -18   1   5  248.60   13.51
 -18  -1   5  237.91   13.41
  18  -1  -5  256.76   13.93
  18   1  -5  281.51   14.76
 -18   1   3   57.30    6.56
 -18  -1   3   58.71    6.59
  18  -1  -3   64.07    7.03
  18   1  -3   53.70    6.48
 -18   1   1  432.41   18.28
 -18  -1   1  443.70   17.91
  18  -1  -1  469.87   19.11
  18   1  -1  472.10   18.75
 -18  -1  -1  536.13   19.57
  18  -1   1  549.97   21.08
  18   1   1  576.79   20.63
  18   1   3  141.48    8.26
 -18  -1  -3  146.13   10.36
  18   1   3  139.03   10.12
  18  -1   3  124.35    9.66
  18  -1   5  214.19   13.16
 -18  -1  -5  209.05   12.44
  18   1   5  221.36   13.04
  18   1   5  212.72   10.58
  18   1   7  881.73   22.76
  18   1   7  915.62   27.04
  18  -1   7  887.38   28.04
  18   1   9    0.76    1.39
  18  -1   9    1.95    1.87
  18  -1  11   99.13   10.48
  18   1  11  101.12    8.94
  18   1  13  256.29   15.19
  18  -1  13  242.46   17.10
  18   1  15    2.16    2.25
  18  -1  15   28.00    6.82
  18  -1  17   45.03    8.33
 -18  -2  22   13.85    4.90
 -18  -2  20    7.47    4.56
 -18   2  20   14.49    3.95
 -18  -2  18   -1.54    2.45
 -18   2  18    1.13    1.49
 -18  -2  16   -3.22    3.33
  18  -2 -16   -1.41    1.37
 -18   2  16   -2.11    1.66
 -18  -2  14   13.70    4.15
  18  -2 -14    9.96    3.13
 -18   2  14   11.80    3.25
 -18   2  12  151.27   10.65
  18   2 -12  153.04   11.50
 -18  -2  12  167.43   13.07
  18  -2 -12  168.31   11.45
 -18   2  10   32.40    5.21
  18  -2 -10   36.26    5.30
 -18  -2  10   43.55    6.65
  18   2 -10   30.13    4.79
  18   2  -8   53.33    5.90
 -18   2   8   52.06    6.39
  18  -2  -8   51.49    6.37
 -18  -2   8   59.14    7.42
 -18   2   6   70.86    7.42
  18   2  -6   79.20    6.57
  18  -2  -6   80.78    8.09
 -18  -2   6   71.81    7.74
 -18   2   4  197.00   12.37
  18   2  -4  197.51    9.39
  18  -2  -4  213.47   13.18
 -18  -2   4  207.83   12.82
  18   2  -4  212.60   13.04
  18   2  -2    2.71    1.52
  18   2  -2    4.26    1.56
 -18  -2   2    4.18    2.32
  18   2   0   33.45    5.31
 -18  -2   0   33.01    5.07
  18   2   2   47.09    5.99
 -18  -2  -2   49.66    6.13
  18   2   2   44.38    3.58
  18   2   4   42.41    5.62
  18   2   4   40.13    3.57
 -18  -2  -4   42.48    5.69
  18  -2   4   42.15    6.39
 -18  -2  -6   68.85    7.07
  18   2   6   63.14    6.90
  18   2   6   66.54    4.96
  18  -2   6   59.20    7.70
  18  -2   8   -2.90    2.88
  18   2   8    0.96    0.95
  18   2   8    1.60    1.61
  18  -2  10  195.53   15.33
  18   2  10  170.40    9.56
  18  -2  12    8.64    3.58
  18  -2  14   87.09   11.27
 -18  -3  21   -0.84    3.21
 -18  -3  19    4.02    2.97
 -18  -3  17    4.06    2.46
 -18   3  17    0.83    2.05
 -18  -3  15    9.20    3.57
  18  -3 -15   22.26    4.12
 -18   3  15   22.60    4.38
  18  -3 -13    0.76    1.68
 -18  -3  13   -2.04    2.53
 -18   3  13    0.65    1.55
 -18  -3  11   57.65    7.86
  18   3 -11   61.17    7.01
  18  -3 -11   61.49    6.93
  18  -3  -9  347.52   16.82
 -18  -3   9  361.15   19.28
  18   3  -9  329.23   14.83
  18   3  -7    5.52    2.17
 -18  -3   7    8.09    3.54
  18   3  -5   24.16    3.24
 -18  -3   5   27.94    5.27
  18   3  -3    3.90    1.21
 -18  -3   3    4.79    2.18
  18   3  -1   49.40    2.24
 -18  -3   1   50.27    6.45
  18   3  -1   47.12    2.19
 -18  -3  -1   74.76    7.58
  18   3   1   70.94    7.44
  18   3   3   26.98    4.66
  18  -3   3   15.10    4.21
 -18  -3  -3   21.28    4.20
  18  -3   5    9.01    3.80
  18   3   5    9.22    2.61
 -18  -3  -5    5.40    2.35
 -18  -3  -7  124.21    9.35
  18  -3   7   92.48   10.70
  18   3   7   95.20    8.31
  18  -3   9   83.69   10.88
  18  -3  11   29.18    6.91
  18  -3  13    2.09    2.68
 -18  -4  16   59.94    9.53
 -18  -4  14   26.67    6.44
 -18  -4  12   39.51    7.48
 -18  -4  10   82.31   10.11
  18   4 -10   94.32    8.27
  18   4  -8  320.71   13.56
 -18  -4   8  344.17   19.81
  18   4  -6   22.95    3.06
 -18  -4   6   32.53    5.98
 -18  -4   4    9.85    3.13
 -18  -4   2   10.55    3.31
 -18  -4   0  214.15   13.67
  18  -4   2   94.33   10.73
 -18  -4  -2   85.24    8.42
  18  -4   4   15.07    4.89
 -18  -4  -4   20.74    4.28
 -18  -4  -6  126.63    9.36
  18  -4   6  115.54   12.77
  18  -4   8   36.05    7.67
  18  -4  10   85.30   11.91
 -18  -5  13   90.88   11.80
 -18  -5  11   29.64    6.61
 -18  -5   9   39.16    7.78
 -18  -5   7   36.81    6.76
 -18  -5   5  128.13   12.35
 -18  -5   3    5.91    3.14
  18  -5  -1   73.32   10.12
 -18  -5   1   66.61    8.33
 -18  -5  -1   99.44    9.67
  18  -5   1   93.85   11.28
  18  -5   3    7.54    3.57
  18  -5   5   -0.99    1.94
 -18  -6   8    7.95    4.21
 -18  -6   6   -0.77    2.34
 -18  -6   4   91.88   10.94
 -18  -6   2    4.59    2.55
 -19   0  25   -4.73    4.60
 -19   0  23   -1.40    2.91
 -19   0  21   -1.13    3.06
 -19   0  19    1.89    2.81
 -19   0  17    3.79    2.09
 -19   0  15    1.16    2.27
 -19   0  13   -2.25    1.90
 -19   0  11    0.04    1.82
  19   0  -9    0.80    1.21
 -19   0   9   -1.33    1.80
  19   0  -7    0.68    1.31
 -19   0   7    0.48    1.42
 -19   0   5   -0.20    1.31
  19   0  -5   -0.65    1.31
 -19   0   3    2.04    2.03
  19   0  -3   -1.31    1.47
 -19   0   1    0.09    1.91
  19   0  -1   -4.36    2.06
 -19   0  -1    2.13    2.31
  19   0   1    1.32    1.06
 -19   0  -3    0.91    1.83
  19   0   3    0.68    1.43
  19   0   5   -0.61    1.49
  19   0   7   -3.33    2.47
  19   0   9   -0.68    1.73
  19   0  11    0.08    1.85
  19   0  13   -0.96    2.45
  19   0  15   -0.87    2.04
  19   0  17    3.47    3.45
 -19  -1  26    8.30    4.76
 -19  -1  24    3.54    2.98
 -19   1  22   53.83    7.57
 -19  -1  22   60.33    9.28
 -19   1  20   85.70    9.34
 -19  -1  20   99.22   11.38
 -19   1  18  218.73   14.37
 -19  -1  18  183.34   14.62
 -19   1  16    6.55    2.77
 -19  -1  16    8.34    3.70
 -19   1  14  221.28   13.60
 -19  -1  14  233.85   15.27
 -19   1  12  118.15    9.90
 -19  -1  12  108.23   10.13
  19  -1 -12  116.30    9.86
  19  -1 -10   12.53    3.60
 -19   1  10   11.40    3.53
  19   1 -10   10.45    2.65
 -19  -1  10   12.71    3.81
  19   1  -8  131.38    9.78
 -19   1   8  126.42    9.97
 -19  -1   8  126.58   10.38
  19  -1  -8  131.52   10.23
 -19   1   6   84.39    8.27
 -19  -1   6   88.43    8.62
  19  -1  -6   91.71    8.51
  19   1  -6   96.77    9.01
 -19   1   4  138.92   10.52
 -19  -1   4  130.23   10.13
  19  -1  -4  135.65   10.43
  19   1  -4  161.59   11.34
 -19   1   2    3.35    1.98
 -19  -1   2    2.14    1.45
  19  -1  -2    0.02    1.28
  19   1  -2    2.18    1.65
 -19   1   0  301.31   15.78
 -19  -1   0  286.19   14.75
  19   1   0  319.25   15.82
 -19  -1  -2   -2.56    2.01
  19   1   2   -0.55    1.45
  19   1   2    0.85    1.56
 -19  -1  -4  160.81   11.35
  19  -1   4  154.97   11.42
  19   1   4  144.78   10.83
  19   1   4  158.86    9.17
  19  -1   6    6.74    2.70
  19   1   6   10.14    2.87
  19  -1   8   -0.31    1.45
  19   1   8    0.89    1.26
  19  -1  10   64.48    8.36
  19   1  10   56.15    6.56
  19  -1  12   62.21    8.57
  19   1  12   89.90    8.76
  19   1  14   31.29    5.56
  19  -1  14   31.64    6.55
  19  -1  16    9.56    4.12
 -19  -2  23  119.06   13.51
 -19  -2  21   77.42   10.91
 -19   2  21   80.26    8.49
 -19  -2  19   37.77    6.90
 -19   2  19   48.71    6.61
 -19   2  17  302.44   16.05
 -19  -2  17  314.76   19.85
 -19   2  15   96.95    8.98
 -19  -2  15   90.79   10.29
  19  -2 -13   16.93    4.11
 -19   2  13   13.58    3.57
 -19  -2  13    9.21    3.64
 -19   2  11 1011.80   28.37
  19   2 -11 1078.42   29.57
 -19  -2  11 1064.48   32.78
  19  -2 -11 1105.65   30.10
 -19   2   9  368.12   17.19
  19   2  -9  384.44   16.43
  19  -2  -9  379.46   17.68
 -19  -2   9  404.56   19.47
 -19   2   7  186.02   12.42
  19   2  -7  204.06   11.16
  19  -2  -7  213.10   13.27
 -19  -2   7  202.52   13.47
 -19   2   5   41.16    5.89
  19   2  -5   39.10    4.52
 -19  -2   5   31.10    5.03
  19   2  -3  133.16    7.70
 -19  -2   3  132.06   10.42
  19   2  -3  140.30   10.81
 -19  -2   1  341.51   16.48
  19   2  -1  333.54   16.49
  19   2   1   18.02    3.91
  19   2   1   19.24    2.57
 -19  -2  -1   21.68    4.24
 -19  -2  -3  478.58   19.07
  19   2   3  501.91   12.78
  19  -2   3  434.39   20.33
  19   2   3  472.74   19.31
 -19  -2  -5   83.53    8.06
  19  -2   5   70.99    8.53
  19   2   5   91.09    8.61
  19   2   5   85.42    5.52
  19   2   7    3.84    1.64
  19  -2   7   -0.03    1.69
  19   2   7    2.05    1.59
  19  -2   9  382.67   21.27
  19   2   9  420.89   14.58
  19  -2  11  132.00   13.05
  19  -2  13   62.44    9.47
  19  -2  15   83.41   11.49
 -19  -3  20   57.64    9.55
 -19   3  18   82.09    8.24
 -19  -3  18  110.41   12.80
 -19  -3  16    9.72    3.65
 -19   3  16   13.57    3.46
 -19  -3  14   24.92    5.33
  19  -3 -14   21.61    4.63
 -19   3  14   23.62    4.65
 -19   3  12  418.43   18.52
  19  -3 -12  441.88   19.26
 -19  -3  12  476.09   23.53
 -19  -3  10    6.63    3.27
  19   3 -10    6.79    2.69
 -19  -3   8  161.65   13.08
  19   3  -8  163.04   10.08
 -19  -3   6  415.37   20.03
  19   3  -6  440.25   14.65
 -19  -3   4  125.33   10.69
  19   3  -4  148.48    7.37
  19   3  -2    2.24    0.78
 -19  -3   2    1.50    1.84
 -19  -3   0  546.45   21.28
 -19  -3  -2  176.09   11.90
  19  -3   2  160.15   13.25
  19   3   2  169.48   11.82
 -19  -3  -4  121.18    9.66
  19  -3   4  101.44   10.77
  19   3   4  128.70   10.20
 -19  -3  -6  318.46   15.49
  19   3   6  277.16   14.66
  19  -3   6  299.04   19.10
  19  -3   8   58.00    8.98
  19  -3  10    3.97    2.47
  19  -3  12   31.08    6.99
 -19  -4  17   35.89    7.92
 -19  -4  15   71.06   10.38
 -19  -4  13   69.46    9.83
 -19  -4  11  105.10   11.76
 -19  -4   9  186.85   15.09
 -19  -4   7    6.30    3.18
 -19  -4   5   23.41    4.99
 -19  -4   3  190.41   13.81
 -19  -4   1   54.37    7.17
 -19  -4  -1    1.04    1.79
  19  -4   1    2.81    3.23
  19  -4   3  188.23   15.65
 -19  -4  -3  186.10   12.56
 -19  -4  -5    9.36    2.30
  19  -4   5    7.37    3.47
  19  -4   7    9.26    4.46
  19  -4   9  102.33   12.66
 -19  -5  12   12.71    4.55
 -19  -5  10   19.09    5.34
 -19  -5   8   -2.27    2.54
 -19  -5   6   -4.42    3.82
 -19  -5   4   10.54    3.80
 -19  -5   2   36.07    6.36
  19  -5   0   21.97    5.72
 -19  -5   0   35.61    6.37
  19  -5   2    0.15    2.73
 -19  -5  -2    1.87    1.77
  19  -5   4    6.12    3.58
 -19  -6   7   50.71    8.91
 -19  -6   5    9.96    4.69
 -19  -6   3    4.19    2.29
 -20   0  24   24.36    6.03
 -20   0  22  290.17   18.91
 -20   0  20  213.39   15.75
 -20   0  18   -0.65    2.07
 -20   0  16  117.03   10.80
 -20   0  14  303.00   16.96
 -20   0  12   61.74    7.52
 -20   0  10  313.56   16.51
 -20   0   8  840.40   26.58
 -20   0   6   48.27    6.41
  20   0  -6   57.00    7.00
 -20   0   4   51.16    6.72
  20   0  -4   48.31    6.41
 -20   0   2 1151.18   30.67
  20   0  -2 1185.70   31.60
 -20   0   0    5.13    2.29
 -20   0  -2   71.15    7.85
  20   0   4  935.29   25.80
  20   0   6  283.45   14.93
  20   0   8   70.80    7.84
  20   0  10  120.79   10.74
  20   0  12   75.48    8.98
  20   0  14   11.49    3.86
  20   0  16   14.34    5.65
 -20  -1  25   89.30   12.00
 -20   1  23   69.66    9.03
 -20  -1  23   79.64   10.67
 -20   1  21    9.42    4.64
 -20  -1  21    2.67    2.85
 -20   1  19  165.13   12.88
 -20  -1  19  225.60   16.68
 -20   1  17  115.93   10.58
 -20  -1  17  134.91   12.57
 -20   1  15    3.94    2.32
 -20  -1  15    3.06    3.68
 -20   1  13  101.05    9.44
 -20  -1  13   90.02    9.44
 -20   1  11  192.33   12.89
 -20  -1  11  180.64   13.10
  20   1  -9   31.67    5.26
 -20   1   9   21.45    4.29
 -20  -1   9   23.00    4.71
 -20   1   7  122.96   10.10
 -20  -1   7  128.83   10.67
 -20   1   5  404.77   18.35
 -20  -1   5  453.73   19.56
 -20   1   3    6.06    2.80
 -20  -1   3    6.24    2.27
 -20   1   1    9.37    3.56
 -20  -1   1    9.11    3.26
  20   1  -1    8.58    2.93
 -20  -1  -1  495.85   20.05
  20   1   3  502.63   16.49
 -20  -1  -3  526.11   20.87
  20  -1   3  518.34   20.84
  20  -1   5   22.01    4.41
  20   1   5   28.50    4.18
  20   1   7  292.53   13.81
  20  -1   7  290.65   16.89
  20   1   9    2.89    1.60
  20  -1   9    1.17    2.27
  20  -1  11    8.44    3.48
  20   1  11   -0.08    1.45
  20   1  13   56.18    7.42
  20  -1  13   75.46    9.93
  20  -1  15   60.84    9.70
 -20  -2  22   42.56    8.24
 -20  -2  20    5.01    3.29
 -20   2  20    6.72    3.02
 -20  -2  18   10.66    4.34
 -20   2  18    9.50    3.18
 -20   2  16   52.72    6.90
 -20  -2  16   51.46    8.30
 -20   2  14    6.30    2.88
 -20  -2  14    6.47    3.16
 -20   2  12   10.79    3.59
 -20  -2  12   12.45    3.94
 -20   2  10  293.61   15.80
  20   2 -10  300.69   15.30
 -20  -2  10  308.84   17.69
 -20   2   8   23.86    4.72
  20   2  -8   30.53    4.60
 -20  -2   8   15.81    3.71
 -20   2   6   22.56    4.70
  20   2  -6   24.16    3.84
 -20  -2   6   27.91    5.33
  20   2  -4    3.71    1.65
 -20  -2   4    2.33    2.01
 -20  -2   2  290.75   15.64
 -20  -2   0  319.35   16.29
 -20  -2  -2   13.38    3.58
  20   2   2   10.48    2.15
  20   2   4  262.64    9.82
 -20  -2  -4  260.43   14.56
  20  -2   4  245.11   15.73
 -20  -2  -6  325.18   16.37
  20   2   6  348.27   11.96
  20  -2   6  337.84   19.25
  20  -2   8    4.52    2.77
  20   2   8    4.49    1.87
  20  -2  10    4.53    2.26
  20  -2  12   -1.84    2.77
  20  -2  14    1.79    2.84
 -20  -3  19    0.63    2.93
 -20  -3  17   -1.95    2.76
 -20   3  17   -4.49    2.23
 -20  -3  15   31.66    7.18
 -20   3  15   33.47    5.68
 -20  -3  13   11.07    3.85
 -20   3  13    5.73    2.46
  20   3 -11   16.31    3.86
 -20  -3  11   10.84    3.65
 -20  -3   9  118.15   11.43
  20   3  -9  133.59    9.62
  20   3  -7    0.84    1.49
 -20  -3   7    4.07    2.87
  20   3  -5   56.32    4.96
 -20  -3   5   64.08    7.91
  20   3  -3    5.75    1.44
 -20  -3   3    8.59    3.38
  20   3  -1   31.69    2.20
 -20  -3   1   30.87    5.36
  20   3  -1   30.99    2.19
 -20  -3  -1   82.17    8.58
  20  -3   3   32.71    6.35
 -20  -3  -3   40.58    5.97
  20  -3   5   12.65    4.50
 -20  -3  -5    5.33    2.66
 -20  -3  -7   25.26    4.72
  20  -3   7   17.35    5.23
  20  -3   9    6.50    2.32
  20  -3  11   20.40    6.14
 -20  -4  16  106.82   12.93
 -20  -4  14   26.35    6.46
 -20  -4  12   10.04    3.32
 -20  -4  10   80.68   10.40
 -20  -4   8   82.67   10.13
 -20  -4   6    6.89    3.06
 -20  -4   4    2.76    1.56
 -20  -4   2   73.09    8.74
 -20  -4   0   35.39    5.91
  20  -4   2   16.07    5.52
 -20  -4  -2   16.29    4.26
  20  -4   4  126.97   13.21
 -20  -4  -4  134.50   10.66
  20  -4   6   11.32    3.44
  20  -4   8   43.23    8.24
 -20  -5  11   42.70    8.34
 -20  -5   9   26.93    6.23
 -20  -5   7   66.98    9.58
 -20  -5   5   59.41    8.79
 -20  -5   3    4.28    3.09
  20  -5  -1   -4.06    3.11
 -20  -5   1   -1.46    2.60
 -20  -5  -1   84.72    9.24
  20  -5   1  121.76   13.48
  20  -5   3   93.32   12.30
 -20  -6   6    1.85    2.93
 -20  -6   4   25.69    6.63
 -21   0  25    4.01    3.45
 -21   0  23    1.73    2.31
 -21   0  21    1.07    2.48
 -21   0  19    8.76    4.05
 -21   0  17   -2.75    3.28
 -21   0  15   -0.96    2.21
 -21   0  13    1.54    2.30
 -21   0  11    0.82    2.24
 -21   0   9   -2.89    2.43
 -21   0   7   -2.03    2.50
 -21   0   5    0.71    1.83
 -21   0   3   -1.30    1.41
 -21   0   1   -1.69    2.20
 -21   0  -1    1.17    1.98
  21   0   3   -1.04    1.32
  21   0   5   -0.84    1.52
  21   0   7   -0.42    1.32
  21   0   9   -1.93    2.65
  21   0  11   -2.11    2.17
  21   0  13    0.55    2.73
  21   0  15   -2.00    3.12
 -21  -1  24   12.02    4.16
 -21   1  22   12.67    4.59
 -21  -1  22    0.11    2.39
 -21   1  20   15.78    4.61
 -21  -1  20   18.12    5.20
 -21   1  18  139.61   12.11
 -21  -1  18  134.22   12.83
 -21   1  16   67.23    8.17
 -21  -1  16   83.41    9.96
 -21   1  14    6.22    2.27
 -21  -1  14    6.83    2.83
 -21   1  12    0.07    1.92
 -21  -1  12   -0.80    2.21
  21   1 -10    3.17    2.81
 -21   1  10   -0.63    1.40
 -21  -1  10    0.76    1.80
  21   1  -8   23.77    4.42
 -21   1   8   24.55    4.90
 -21  -1   8   24.32    4.93
 -21   1   6  118.08   10.25
 -21  -1   6  111.17   10.00
 -21   1   4  248.75   14.87
 -21  -1   4  238.75   14.42
 -21   1   2  160.94   12.06
 -21  -1   2  154.74   11.58
 -21  -1   0  262.42   15.02
 -21  -1  -2  381.92   18.20
  21   1   2  388.83   14.86
 -21  -1  -4   35.79    5.76
  21   1   4   34.76    4.73
  21  -1   4   27.17    5.08
  21  -1   6   -0.31    2.44
  21   1   6    0.89    1.20
  21   1   8   86.94    7.93
  21  -1   8   90.15    9.84
  21  -1  10  250.38   17.01
  21   1  10  258.35   14.44
  21  -1  12   12.68    3.81
  21   1  12   23.03    4.72
  21  -1  14   12.79    4.90
  21  -1  16   16.41    5.63
 -21   2  21  114.34   10.58
 -21  -2  21  106.91   12.90
 -21   2  19    6.06    3.06
 -21  -2  19    3.38    3.09
 -21   2  17   84.17    8.90
 -21  -2  17   76.83   10.28
 -21   2  15   71.51    8.25
 -21  -2  15   52.88    8.10
 -21   2  13  490.62   21.10
 -21  -2  13  518.22   24.32
 -21   2  11   64.68    7.80
 -21  -2  11   75.00    9.08
 -21   2   9   -0.67    1.90
  21   2  -9    3.81    2.26
 -21  -2   9   -0.48    2.01
 -21   2   7  376.57   18.46
  21   2  -7  367.49   15.61
 -21  -2   7  388.07   19.50
 -21   2   5   77.94    8.56
  21   2  -5   83.51    6.96
 -21  -2   5   92.73    9.34
  21   2  -3   42.14    4.75
 -21  -2   3   52.58    6.97
 -21  -2   1  637.66   23.68
 -21  -2  -1  108.89    9.73
  21   2   1  126.87    7.00
  21   2   3    6.33    2.03
 -21  -2  -3    8.78    3.12
  21  -2   3    2.88    2.04
  21   2   5  385.86   12.56
  21  -2   5  388.21   20.65
 -21  -2  -5  423.05   19.15
  21  -2   7   27.26    5.91
  21   2   7   18.26    2.98
  21  -2   9    7.33    3.02
  21  -2  11  117.16   12.76
  21  -2  13  237.65   18.80
 -21   3  18  150.14   11.66
 -21  -3  18  148.65   15.08
 -21   3  16  213.80   14.00
 -21  -3  16  235.21   18.38
 -21  -3  14    4.84    2.81
 -21   3  14   13.28    3.98
 -21   3  12   -0.16    2.28
 -21  -3  12    2.57    3.07
 -21  -3  10  399.33   21.61
  21   3 -10  408.69   17.59
  21   3  -8    0.12    1.55
 -21  -3   8   -4.41    2.71
  21   3  -6    2.32    1.45
 -21  -3   6    0.33    1.61
 -21  -3   4  114.41   10.80
  21   3  -4  125.30    7.02
 -21  -3   2  248.90   15.48
  21   3  -2  256.02    8.13
 -21  -3   0    2.41    2.36
 -21  -3  -2  209.41   13.71
  21  -3   2  191.14   15.02
 -21  -3  -4    0.23    1.35
  21  -3   4    1.69    1.84
 -21  -3  -6   12.85    3.11
  21  -3   6   21.65    5.31
  21  -3   8  212.16   17.29
  21  -3  10   64.76   10.08
 -21  -4  15   49.19    8.96
 -21  -4  13  245.09   18.90
 -21  -4  11  145.81   14.13
 -21  -4   9   11.58    4.18
 -21  -4   7   29.95    6.12
 -21  -4   5    5.66    3.83
 -21  -4   3   37.87    6.44
 -21  -4   1   34.59    6.14
  21  -4   1   -2.06    3.58
 -21  -4  -1    2.48    2.01
  21  -4   3  114.07   12.73
 -21  -4  -3  127.61   10.85
 -21  -4  -5  142.23   11.08
  21  -4   5  124.52   13.59
  21  -4   7    9.33    4.54
 -21  -5  12    1.18    3.27
 -21  -5  10    6.64    3.52
 -21  -5   8    2.07    2.29
 -21  -5   6    2.68    3.63
 -21  -5   4    0.20    2.92
 -21  -5   2   18.65    5.08
  21  -5   0    3.38    2.95
 -21  -5   0    3.56    2.63
 -21  -6   7   11.18    5.08
 -21  -6   5   30.19    6.88
 -22   0  24   54.01    8.91
 -22   0  22   29.10    6.41
 -22   0  20  155.13   13.82
 -22   0  18   26.52    5.73
 -22   0  16   21.58    5.11
 -22   0  14  275.77   16.94
 -22   0  12   77.10    8.69
 -22   0  10   96.16    9.60
 -22   0   8    1.96    1.85
 -22   0   6 1054.13   31.15
 -22   0   4   84.08    8.74
 -22   0   2    9.89    3.25
 -22   0   0  140.70   11.50
 -22   0  -2  421.71   20.18
  22   0   4  115.27    9.57
  22   0   6  141.46   11.10
  22   0   8  164.67   12.40
  22   0  10    1.83    2.10
  22   0  12  190.03   14.60
  22   0  14   51.34    7.84
 -22   1  23   33.05    6.56
 -22  -1  23   34.75    6.56
 -22   1  21   40.44    6.94
 -22  -1  21   47.85    8.52
 -22   1  19   26.54    5.67
 -22  -1  19   25.85    6.25
 -22   1  17    0.24    1.80
 -22  -1  17    2.50    2.85
 -22   1  15    9.47    2.96
 -22  -1  15    9.59    3.88
 -22   1  13   57.61    7.50
 -22  -1  13   58.02    8.05
 -22   1  11  111.75   10.37
 -22  -1  11  122.87   11.34
  22   1  -9  308.77   16.18
 -22   1   9  272.85   15.91
 -22  -1   9  306.79   17.42
 -22   1   7   30.61    5.67
 -22  -1   7   27.99    5.39
 -22   1   5   73.58    8.37
 -22  -1   5   72.97    8.43
 -22   1   3  427.75   20.11
 -22  -1   3  438.71   20.06
 -22   1   1    1.62    2.23
 -22  -1   1    3.33    2.45
 -22  -1  -1  172.96   12.63
  22   1   3    4.01    1.96
 -22  -1  -3    1.92    1.40
  22  -1   3    3.82    2.06
  22  -1   5   25.77    4.94
  22   1   5   36.82    4.98
  22  -1   7    7.49    3.07
  22   1   7    8.05    2.64
  22  -1   9   97.94   10.78
  22   1   9  107.38    9.31
  22  -1  11    9.85    3.85
  22   1  11    9.54    3.12
  22  -1  13   10.30    4.12
  22  -1  15   78.23   11.12
 -22   2  20    5.68    3.32
 -22  -2  20    5.27    3.21
 -22   2  18   -0.51    1.52
 -22  -2  18   -0.71    2.36
 -22   2  16   78.54    8.76
 -22  -2  16   74.83   10.12
 -22   2  14  245.49   15.42
 -22  -2  14  261.63   17.90
 -22   2  12    6.55    3.16
 -22  -2  12    7.72    3.51
 -22   2  10   32.24    5.75
  22   2 -10   31.77    5.31
 -22  -2  10   29.95    6.00
 -22   2   8   35.04    5.82
  22   2  -8   38.38    5.40
 -22  -2   8   41.18    6.68
 -22   2   6   15.98    4.06
  22   2  -6   22.04    4.12
 -22  -2   6   22.15    4.70
  22   2  -4   87.78    7.07
 -22  -2   4   78.84    8.71
 -22  -2   2   67.42    8.19
 -22  -2   0   55.39    7.40
  22  -2   2    2.37    2.26
 -22  -2  -2    1.58    1.49
  22   2   2    0.98    1.46
 -22  -2  -4   18.72    3.91
  22   2   4   20.93    3.00
  22  -2   4   18.88    4.60
 -22  -2  -6   86.07    8.99
  22   2   6  106.06    7.04
  22  -2   6  116.67   11.79
  22  -2   8    0.83    3.26
  22  -2  10   69.94    9.99
  22  -2  12   25.84    6.56
 -22  -3  19    8.22    3.66
 -22  -3  17    1.88    2.86
 -22   3  17    2.22    2.46
 -22   3  15   95.46    9.80
 -22  -3  15  105.61   12.25
 -22   3  13   15.08    4.17
 -22  -3  13   25.65    6.02
 -22  -3  11   16.70    4.88
 -22  -3   9  140.43   12.85
  22   3  -9  129.70    9.69
  22   3  -7   60.66    6.15
 -22  -3   7   60.15    8.45
  22   3  -5    0.71    1.42
 -22  -3   5    0.47    1.56
  22   3  -3   18.11    2.56
 -22  -3   3   23.28    5.24
  22   3  -1    0.68    0.53
 -22  -3   1   -0.21    1.49
 -22  -3  -1   70.86    8.40
  22  -3   3   26.27    5.79
 -22  -3  -3   24.58    4.88
  22  -3   5   15.09    5.26
 -22  -3  -5   11.42    3.74
  22  -3   7   15.81    5.45
  22  -3   9    3.24    2.21
 -22  -4  14   10.22    3.80
 -22  -4  12   22.16    5.89
 -22  -4  10   57.36    8.85
 -22  -4   8   42.16    7.52
 -22  -4   6   96.18   10.86
 -22  -4   4   67.24    8.79
 -22  -4   2   13.01    4.01
 -22  -4   0   84.86    9.52
  22  -4   2   20.40    5.12
 -22  -4  -2   26.16    5.01
  22  -4   4   54.06    9.17
 -22  -4  -4   42.58    6.44
  22  -4   6   -5.45    4.36
 -22  -5  11   14.56    4.68
 -22  -5   9   91.71   11.59
 -22  -5   7   11.06    3.41
 -22  -5   5   22.86    5.95
 -22  -5   3  110.17   11.71
 -22  -5   1    2.02    1.95
  22  -5  -1    3.88    3.85
 -22  -6   6   68.00   10.29
 -22  -6   4   -2.31    2.95
 -23   0  25   -1.45    2.40
 -23   0  23    5.32    3.29
 -23   0  21    4.17    2.68
 -23   0  19    6.78    4.05
 -23   0  17    0.87    2.15
 -23   0  15   -1.46    2.53
 -23   0  13    2.33    2.20
 -23   0  11    1.09    1.79
 -23   0   9    0.94    1.98
 -23   0   7    1.37    2.32
 -23   0   5   -0.59    2.08
 -23   0   3   -1.14    2.25
 -23   0   1   -1.00    2.37
 -23   0  -1   -0.54    2.28
  23   0   3    3.18    2.13
  23   0   5    0.37    1.36
  23   0   7    2.89    2.21
  23   0   9   -1.59    2.21
  23   0  11   -2.65    1.98
  23   0  13   -0.15    2.45
 -23   1  22   25.16    6.01
 -23  -1  22   15.68    4.75
 -23   1  20   13.04    4.12
 -23  -1  20    3.76    2.67
 -23   1  18   -0.11    2.42
 -23  -1  18    7.59    4.31
 -23   1  16  177.18   13.82
 -23  -1  16  193.67   15.67
 -23   1  14    7.96    2.98
 -23  -1  14   17.36    4.80
 -23   1  12    9.34    3.39
 -23  -1  12   13.69    4.35
 -23   1  10   80.68    9.02
 -23  -1  10   89.90   10.00
 -23   1   8  117.20   10.60
 -23  -1   8  103.21   10.41
 -23   1   6  111.21   10.58
 -23  -1   6  124.98   11.21
 -23   1   4   33.55    5.93
 -23  -1   4   26.37    5.62
 -23   1   2   11.57    3.73
 -23  -1   2   18.32    4.27
 -23  -1   0   24.72    5.19
  23   1   2   36.28    4.87
 -23  -1  -2   30.35    5.46
 -23  -1  -4   11.15    3.72
  23   1   4    8.21    2.45
  23  -1   4    9.29    4.08
  23  -1   6   13.02    3.48
  23   1   6   21.25    4.25
  23  -1   8   27.61    5.87
  23   1   8   32.17    5.13
  23  -1  10  188.09   15.36
  23   1  10  185.94   12.76
  23  -1  12   16.01    4.96
  23  -1  14    6.18    4.86
 -23   2  21   23.49    5.51
 -23  -2  21   20.14    5.81
 -23   2  19   84.94    9.73
 -23  -2  19   84.21   11.18
 -23   2  17  138.49   12.01
 -23  -2  17  131.28   13.44
 -23   2  15    2.51    2.32
 -23  -2  15   -0.55    2.66
 -23   2  13   67.18    8.23
 -23  -2  13   57.69    8.44
 -23   2  11  116.23   10.84
 -23  -2  11  125.68   12.09
 -23   2   9    9.94    3.24
  23   2  -9   11.82    3.35
 -23  -2   9    8.31    3.42
 -23   2   7  229.41   15.22
  23   2  -7  218.99   12.52
 -23  -2   7  257.32   16.62
 -23   2   5  184.59   13.86
  23   2  -5  190.10   10.99
 -23  -2   5  185.59   13.96
  23   2  -3   52.47    5.54
 -23  -2   3   50.03    7.21
 -23  -2   1   93.19    9.82
 -23  -2  -1  107.37   10.17
  23   2   1  125.35    7.49
  23   2   3   17.77    3.05
 -23  -2  -3   19.80    4.40
  23  -2   3   14.47    4.21
  23   2   5  106.37    7.13
  23  -2   5   99.88   10.91
 -23  -2  -5   95.89    9.74
  23  -2   7   22.06    5.65
  23  -2   9  105.82   12.13
  23  -2  11   -0.83    1.79
 -23   3  18   18.20    4.53
 -23  -3  18   19.00    5.90
 -23   3  16   91.23    9.65
 -23  -3  16   98.04   12.23
 -23   3  14   -3.39    2.96
 -23  -3  14   -9.68    4.09
 -23   3  12   32.05    5.93
 -23  -3  12   41.76    7.42
  23   3 -10   48.75    6.81
 -23  -3  10   59.70    8.81
  23   3  -8   53.22    6.12
 -23  -3   8   65.20    8.99
 -23  -3   6    3.52    2.80
 -23  -3   4  126.35   11.80
 -23  -3   2   51.14    7.52
 -23  -3   0   23.50    5.07
  23  -3   2   33.66    6.87
 -23  -3  -2   25.61    5.15
  23  -3   4  432.41   24.16
 -23  -3  -4  380.91   19.25
 -23  -3  -6   -0.81    2.05
  23  -3   6    8.08    4.47
  23  -3   8   13.94    4.59
 -23  -4  13   38.15    7.65
 -23  -4  11   51.49    8.80
 -23  -4   9    4.54    4.31
 -23  -4   7   38.98    7.23
 -23  -4   5   87.28   10.36
 -23  -4   3    2.51    2.85
 -23  -4   1    3.63    2.50
 -23  -4  -1   96.64   10.24
  23  -4   1  101.84   12.38
  23  -4   3   -2.61    3.22
 -23  -4  -3    1.60    2.24
 -23  -5  10   33.16    7.78
 -23  -5   8    0.50    2.15
 -23  -5   6    8.33    3.56
 -23  -5   4    4.79    3.67
 -23  -5   2    1.90    3.14
 -23  -5   0   27.81    6.03
 -24   0  24   96.29   12.03
 -24   0  22   26.96    6.09
 -24   0  20    4.28    3.56
 -24   0  18  204.21   16.08
 -24   0  16   10.82    3.98
 -24   0  14    2.59    2.11
 -24   0  12   84.37    9.84
 -24   0  10  225.35   15.52
 -24   0   8   57.56    8.01
 -24   0   6  611.72   24.95
 -24   0   4  256.55   16.16
 -24   0   2   45.15    7.04
 -24   0   0    0.11    2.29
 -24   0  -2  799.23   29.05
  24   0   2  805.64   26.00
  24   0   4  199.27   13.19
  24   0   6  162.64   12.29
  24   0   8  531.22   23.05
  24   0  10   14.70    4.33
  24   0  12   -3.64    2.73
 -24   1  23   12.79    4.44
 -24  -1  23   20.48    5.70
 -24   1  21   44.53    7.52
 -24  -1  21   66.62   10.03
 -24   1  19   15.28    4.58
 -24  -1  19    9.59    4.18
 -24   1  17    0.86    2.01
 -24  -1  17   -1.74    2.24
 -24   1  15  102.68   10.85
 -24  -1  15   96.79   11.06
 -24   1  13   13.03    3.80
 -24  -1  13    7.02    3.10
 -24   1  11    3.40    2.71
 -24  -1  11    2.54    2.38
 -24   1   9  644.98   25.83
 -24  -1   9  733.41   28.15
 -24   1   7  117.14   11.04
 -24  -1   7  133.61   12.02
 -24   1   5    8.73    3.70
 -24  -1   5    9.89    3.42
 -24   1   3  298.37   17.80
 -24  -1   3  301.26   17.49
 -24   1   1  286.11   17.53
 -24  -1   1  290.17   17.06
 -24  -1  -1   72.76    8.68
  24   1   3  145.40    9.97
 -24  -1  -3  138.87   12.08
  24  -1   3  136.10   11.70
  24  -1   5  304.35   18.01
  24   1   5  323.21   15.35
  24   1   7  204.38   12.59
  24  -1   7  183.76   14.54
  24  -1   9   14.61    4.75
  24   1   9    9.23    2.58
  24  -1  11  135.95   13.43
  24  -1  13    1.55    2.10
 -24   2  20   -2.57    3.02
 -24  -2  20    2.93    3.56
 -24   2  18  163.35   13.58
 -24  -2  18  147.90   14.90
 -24   2  16    1.04    2.27
 -24  -2  16    1.33    2.72
 -24   2  14   -2.80    2.42
 -24  -2  14   -0.58    2.12
 -24   2  12  194.24   14.58
 -24  -2  12  200.31   15.84
 -24   2  10    0.43    2.26
 -24  -2  10    3.69    2.85
 -24   2   8  119.32   11.35
  24   2  -8  117.01    9.69
 -24  -2   8   95.82   10.41
 -24   2   6   11.87    3.52
  24   2  -6    5.33    2.22
 -24  -2   6    5.17    2.45
  24   2  -4   73.52    6.88
 -24  -2   4   69.94    8.66
 -24  -2   2   12.64    3.75
  24   2   0    0.21    1.17
 -24  -2   0    0.54    1.60
  24  -2   2   60.60    8.42
 -24  -2  -2   60.44    8.03
  24   2   2   57.56    5.31
 -24  -2  -4   -8.08    3.20
  24  -2   4   -1.02    3.18
  24  -2   6   30.89    6.55
  24  -2   8   15.49    4.78
  24  -2  10    8.69    4.49
 -24   3  17   -0.86    1.85
 -24  -3  17   -2.45    3.71
 -24   3  15   26.56    5.58
 -24  -3  15   23.60    6.10
 -24   3  13   38.52    6.64
 -24  -3  13   37.90    7.47
 -24  -3  11    2.28    3.12
 -24  -3   9   23.97    5.65
 -24  -3   7    0.38    3.35
 -24  -3   5    7.53    3.48
 -24  -3   3    3.87    2.93
 -24  -3   1    1.54    1.67
 -24  -3  -1  183.20   14.09
  24  -3   1  192.33   16.01
 -24  -3  -3   64.19    8.42
  24  -3   3   62.67    9.19
 -24  -3  -5    6.98    3.15
  24  -3   5    8.10    4.03
  24  -3   7   10.68    4.52
 -24  -4  12  176.51   16.26
 -24  -4  10   12.16    4.61
 -24  -4   8   37.78    7.48
 -24  -4   6   31.10    6.61
 -24  -4   4   60.39    8.62
 -24  -4   2   21.97    5.32
  24  -4   0   -4.00    4.54
 -24  -4   0   -0.31    3.07
 -24  -4  -2  145.34   12.61
  24  -4   2  170.19   16.17
 -24  -5   9  106.87   12.94
 -24  -5   7   44.34    8.34
 -24  -5   5    0.52    1.91
 -24  -5   3   47.15    8.26
 -24  -5   1   57.00    8.51
 -25   0  23    0.04    2.46
 -25   0  21   -2.31    4.39
 -25   0  19    5.05    2.90
 -25   0  17   -2.45    2.98
 -25   0  15   -0.97    3.16
 -25   0  13    0.87    1.93
 -25   0  11    2.60    2.56
 -25   0   9    1.52    2.68
 -25   0   7    0.53    1.90
 -25   0   5   -0.29    2.08
 -25   0   3   -1.52    2.32
 -25   0   1    5.52    3.45
 -25   0  -1   -0.55    1.69
  25   0   3   -0.30    1.89
  25   0   5   -2.79    1.84
  25   0   7    3.09    2.24
  25   0   9    0.86    2.57
  25   0  11    3.98    2.81
 -25   1  22   24.90    6.36
 -25  -1  22   27.38    6.94
 -25   1  20   24.35    5.65
 -25  -1  20   23.36    6.14
 -25   1  18   42.68    7.31
 -25  -1  18   35.68    7.24
 -25   1  16   -0.78    2.20
 -25  -1  16    1.24    2.51
 -25   1  14  248.69   16.90
 -25  -1  14  239.37   17.39
 -25   1  12    4.45    3.37
 -25  -1  12    0.62    2.06
 -25   1  10   -1.08    1.81
 -25  -1  10   -0.57    2.04
 -25   1   8  102.25   10.57
 -25  -1   8   94.22   10.44
 -25   1   6   60.53    8.07
 -25  -1   6   62.97    8.40
 -25   1   4    2.03    1.86
 -25  -1   4    9.89    3.63
 -25   1   2   35.77    6.61
 -25  -1   2   32.76    6.02
 -25  -1   0  297.22   17.98
  25  -1   2   41.74    6.81
 -25  -1  -2   45.19    7.27
  25   1   2   50.80    6.11
  25  -1   4   25.57    5.60
  25   1   4   32.89    5.08
  25   1   6  207.87   12.76
  25  -1   6  195.54   15.09
  25  -1   8    3.25    2.38
  25   1   8    5.26    2.48
  25  -1  10    3.13    3.29
  25  -1  12  102.31   12.16
 -25   2  21    0.81    2.87
 -25   2  19    0.37    2.58
 -25  -2  19   -0.79    2.46
 -25   2  17  301.32   18.62
 -25  -2  17  341.45   22.27
 -25   2  15  265.49   17.52
 -25  -2  15  304.53   20.58
 -25   2  13    1.04    1.91
 -25  -2  13    3.57    3.22
 -25   2  11  179.40   14.23
 -25  -2  11  217.14   16.49
 -25   2   9   23.24    5.30
 -25  -2   9   25.41    5.49
 -25   2   7   61.76    8.52
  25   2  -7   55.82    6.74
 -25  -2   7   58.87    8.46
  25   2  -5   25.78    4.34
 -25  -2   5   22.49    5.35
  25   2  -3  224.28   11.97
 -25  -2   3  213.47   15.41
 -25  -2   1   67.48    8.61
  25   2   1  222.07   10.63
 -25  -2  -1  209.34   15.09
 -25  -2  -3  244.92   16.32
  25  -2   3  235.27   16.98
  25  -2   5   -2.04    3.06
 -25  -2  -5    1.78    1.86
  25  -2   7    6.89    3.31
  25  -2   9   89.82   11.56
 -25   3  18   12.57    4.35
 -25   3  16    1.34    2.58
 -25  -3  16    4.56    2.98
 -25   3  14  283.74   17.92
 -25  -3  14  333.77   22.11
 -25  -3  12  168.55   15.36
 -25  -3  10   -1.90    2.36
 -25  -3   8   96.95   11.16
 -25  -3   6   50.34    8.21
 -25  -3   4  129.64   12.59
 -25  -3   2  125.87   12.05
 -25  -3   0  278.23   17.76
 -25  -3  -2   -1.84    2.76
  25  -3   2   -3.76    3.21
  25  -3   4    1.93    2.97
 -25  -3  -4   -0.72    2.28
 -25  -3  -6  257.02   16.49
  25  -3   6  240.98   18.97
 -25  -4  11   65.09   10.04
 -25  -4   9   34.69    7.34
 -25  -4   7    5.10    2.85
 -25  -4   5    8.22    3.46
 -25  -4   3   98.49   11.29
 -25  -4   1    4.19    2.90
 -25  -4  -1   54.14    8.35
  25  -4   1   54.98    9.39
 -25  -4  -3   43.90    7.21
 -25  -5   6    3.07    3.18
 -25  -5   4   12.68    3.93
 -25  -5   2   21.74    5.80
 -26   0  22  116.95   13.14
 -26   0  20   20.14    5.82
 -26   0  18  150.99   14.34
 -26   0  16    5.80    3.52
 -26   0  14   44.59    7.59
 -26   0  12   33.48    6.81
 -26   0  10  339.60   19.97
 -26   0   8  230.38   16.29
 -26   0   6   46.07    7.40
 -26   0   4   75.49    9.21
 -26   0   2   23.85    5.61
 -26   0   0  271.13   17.86
  26   0   2   12.81    3.63
  26   0   4  146.76   11.87
  26   0   6   -0.32    2.34
  26   0   8   74.47    9.10
  26   0  10   25.44    5.58
 -26   1  23   11.97    5.01
 -26   1  21   15.03    4.73
 -26  -1  21   25.29    6.21
 -26   1  19  105.68   11.92
 -26  -1  19   85.69   11.21
 -26   1  17   32.79    6.79
 -26  -1  17   46.21    8.16
 -26   1  15  111.45   11.75
 -26  -1  15  118.45   12.86
 -26   1  13  149.48   13.34
 -26  -1  13  170.62   14.88
 -26  -1  11  106.89   11.59
 -26   1  11   82.34    9.93
 -26   1   9   -0.69    1.65
 -26  -1   9   -1.33    2.41
 -26   1   7  118.61   11.72
 -26  -1   7  132.66   12.51
 -26   1   5   63.45    8.63
 -26  -1   5   59.68    8.33
 -26   1   3    6.99    3.25
 -26  -1   3   11.95    4.52
 -26  -1   1   36.21    6.43
 -26  -1  -1  108.50   11.09
  26   1   1  101.93    8.77
 -26  -1  -3   23.14    5.59
  26   1   3   25.46    4.48
  26  -1   3   16.45    4.21
  26   1   5    0.90    1.50
  26  -1   5    5.89    2.68
  26  -1   7  269.16   18.32
  26  -1   9   52.73    8.46
  26  -1  11   42.86    8.13
 -26   2  20   11.02    4.24
 -26   2  18    7.50    4.18
 -26  -2  18   11.91    4.75
 -26   2  16   12.50    4.17
 -26  -2  16   11.79    4.69
 -26   2  14    0.53    2.61
 -26  -2  14    2.61    1.94
 -26   2  12    1.61    2.38
 -26  -2  12    0.40    2.41
 -26   2  10   72.00    9.22
 -26  -2  10   93.46   10.85
 -26   2   8    3.17    2.84
  26   2  -8    0.79    1.82
 -26   2   6   16.62    4.65
  26   2  -6   29.38    5.04
 -26  -2   6   30.52    6.24
 -26  -2   4   56.06    8.16
 -26  -2   2   99.56   10.83
 -26  -2   0   45.50    7.36
  26   2   0   49.61    5.22
  26  -2   2   58.70    8.82
 -26  -2  -2   61.63    8.39
 -26  -2  -4   13.69    4.35
  26  -2   4   17.01    5.43
  26  -2   6   14.88    4.58
  26  -2   8    1.36    2.46
 -26   3  17   14.40    4.09
 -26   3  15   19.27    5.25
 -26  -3  15   23.59    6.63
 -26   3  13    8.34    3.27
 -26  -3  13    3.10    2.33
 -26  -3  11    6.68    3.24
 -26  -3   9   -2.72    2.36
 -26  -3   7    9.87    3.97
 -26  -3   5    4.02    2.74
 -26  -3   3   35.70    6.82
 -26  -3   1   22.43    5.27
 -26  -3  -1   20.94    5.26
  26  -3   1   15.80    5.14
 -26  -3  -3   12.44    3.82
  26  -3   3    8.02    4.42
 -26  -3  -5    5.81    2.72
  26  -3   5   -1.20    2.46
 -26  -4  10    6.33    3.32
 -26  -4   8   42.67    7.96
 -26  -4   6   -1.87    2.09
 -26  -4   4   -2.79    2.07
 -26  -4   2   11.76    4.39
 -26  -4   0   16.56    5.18
 -26  -4  -2   15.91    4.21
 -26  -5   5   45.72    8.21
 -26  -5   3    0.89    2.45
 -27   0  21   -2.02    3.55
 -27   0  19   -1.48    3.60
 -27   0  17    1.65    2.41
 -27   0  15   -0.18    2.31
 -27   0  13   -0.36    3.79
 -27   0  11    1.80    1.88
 -27   0   9    4.36    3.38
 -27   0   7    0.24    2.28
 -27   0   5   -1.33    2.45
 -27   0   3    1.12    2.51
 -27   0   1    4.12    2.64
 -27   0  -1   -4.63    2.95
  27   0   3   -2.45    2.37
  27   0   5   -1.11    3.08
  27   0   7   -2.01    2.77
  27   0   9   -2.92    3.61
 -27   1  22    3.66    2.79
 -27   1  20  -14.91    4.86
 -27  -1  20    0.76    3.00
 -27   1  18   40.88    7.53
 -27  -1  18   57.90    9.46
 -27   1  16    8.64    3.86
 -27  -1  16   11.90    4.49
 -27   1  14    7.59    3.24
 -27  -1  14    9.31    3.69
 -27   1  12   79.75   10.08
 -27  -1  12   68.06    9.38
 -27   1  10    9.30    3.79
 -27  -1  10    7.56    3.16
 -27   1   8   17.77    5.03
 -27  -1   8   14.68    4.32
 -27   1   6  131.88   12.61
 -27  -1   6  121.70   12.22
 -27   1   4  130.28   12.71
 -27  -1   4  114.24   11.67
 -27   1   2   15.99    4.84
 -27  -1   2    9.04    4.10
 -27  -1   0   53.81    8.13
 -27  -1  -2   18.01    5.05
  27   1   2   17.71    3.92
  27  -1   2   17.16    4.85
  27  -1   4    3.35    3.77
  27   1   4    3.93    2.60
  27  -1   6   64.13    9.30
  27  -1   8   23.59    5.46
  27  -1  10    5.42    3.71
 -27   2  21   63.80    9.66
 -27   2  19    0.10    3.04
 -27   2  17  121.48   12.52
 -27  -2  17  142.89   15.04
 -27   2  15   18.29    4.72
 -27  -2  15   16.02    4.59
 -27   2  13   -1.94    2.49
 -27  -2  13    0.50    2.90
 -27   2  11   36.45    6.77
 -27  -2  11   41.81    7.72
 -27   2   9   -0.72    3.24
 -27  -2   9    4.00    3.08
 -27   2   7   32.72    6.68
 -27  -2   7   34.75    6.74
 -27  -2   5   63.30    8.95
 -27  -2   3  124.49   12.40
 -27  -2   1  137.48   12.76
 -27  -2  -1   17.60    4.75
  27  -2   1    6.18    2.83
 -27  -2  -3   97.14   10.96
  27  -2   3  115.91   12.73
  27  -2   5   69.13   10.18
  27  -2   7   -4.13    3.90
 -27   3  18   35.23    6.84
 -27   3  16   23.59    5.99
 -27   3  14    5.27    3.47
 -27  -3  14   18.98    6.15
 -27  -3  12   31.41    6.80
 -27  -3  10    9.17    3.32
 -27  -3   8    6.97    3.43
 -27  -3   6  211.75   16.79
 -27  -3   4    1.61    2.68
 -27  -3   2    4.16    3.51
 -27  -3   0   88.68   10.55
  27  -3   2   52.32    9.03
 -27  -3  -2   67.62    8.97
  27  -3   4    7.12    3.44
 -27  -3  -4    0.30    2.51
 -27  -4   9   35.51    7.40
 -27  -4   7  -10.51    4.27
 -27  -4   5   -0.28    3.11
 -27  -4   3   11.69    4.46
 -27  -4   1    6.88    4.35
 -27  -4  -1    5.53    2.87
 -27  -5   4   -5.56    3.09
 -28   0  20   26.85    6.73
 -28   0  18   -4.57    3.36
 -28   0  16   28.21    6.42
 -28   0  14   38.02    7.36
 -28   0  12   -9.99    4.03
 -28   0  10   61.91    8.94
 -28   0   8  302.19   19.57
 -28   0   6   10.47    3.39
 -28   0   4    2.41    2.11
 -28   0   2  599.32   27.54
 -28   0   0  122.73   12.44
  28   0   2   -4.25    2.51
  28   0   4   68.38    8.71
  28   0   6  154.55   13.08
  28   0   8   -0.93    2.81
 -28   1  21    9.37    4.45
 -28   1  19   59.02    9.29
 -28  -1  19   55.49    9.62
 -28   1  17  128.29   13.24
 -28  -1  17  138.67   14.36
 -28   1  15   36.42    7.24
 -28  -1  15   40.08    7.92
 -28   1  13   49.25    7.80
 -28  -1  13   59.79    9.04
 -28   1  11   63.43    9.13
 -28  -1  11   42.08    7.45
 -28   1   9   55.53    8.31
 -28  -1   9   75.28   10.19
 -28   1   7   22.12    5.35
 -28  -1   7   20.85    5.31
 -28   1   5  220.27   16.81
 -28  -1   5  209.04   16.17
 -28   1   3   56.26    8.84
 -28  -1   3   48.73    7.89
 -28  -1   1   18.15    5.21
  28  -1   1   26.00    6.15
  28   1   1   15.21    3.41
 -28  -1  -1   30.84    6.74
 -28  -1  -3   36.18    7.04
  28  -1   3   29.40    5.94
  28   1   3   31.56    5.08
  28  -1   5    3.68    2.44
  28  -1   7  124.48   13.03
  28  -1   9  109.23   12.38
 -28   2  20    5.11    3.52
 -28   2  18   -0.20    2.81
 -28   2  16   -3.79    3.74
 -28  -2  16    4.10    3.53
 -28   2  14   29.06    6.10
 -28  -2  14   24.70    5.83
 -28   2  12   70.14    9.60
 -28  -2  12   62.41    9.71
 -28   2  10   -3.37    3.27
 -28  -2  10   -2.63    2.64
 -28   2   8    7.00    3.21
 -28  -2   8   14.04    4.23
 -28  -2   6   12.55    4.38
 -28  -2   4   22.83    5.73
 -28  -2   2  110.65   11.96
 -28  -2   0   -0.67    2.73
 -28  -2  -2   51.35    8.33
  28  -2   2   45.48    7.96
  28  -2   4   -4.07    3.36
 -28  -2  -4    1.79    2.26
  28  -2   6   -2.09    2.13
 -28   3  17    7.31    4.61
 -28   3  15   25.62    5.95
 -28  -3  13    4.64    2.94
 -28  -3  11   -0.82    2.07
 -28  -3   9   12.59    4.60
 -28  -3   7   24.64    6.28
 -28  -3   5   10.07    3.79
 -28  -3   3  105.61   11.94
 -28  -3   1   11.01    4.44
  28  -3   1    0.37    2.40
 -28  -3  -1    8.31    4.09
 -28  -3  -3    5.53    3.83
 -28  -3  -5   15.74    4.56
 -28  -4   8   69.92   10.52
 -28  -4   6   54.09    8.90
 -28  -4   4    3.50    2.02
 -28  -4   2   23.60    6.02
 -28  -4   0    7.42    3.83
 -29   0  19    0.64    3.05
 -29   0  17   -6.11    3.44
 -29   0  15    4.71    4.00
 -29   0  13    0.87    2.35
 -29   0  11    4.71    4.15
 -29   0   9    1.14    2.60
 -29   0   7    2.05    2.40
 -29   0   5   -1.35    2.46
 -29   0   3    1.18    2.03
 -29   0   1   -2.41    2.19
  29   0   1    2.84    2.20
  29   0   3    3.32    2.64
  29   0   5   -0.37    2.02
  29   0   7   -5.09    3.07
 -29   1  20    2.54    2.93
 -29   1  18   17.06    4.92
 -29   1  16  107.39   12.34
 -29  -1  16  110.63   12.97
 -29   1  14    6.76    3.10
 -29  -1  14    7.29    2.89
 -29   1  12   10.31    4.62
 -29  -1  12   11.06    4.78
 -29   1  10   56.17    8.81
 -29  -1  10   81.04   10.53
 -29   1   8   -2.16    2.80
 -29  -1   8   -0.88    2.78
 -29   1   6   16.77    5.40
 -29  -1   6   14.38    4.92
 -29   1   4   12.75    4.62
 -29  -1   4   11.25    4.22
 -29  -1   2    8.61    3.54
 -29  -1   0   47.06    8.26
  29   1   0   44.16    6.35
  29   1   2   44.66    6.33
  29  -1   2   37.66    6.94
 -29  -1  -2   35.69    7.23
  29  -1   4   53.21    8.45
  29  -1   6   28.11    6.67
  29  -1   8    5.26    3.48
 -29   2  19   33.81    6.86
 -29   2  17    3.56    2.67
 -29   2  15   10.93    3.88
 -29  -2  15    4.99    3.73
 -29   2  13   97.19   11.64
 -29  -2  13  107.32   13.04
 -29   2  11   11.52    4.67
 -29  -2  11   10.62    5.01
 -29   2   9    0.25    2.21
 -29  -2   9    0.56    2.45
 -29   2   7   32.53    6.91
 -29  -2   7   36.51    7.57
 -29  -2   5   22.51    5.77
 -29  -2   3    7.88    4.15
 -29  -2   1  177.04   15.42
 -29  -2  -1   51.45    8.42
  29  -2   1   33.85    7.47
 -29  -2  -3   71.87    9.85
  29  -2   3   60.51    9.48
  29  -2   5  124.16   13.62
 -29   3  18   10.81    5.31
 -29   3  16  115.08   12.61
 -29  -3  10   59.87    9.57
 -29  -3   8    8.38    4.13
 -29  -3   6   -1.51    2.20
 -29  -3   4  126.91   13.34
 -29  -3   2   16.60    5.29
 -29  -3   0    7.70    3.92
 -29  -3  -2  104.25   11.92
 -29  -3  -4   13.26    4.48
 -29  -4   5   -2.28    3.02
 -29  -4   3   -0.52    2.11
 -29  -4   1   66.50    9.68
 -29  -4  -1   29.45    6.69
 -30   0  18    2.67    3.53
 -30   0  16   13.45    4.11
 -30   0  14   81.18   11.09
 -30   0  12  336.89   21.83
 -30   0  10   31.89    6.87
 -30   0   8   36.48    7.02
 -30   0   6  226.83   17.69
 -30   0   4    0.78    2.22
 -30   0   2   62.09    9.57
 -30   0   0   43.66    7.50
  30   0   2   79.94    9.45
  30   0   4   39.12    7.03
  30   0   6  229.83   16.57
 -30   1  19   16.80    5.84
 -30   1  17   28.63    6.78
 -30   1  15   21.17    5.99
 -30  -1  15   22.76    6.02
 -30   1  13    4.81    3.46
 -30  -1  13    8.51    3.44
 -30   1  11    6.70    4.23
 -30  -1  11   -0.19    3.28
 -30   1   9  345.21   21.95
 -30  -1   9  344.48   22.10
 -30   1   7  -12.27    4.45
 -30  -1   7    3.15    3.43
 -30   1   5    4.91    3.52
 -30  -1   5   10.56    4.72
 -30   1   3    2.42    3.22
 -30  -1   3    1.51    2.39
 -30  -1   1  156.57   14.73
 -30  -1  -1   33.70    7.14
  30  -1   1   25.97    5.95
  30   1   1   31.86    5.86
  30  -1   3  108.86   12.04
  30  -1   5   30.59    6.19
  30  -1   7    9.40    3.89
 -30   2  20   10.40    4.77
 -30   2  18   -6.11    3.36
 -30   2  16    4.42    2.11
 -30   2  14   10.94    5.06
 -30   2  12    2.89    2.15
 -30  -2  12    6.05    3.13
 -30   2  10   -2.63    2.19
 -30  -2  10   -6.36    3.48
 -30   2   8   14.50    5.07
 -30  -2   8   12.16    4.51
 -30  -2   6   22.99    5.89
 -30  -2   4    4.08    2.97
 -30  -2   2    2.25    2.90
 -30  -2   0   62.15    9.54
  30  -2   2   -4.66    3.75
 -30  -2  -2   -4.27    3.56
  30  -2   4   37.61    8.14
 -30   3  17   17.57    5.55
 -30  -3   9    0.54    3.41
 -30  -3   7   23.34    6.72
 -30  -3   5    3.28    2.32
 -30  -3   3    7.16    2.54
 -30  -3   1    3.93    3.50
 -30  -3  -1   11.93    4.51
 -30  -3  -3   14.17    4.81
 -30  -4   2    2.90    3.82
 -31   0  15    2.15    2.80
 -31   0  13   -4.54    3.08
 -31   0  11    1.82    4.20
 -31   0   9   -1.65    2.38
 -31   0   7    1.15    2.34
 -31   0   5    5.18    3.88
 -31   0   3   -2.39    1.84
 -31   0   1    0.40    2.52
  31   0   1   -2.05    2.50
  31   0   3   -0.62    2.59
 -31   1  16   -3.96    3.35
 -31   1  14   52.01    8.98
 -31  -1  14   55.60    9.77
 -31   1  12   27.34    6.48
 -31  -1  12   22.52    5.92
 -31   1  10   25.05    6.18
 -31  -1  10   22.33    6.44
 -31   1   8    0.15    2.97
 -31  -1   8   -0.79    2.02
 -31   1   6   28.41    6.33
 -31  -1   6   25.19    6.38
 -31   1   4    6.28    3.73
 -31  -1   4   23.43    6.10
 -31  -1   2   49.42    8.55
 -31  -1   0   48.08    8.51
 -31  -1  -2    9.61    4.42
  31  -1   2   10.37    4.11
  31  -1   4   31.13    6.94
  31  -1   6   25.40    6.77
 -31   2  17   66.01   10.05
 -31   2  15    6.83    2.85
 -31   2  13   45.50    8.29
 -31   2  11   70.18   10.30
 -31  -2  11   52.66    9.22
 -31   2   9   14.39    5.17
 -31  -2   9   35.03    7.95
 -31  -2   7  130.13   14.08
 -31  -2   5  220.74   18.48
 -31  -2   3   12.44    4.25
 -31  -2   1   12.74    4.54
 -31  -2  -1   76.53   10.76
  31  -2   1   65.45   10.17
 -31  -2  -3   33.33    7.05
 -31  -3   4   25.99    6.58
 -31  -3   2  128.56   13.69
 -31  -3   0   -1.68    3.59
 -31  -3  -2   19.32    5.75
 -32   0  12   66.65   10.36
 -32   0  10   60.74    9.50
 -32   0   8    5.50    3.32
 -32   0   6   12.73    4.51
 -32   0   4  202.10   17.60
 -32   0   2   22.53    6.22
  32   0   0   13.04    4.09
  32   0   2   90.55   10.64
 -32   1  13   26.79    6.39
 -32   1  11    3.66    4.86
 -32  -1  11    1.14    3.53
 -32   1   9   22.95    6.32
 -32  -1   9   17.16    5.59
 -32   1   7   74.34   10.46
 -32  -1   7   72.55   10.60
 -32   1   5    7.05    2.98
 -32  -1   5    6.53    3.38
 -32  -1   3  148.57   15.10
 -32  -1   1   58.67    9.37
 -32  -1  -1   -1.13    2.61
  32  -1   1   -0.94    3.13
  32  -1   3   10.81    4.99
  32  -1   5   19.96    5.36
 -32   2  12   -2.81    4.15
 -32   2  10   48.63    9.01
 -32  -2   6   12.19    5.19
 -32  -2   4   23.62    6.83
 -32  -2   2   -0.75    2.22
 -32  -2   0    2.40    2.35
  33   0   1   -3.03    3.05
  33  -1   0  104.58   12.25
  33  -1   2    1.44    2.39
  33  -1   4    0.55    3.10
  34   0   0    5.48    3.38
  34  -1  -1   15.63    4.61
  34  -1   1   25.06    6.38
   0   0   0    0.00    0.00


TITL Pvl264btd_auto in I2/a
REM I2/a (#15 in standard setting)
CELL 0.71073  26.965533   5.548132  20.039837  90.0000 106.8628  90.0000
ZERR   32.00   0.001208   0.000230   0.000794   0.0000   0.0043   0.0000
LATT  2
SYMM -x+1/2, y,-z
SFAC C H N O S Zn
UNIT 32.00 32.00 32.00 32.00 32.00 32.00
REM  CrysAlisPro recorded range (K): Min=290.5; max=290.6; aver:290.5
TEMP 17
TREF
HKLF 4
END
_computing_structure_solution     'SHELXT 2014/5 (Sheldrick, 2014)'
;
_shelx_hkl_checksum   57173

