 
data_pvl1105a_auto_a
 
_audit_creation_method            'SHELXL-2018/3'
_shelx_SHELXL_version_number      '2018/3'
_chemical_name_systematic         ?
_chemical_name_common             ?
_chemical_melting_point           ?
_chemical_formula_moiety          ?
_chemical_formula_sum
 'C2.92 H2.50 N0.88 O0.87 S0.12 Zn0.17' 
_chemical_formula_weight          78.98

loop_
 _atom_type_symbol
 _atom_type_description
 _atom_type_scat_dispersion_real
 _atom_type_scat_dispersion_imag
 _atom_type_scat_source
 'C'  'C'   0.0033   0.0016
 'International Tables Vol C Tables 4.2.6.8 and 6.1.1.4'
 'H'  'H'   0.0000   0.0000
 'International Tables Vol C Tables 4.2.6.8 and 6.1.1.4'
 'N'  'N'   0.0061   0.0033
 'International Tables Vol C Tables 4.2.6.8 and 6.1.1.4'
 'O'  'O'   0.0106   0.0060
 'International Tables Vol C Tables 4.2.6.8 and 6.1.1.4'
 'S'  'S'   0.1246   0.1234
 'International Tables Vol C Tables 4.2.6.8 and 6.1.1.4'
 'Zn'  'Zn'   0.2839   1.4301
 'International Tables Vol C Tables 4.2.6.8 and 6.1.1.4'
 
_space_group_crystal_system       monoclinic
_space_group_IT_number            14
_space_group_name_H-M_alt         'P 21/c'
_space_group_name_Hall            '-P 2ybc'
 
_shelx_space_group_comment
;
The symmetry employed for this shelxl refinement is uniquely defined
by the following loop, which should always be used as a source of
symmetry information in preference to the above space-group names.
They are only intended as comments.
;
 
loop_
 _space_group_symop_operation_xyz
 'x, y, z'
 '-x, y+1/2, -z+1/2'
 '-x, -y, -z'
 'x, -y-1/2, z-1/2'
 
_cell_length_a                    6.2528(2)
_cell_length_b                    20.1556(5)
_cell_length_c                    15.8862(6)
_cell_angle_alpha                 90
_cell_angle_beta                  96.350(3)
_cell_angle_gamma                 90
_cell_volume                      1989.84(11)
_cell_formula_units_Z             23
_cell_measurement_temperature     290(2)
_cell_measurement_reflns_used     ?
_cell_measurement_theta_min       ?
_cell_measurement_theta_max       ?
 
_exptl_crystal_description        ?
_exptl_crystal_colour             ?
_exptl_crystal_density_meas       ?
_exptl_crystal_density_method     ?
_exptl_crystal_density_diffrn     1.516          
_exptl_crystal_F_000              926
_exptl_transmission_factor_min    ?
_exptl_transmission_factor_max    ?
_exptl_crystal_size_max           ?
_exptl_crystal_size_mid           ?
_exptl_crystal_size_min           ?
_exptl_absorpt_coefficient_mu     1.344
_shelx_estimated_absorpt_T_min    ?
_shelx_estimated_absorpt_T_max    ?
_exptl_absorpt_correction_type    ?
_exptl_absorpt_correction_T_min   ?
_exptl_absorpt_correction_T_max   ?
_exptl_absorpt_process_details    ?
_exptl_absorpt_special_details    ?
_diffrn_ambient_temperature       290(2)
_diffrn_radiation_wavelength      0.71073
_diffrn_radiation_type            MoK\a
_diffrn_source                    ?
_diffrn_measurement_device_type   ?
_diffrn_measurement_method        ?
_diffrn_detector_area_resol_mean  ?
_diffrn_reflns_number             16802
_diffrn_reflns_av_unetI/netI      0.0266
_diffrn_reflns_av_R_equivalents   0.0264
_diffrn_reflns_limit_h_min        -6
_diffrn_reflns_limit_h_max        7
_diffrn_reflns_limit_k_min        -24
_diffrn_reflns_limit_k_max        24
_diffrn_reflns_limit_l_min        -19
_diffrn_reflns_limit_l_max        16
_diffrn_reflns_theta_min          2.021
_diffrn_reflns_theta_max          29.166
_diffrn_reflns_theta_full         25.242
_diffrn_measured_fraction_theta_max   0.830
_diffrn_measured_fraction_theta_full  1.000
_diffrn_reflns_Laue_measured_fraction_max    0.830
_diffrn_reflns_Laue_measured_fraction_full   1.000
_diffrn_reflns_point_group_measured_fraction_max   0.830
_diffrn_reflns_point_group_measured_fraction_full  1.000
_reflns_number_total              4463
_reflns_number_gt                 3923
_reflns_threshold_expression      'I > 2\s(I)'
_reflns_Friedel_coverage          0.000
_reflns_Friedel_fraction_max      .
_reflns_Friedel_fraction_full     .
 
_reflns_special_details
;
 Reflections were merged by SHELXL according to the crystal
 class for the calculation of statistics and refinement.
 
 _reflns_Friedel_fraction is defined as the number of unique
 Friedel pairs measured divided by the number that would be
 possible theoretically, ignoring centric projections and
 systematic absences.
;
 
_computing_data_collection        ?
_computing_cell_refinement        ?
_computing_data_reduction         ?
_computing_structure_solution     'SHELXT 2014/5 (Sheldrick, 2014)'
_computing_structure_refinement 'SHELXL-2018/3 (Sheldrick, 2018)'
_computing_molecular_graphics     ?
_computing_publication_material   ?
_refine_special_details           ?
_refine_ls_structure_factor_coef  Fsqd
_refine_ls_matrix_type            full
_refine_ls_weighting_scheme       calc
_refine_ls_weighting_details
'w=1/[\s^2^(Fo^2^)+(0.0947P)^2^+13.9248P] where P=(Fo^2^+2Fc^2^)/3'
_atom_sites_solution_primary      ?
_atom_sites_solution_secondary    ?
_atom_sites_solution_hydrogens    geom
_refine_ls_hydrogen_treatment     constr
_refine_ls_extinction_method      none
_refine_ls_extinction_coef        .
_refine_ls_number_reflns          4463
_refine_ls_number_parameters      292
_refine_ls_number_restraints      0
_refine_ls_R_factor_all           0.0908
_refine_ls_R_factor_gt            0.0827
_refine_ls_wR_factor_ref          0.2540
_refine_ls_wR_factor_gt           0.2491
_refine_ls_goodness_of_fit_ref    1.121
_refine_ls_restrained_S_all       1.121
_refine_ls_shift/su_max           0.002
_refine_ls_shift/su_mean          0.000
 
loop_
 _atom_site_label
 _atom_site_type_symbol
 _atom_site_fract_x
 _atom_site_fract_y
 _atom_site_fract_z
 _atom_site_U_iso_or_equiv
 _atom_site_adp_type
 _atom_site_occupancy
 _atom_site_site_symmetry_order  
 _atom_site_calc_flag
 _atom_site_refinement_flags_posn
 _atom_site_refinement_flags_adp
 _atom_site_refinement_flags_occupancy
 _atom_site_disorder_assembly
 _atom_site_disorder_group
S20 S 1.5252(7) 0.79273(19) 0.4436(3) 0.0671(13) Uani 0.619(7) 1 d . . P A -1
N20 N 1.491(2) 0.8678(5) 0.4218(7) 0.062(3) Uani 0.619(7) 1 d . . P A -1
N50 N 1.3490(18) 0.7875(7) 0.4975(8) 0.070(4) Uani 0.619(7) 1 d . . P A -1
C20 C 1.226(2) 0.8373(6) 0.5036(7) 0.051(3) Uani 0.619(7) 1 d . . P A -1
C30 C 1.316(2) 0.8867(6) 0.4560(8) 0.049(3) Uani 0.619(7) 1 d . . P A -1
C40 C 1.053(2) 0.8488(6) 0.5501(9) 0.058(3) Uani 0.619(7) 1 d . . P A -1
H40 H 0.999634 0.815540 0.582626 0.069 Uiso 0.619(7) 1 calc R U P A -1
C50 C 0.962(2) 0.9127(7) 0.5459(8) 0.052(3) Uani 0.619(7) 1 d . . P A -1
C60 C 1.047(2) 0.9625(6) 0.4980(9) 0.051(3) Uani 0.619(7) 1 d . . P A -1
H60 H 0.984184 1.004382 0.497291 0.061 Uiso 0.619(7) 1 calc R U P A -1
C70 C 1.213(2) 0.9527(7) 0.4529(8) 0.053(3) Uani 0.619(7) 1 d . . P A -1
C80 C 0.0515(10) 0.5835(3) 0.7309(4) 0.0375(13) Uani 1 1 d . . . . .
N10 N 0.5319(9) 0.9309(3) 0.6733(4) 0.0402(12) Uani 1 1 d . . . . .
Zn1 Zn 0.31620(12) 0.91259(3) 0.75998(5) 0.0375(3) Uani 1 1 d . . . . .
O1 O -0.1951(9) 0.5007(3) 0.7611(4) 0.0639(16) Uani 1 1 d . . . . .
O2 O 0.1488(8) 0.8305(2) 0.7507(4) 0.0500(12) Uani 1 1 d . . . . .
O3 O 0.4795(9) 0.7931(3) 0.7456(4) 0.0631(15) Uani 1 1 d . . . . .
O4 O 0.4746(9) 0.9135(3) 0.8759(4) 0.0582(14) Uani 1 1 d . . . . .
O5 O 0.0568(11) 0.4736(3) 0.6830(5) 0.077(2) Uani 1 1 d . . . . .
N1 N 0.8021(11) 0.9322(3) 0.5958(4) 0.0539(16) Uani 1 1 d . . . . .
N2 N 0.6983(11) 0.9913(3) 0.5862(5) 0.0557(17) Uani 1 1 d . . . . .
C1 C 0.6989(12) 0.8974(4) 0.6493(5) 0.0495(17) Uani 1 1 d . . . . .
H1 H 0.737984 0.854868 0.667861 0.059 Uiso 1 1 calc R U . . .
C2 C 0.5368(11) 0.9889(4) 0.6326(5) 0.0478(17) Uani 1 1 d . . . . .
H2 H 0.438677 1.023159 0.636524 0.057 Uiso 1 1 calc R U . . .
C3 C -0.0310(11) 0.5136(3) 0.7237(4) 0.0407(14) Uani 1 1 d . . . . .
C4 C -0.0723(11) 0.6335(3) 0.7632(5) 0.0443(16) Uani 1 1 d . . . . .
H4 H -0.200979 0.622813 0.784259 0.053 Uiso 1 1 calc R U . . .
C5 C -0.0023(12) 0.6997(3) 0.7638(5) 0.0481(17) Uani 1 1 d . . . . .
H5 H -0.090550 0.733327 0.780331 0.058 Uiso 1 1 calc R U . . .
C6 C 0.1976(11) 0.7149(3) 0.7398(4) 0.0407(14) Uani 1 1 d . . . . .
C7 C 0.3248(11) 0.6644(3) 0.7105(5) 0.0454(16) Uani 1 1 d . . . . .
H7 H 0.460175 0.674250 0.694708 0.054 Uiso 1 1 calc R U . . .
C8 C 0.2473(11) 0.5993(3) 0.7050(5) 0.0433(15) Uani 1 1 d . . . . .
H8 H 0.329738 0.566218 0.683576 0.052 Uiso 1 1 calc R U . . .
C9 C 0.2847(12) 0.7840(3) 0.7449(4) 0.0428(15) Uani 1 1 d . . . . .
C10 C 0.6600(13) 0.8902(4) 0.8927(5) 0.0522(18) Uani 1 1 d . . . . .
H10 H 0.726147 0.871342 0.848773 0.063 Uiso 1 1 calc R U . . .
C11 C 0.9828(19) 0.8677(9) 0.9793(10) 0.122(6) Uani 1 1 d . . . . .
H11A H 1.008846 0.838129 0.934127 0.183 Uiso 1 1 calc R U . . .
H11B H 1.006851 0.844620 1.032374 0.183 Uiso 1 1 calc R U . . .
H11C H 1.078842 0.904869 0.979815 0.183 Uiso 1 1 calc R U . . .
C12 C 0.662(3) 0.9176(11) 1.0370(8) 0.146(8) Uani 1 1 d . . . . .
H12A H 0.508981 0.913071 1.025770 0.218 Uiso 1 1 calc R U . . .
H12B H 0.698764 0.963691 1.044115 0.218 Uiso 1 1 calc R U . . .
H12C H 0.712119 0.893844 1.087796 0.218 Uiso 1 1 calc R U . . .
N30 N 0.7636(13) 0.8908(5) 0.9666(5) 0.082(3) Uani 1 1 d . . . . .
 
loop_
 _atom_site_aniso_label
 _atom_site_aniso_U_11
 _atom_site_aniso_U_22
 _atom_site_aniso_U_33
 _atom_site_aniso_U_23
 _atom_site_aniso_U_13
 _atom_site_aniso_U_12
S20 0.075(3) 0.055(2) 0.073(3) -0.0023(17) 0.0147(19) 0.0106(17)
N20 0.092(9) 0.044(6) 0.049(6) -0.011(5) 0.002(6) 0.009(6)
N50 0.052(6) 0.094(9) 0.061(7) -0.040(7) -0.007(5) 0.024(6)
C20 0.061(7) 0.050(7) 0.038(6) -0.007(5) -0.007(5) 0.000(5)
C30 0.056(7) 0.048(7) 0.043(6) 0.001(5) -0.002(5) -0.008(5)
C40 0.068(8) 0.043(7) 0.064(8) 0.015(6) 0.013(6) -0.001(6)
C50 0.048(7) 0.059(8) 0.051(7) -0.007(5) 0.009(5) -0.009(5)
C60 0.053(7) 0.043(6) 0.058(7) 0.001(5) 0.013(6) 0.004(5)
C70 0.053(7) 0.053(7) 0.052(7) 0.001(5) 0.000(6) -0.002(5)
C80 0.037(3) 0.031(3) 0.045(3) 0.005(2) 0.004(3) -0.001(2)
N10 0.039(3) 0.038(3) 0.045(3) 0.002(2) 0.009(2) -0.001(2)
Zn1 0.0387(4) 0.0276(4) 0.0476(5) 0.0020(3) 0.0109(3) -0.0012(3)
O1 0.062(3) 0.035(3) 0.099(5) -0.008(3) 0.032(3) -0.013(2)
O2 0.049(3) 0.029(2) 0.071(4) 0.002(2) 0.003(2) -0.0018(19)
O3 0.052(3) 0.041(3) 0.098(5) 0.005(3) 0.016(3) -0.013(2)
O4 0.051(3) 0.073(4) 0.051(3) -0.007(3) 0.006(2) -0.005(3)
O5 0.075(4) 0.034(3) 0.129(6) -0.020(3) 0.039(4) -0.003(3)
N1 0.059(4) 0.046(3) 0.063(4) 0.014(3) 0.031(3) 0.013(3)
N2 0.056(4) 0.046(3) 0.070(4) 0.020(3) 0.028(3) 0.008(3)
C1 0.052(4) 0.043(4) 0.056(4) 0.007(3) 0.018(3) 0.004(3)
C2 0.039(3) 0.046(4) 0.060(4) 0.012(3) 0.014(3) 0.008(3)
C3 0.039(3) 0.032(3) 0.051(4) 0.001(3) 0.003(3) -0.002(2)
C4 0.035(3) 0.033(3) 0.066(5) -0.005(3) 0.015(3) -0.005(2)
C5 0.045(4) 0.034(3) 0.068(5) 0.001(3) 0.020(3) 0.003(3)
C6 0.040(3) 0.030(3) 0.052(4) 0.005(3) 0.001(3) -0.002(2)
C7 0.037(3) 0.037(3) 0.064(5) 0.002(3) 0.011(3) -0.002(3)
C8 0.040(3) 0.032(3) 0.059(4) 0.002(3) 0.013(3) 0.003(2)
C9 0.049(4) 0.030(3) 0.049(4) 0.006(3) 0.002(3) -0.002(3)
C10 0.050(4) 0.057(4) 0.050(4) 0.007(3) 0.004(3) -0.012(3)
C11 0.061(7) 0.172(15) 0.128(12) 0.052(11) -0.014(7) 0.000(8)
C12 0.115(11) 0.26(2) 0.062(8) -0.030(11) -0.003(7) 0.008(13)
N30 0.060(5) 0.121(8) 0.064(5) 0.014(5) -0.003(4) -0.016(5)
 
_geom_special_details
;
 All esds (except the esd in the dihedral angle between two l.s. planes)
 are estimated using the full covariance matrix.  The cell esds are taken
 into account individually in the estimation of esds in distances, angles
 and torsion angles; correlations between esds in cell parameters are only
 used when they are defined by crystal symmetry.  An approximate (isotropic)
 treatment of cell esds is used for estimating esds involving l.s. planes.
;
 
loop_
 _geom_bond_atom_site_label_1
 _geom_bond_atom_site_label_2
 _geom_bond_distance
 _geom_bond_site_symmetry_2
 _geom_bond_publ_flag
S20 N50 1.472(14) . ?
S20 N20 1.561(12) . ?
N20 C30 1.331(18) . ?
N50 C20 1.272(17) . ?
C20 C40 1.399(19) . ?
C20 C30 1.404(18) . ?
C30 C70 1.474(18) . ?
C40 C50 1.406(18) . ?
C40 H40 0.9300 . ?
C50 C60 1.397(18) . ?
C50 N1 1.400(14) . ?
C60 C70 1.344(18) . ?
C60 H60 0.9300 . ?
C80 C8 1.372(9) . ?
C80 C4 1.403(9) . ?
C80 C3 1.500(9) . ?
N10 C1 1.335(9) . ?
N10 C2 1.339(9) . ?
N10 Zn1 2.064(5) . ?
Zn1 O1 1.946(5) 2_556 ?
Zn1 O2 1.955(5) . ?
Zn1 O4 1.992(6) . ?
O1 C3 1.268(9) . ?
O2 C9 1.275(9) . ?
O3 C9 1.231(9) . ?
O4 C10 1.252(10) . ?
O5 C3 1.202(9) . ?
N1 C1 1.324(9) . ?
N1 N2 1.357(8) . ?
N2 C2 1.315(9) . ?
C1 H1 0.9300 . ?
C2 H2 0.9300 . ?
C4 C5 1.404(9) . ?
C4 H4 0.9300 . ?
C5 C6 1.380(9) . ?
C5 H5 0.9300 . ?
C6 C7 1.402(10) . ?
C6 C9 1.495(9) . ?
C7 C8 1.399(9) . ?
C7 H7 0.9300 . ?
C8 H8 0.9300 . ?
C10 N30 1.277(11) . ?
C10 H10 0.9300 . ?
C11 N30 1.441(15) . ?
C11 H11A 0.9600 . ?
C11 H11B 0.9600 . ?
C11 H11C 0.9600 . ?
C12 N30 1.450(17) . ?
C12 H12A 0.9600 . ?
C12 H12B 0.9600 . ?
C12 H12C 0.9600 . ?
 
loop_
 _geom_angle_atom_site_label_1
 _geom_angle_atom_site_label_2
 _geom_angle_atom_site_label_3
 _geom_angle
 _geom_angle_site_symmetry_1
 _geom_angle_site_symmetry_3
 _geom_angle_publ_flag
N50 S20 N20 96.0(8) . . ?
C30 N20 S20 106.7(10) . . ?
C20 N50 S20 119.0(13) . . ?
N50 C20 C40 132.9(14) . . ?
N50 C20 C30 103.9(13) . . ?
C40 C20 C30 123.0(12) . . ?
N20 C30 C20 114.2(12) . . ?
N20 C30 C70 128.2(12) . . ?
C20 C30 C70 117.5(12) . . ?
C50 C40 C20 117.3(11) . . ?
C50 C40 H40 121.3 . . ?
C20 C40 H40 121.3 . . ?
C40 C50 C60 120.6(12) . . ?
C40 C50 N1 122.7(11) . . ?
C60 C50 N1 116.3(11) . . ?
C70 C60 C50 123.2(12) . . ?
C70 C60 H60 118.4 . . ?
C50 C60 H60 118.4 . . ?
C60 C70 C30 118.3(12) . . ?
C8 C80 C4 119.3(6) . . ?
C8 C80 C3 120.4(6) . . ?
C4 C80 C3 120.3(6) . . ?
C1 N10 C2 104.1(6) . . ?
C1 N10 Zn1 133.6(5) . . ?
C2 N10 Zn1 122.1(5) . . ?
O1 Zn1 O2 124.4(2) 2_556 . ?
O1 Zn1 O4 107.1(3) 2_556 . ?
O2 Zn1 O4 106.6(2) . . ?
O1 Zn1 N10 89.6(2) 2_556 . ?
O2 Zn1 N10 119.0(2) . . ?
O4 Zn1 N10 108.7(2) . . ?
C3 O1 Zn1 115.2(5) . 2_546 ?
C9 O2 Zn1 105.8(4) . . ?
C10 O4 Zn1 123.2(5) . . ?
C1 N1 N2 106.0(6) . . ?
C1 N1 C50 130.1(8) . . ?
N2 N1 C50 123.1(8) . . ?
C2 N2 N1 107.0(6) . . ?
N1 C1 N10 111.6(6) . . ?
N1 C1 H1 124.2 . . ?
N10 C1 H1 124.2 . . ?
N2 C2 N10 111.3(6) . . ?
N2 C2 H2 124.4 . . ?
N10 C2 H2 124.4 . . ?
O5 C3 O1 123.8(6) . . ?
O5 C3 C80 119.8(6) . . ?
O1 C3 C80 116.4(6) . . ?
C5 C4 C80 120.1(6) . . ?
C5 C4 H4 119.9 . . ?
C80 C4 H4 119.9 . . ?
C6 C5 C4 120.0(6) . . ?
C6 C5 H5 120.0 . . ?
C4 C5 H5 120.0 . . ?
C5 C6 C7 119.7(6) . . ?
C5 C6 C9 121.8(6) . . ?
C7 C6 C9 118.5(6) . . ?
C8 C7 C6 119.7(6) . . ?
C8 C7 H7 120.2 . . ?
C6 C7 H7 120.2 . . ?
C80 C8 C7 121.0(6) . . ?
C80 C8 H8 119.5 . . ?
C7 C8 H8 119.5 . . ?
O3 C9 O2 123.8(6) . . ?
O3 C9 C6 119.6(6) . . ?
O2 C9 C6 116.6(6) . . ?
O4 C10 N30 123.8(9) . . ?
O4 C10 H10 118.1 . . ?
N30 C10 H10 118.1 . . ?
N30 C11 H11A 109.5 . . ?
N30 C11 H11B 109.5 . . ?
H11A C11 H11B 109.5 . . ?
N30 C11 H11C 109.5 . . ?
H11A C11 H11C 109.5 . . ?
H11B C11 H11C 109.5 . . ?
N30 C12 H12A 109.5 . . ?
N30 C12 H12B 109.5 . . ?
H12A C12 H12B 109.5 . . ?
N30 C12 H12C 109.5 . . ?
H12A C12 H12C 109.5 . . ?
H12B C12 H12C 109.5 . . ?
C10 N30 C12 119.5(10) . . ?
C10 N30 C11 120.2(11) . . ?
C12 N30 C11 120.2(11) . . ?
 
_refine_diff_density_max    0.938
_refine_diff_density_min   -0.595
_refine_diff_density_rms    0.142

_shelx_res_file
;
TITL pvl1105a_auto_a.res in P2(1)/c
    pvl1105a_auto_a.res
    created by SHELXL-2018/3 at 15:30:11 on 24-Jan-2023
REM Old TITL pvl1105a_auto in P2(1)
REM SHELXT solution in P2(1)/c
REM R1 0.149,  Rweak 0.087,  Alpha 0.073,  Orientation as input
REM Formula found by SHELXT:  C21 N3 O7 Zn
CELL  0.71073   6.2528  20.1556  15.8862   90.000   96.350   90.000
ZERR   23.000   0.0002   0.0005   0.0006    0.000    0.003    0.000
LATT  1
SYMM -X, 1/2+Y, 1/2-Z
SFAC C H N O S ZN
UNIT 67.1436 57.4696 20.2044 20 2.7348 4
ACTA
TEMP 17
L.S. 10
BOND $H
LIST 6
FMAP 2
PLAN 20
WGHT    0.094700   13.924800
FVAR       0.39935   0.61913
PART -1 21.0
S20   5    1.525234    0.792733    0.443572    21.00000    0.07505    0.05457 =
         0.07323   -0.00231    0.01468    0.01064
N20   3    1.490943    0.867784    0.421798    21.00000    0.09174    0.04376 =
         0.04928   -0.01060    0.00204    0.00904

N50   3    1.348974    0.787535    0.497476    21.00000    0.05183    0.09439 =
         0.06111   -0.04044   -0.00750    0.02413
C20   1    1.226494    0.837274    0.503604    21.00000    0.06094    0.04977 =
         0.03820   -0.00663   -0.00693    0.00019
C30   1    1.315787    0.886745    0.455994    21.00000    0.05569    0.04800 =
         0.04280    0.00063   -0.00231   -0.00809
C40   1    1.052894    0.848810    0.550142    21.00000    0.06783    0.04258 =
         0.06354    0.01466    0.01294   -0.00053
AFIX  43
H40   2    0.999634    0.815540    0.582626    21.00000   -1.20000
AFIX   0
C50   1    0.962141    0.912687    0.545859    21.00000    0.04811    0.05858 =
         0.05095   -0.00667    0.00924   -0.00897
C60   1    1.046553    0.962469    0.497991    21.00000    0.05285    0.04265 =
         0.05835    0.00150    0.01320    0.00403
AFIX  43
H60   2    0.984184    1.004382    0.497291    21.00000   -1.20000
AFIX   0
C70   1    1.213445    0.952733    0.452924    21.00000    0.05323    0.05342 =
         0.05210    0.00057   -0.00006   -0.00163

PART 0
C80   1    0.051482    0.583451    0.730930    11.00000    0.03678    0.03086 =
         0.04475    0.00477    0.00422   -0.00073
N10   3    0.531868    0.930912    0.673347    11.00000    0.03882    0.03793 =
         0.04465    0.00217    0.00881   -0.00064
ZN1   6    0.316200    0.912593    0.759975    11.00000    0.03875    0.02764 =
         0.04756    0.00200    0.01093   -0.00120
O1    4   -0.195052    0.500732    0.761052    11.00000    0.06210    0.03531 =
         0.09944   -0.00795    0.03216   -0.01292
O2    4    0.148831    0.830476    0.750681    11.00000    0.04889    0.02898 =
         0.07146    0.00199    0.00320   -0.00177
O3    4    0.479529    0.793096    0.745628    11.00000    0.05208    0.04144 =
         0.09751    0.00506    0.01582   -0.01250
O4    4    0.474605    0.913507    0.875873    11.00000    0.05104    0.07266 =
         0.05098   -0.00662    0.00632   -0.00541
O5    4    0.056831    0.473613    0.683005    11.00000    0.07514    0.03429 =
         0.12912   -0.01986    0.03861   -0.00285
N1    3    0.802073    0.932181    0.595793    11.00000    0.05864    0.04565 =
         0.06301    0.01394    0.03105    0.01336
N2    3    0.698300    0.991311    0.586222    11.00000    0.05552    0.04576 =
         0.07044    0.02025    0.02752    0.00847
C1    1    0.698927    0.897384    0.649312    11.00000    0.05225    0.04307 =
         0.05592    0.00687    0.01842    0.00418
AFIX  43
H1    2    0.737984    0.854868    0.667861    11.00000   -1.20000
AFIX   0
C2    1    0.536832    0.988938    0.632568    11.00000    0.03918    0.04579 =
         0.06041    0.01227    0.01377    0.00775
AFIX  43
H2    2    0.438677    1.023159    0.636524    11.00000   -1.20000
AFIX   0
C3    1   -0.030984    0.513561    0.723652    11.00000    0.03852    0.03181 =
         0.05131    0.00132    0.00296   -0.00243
C4    1   -0.072317    0.633499    0.763213    11.00000    0.03533    0.03347 =
         0.06607   -0.00477    0.01489   -0.00468
AFIX  43
H4    2   -0.200979    0.622813    0.784259    11.00000   -1.20000
AFIX   0
C5    1   -0.002299    0.699699    0.763802    11.00000    0.04486    0.03416 =
         0.06832    0.00082    0.01996    0.00264
AFIX  43
H5    2   -0.090550    0.733327    0.780331    11.00000   -1.20000
AFIX   0
C6    1    0.197588    0.714855    0.739838    11.00000    0.03988    0.02955 =
         0.05185    0.00504    0.00106   -0.00247
C7    1    0.324848    0.664437    0.710489    11.00000    0.03713    0.03669 =
         0.06356    0.00222    0.01128   -0.00199
AFIX  43
H7    2    0.460175    0.674250    0.694708    11.00000   -1.20000
AFIX   0
C8    1    0.247302    0.599275    0.705050    11.00000    0.03983    0.03232 =
         0.05947    0.00244    0.01314    0.00321
AFIX  43
H8    2    0.329738    0.566218    0.683576    11.00000   -1.20000
AFIX   0
C9    1    0.284693    0.783972    0.744927    11.00000    0.04889    0.03002 =
         0.04856    0.00597    0.00153   -0.00220
C10   1    0.660050    0.890178    0.892666    11.00000    0.04960    0.05687 =
         0.04984    0.00658    0.00369   -0.01162
AFIX  43
H10   2    0.726147    0.871342    0.848773    11.00000   -1.20000
AFIX   0
C11   1    0.982816    0.867671    0.979289    11.00000    0.06051    0.17188 =
         0.12847    0.05240   -0.01362    0.00013
AFIX 137
H11A  2    1.008846    0.838129    0.934127    11.00000   -1.50000
H11B  2    1.006851    0.844620    1.032374    11.00000   -1.50000
H11C  2    1.078842    0.904869    0.979815    11.00000   -1.50000
AFIX   0
C12   1    0.662312    0.917611    1.037018    11.00000    0.11469    0.25711 =
         0.06182   -0.03031   -0.00310    0.00772
AFIX 137
H12A  2    0.508981    0.913071    1.025770    11.00000   -1.50000
H12B  2    0.698764    0.963691    1.044115    11.00000   -1.50000
H12C  2    0.712119    0.893844    1.087796    11.00000   -1.50000
AFIX   0
N30   3    0.763594    0.890772    0.966610    11.00000    0.05988    0.12144 =
         0.06362    0.01364   -0.00296   -0.01568
HKLF 4




REM  pvl1105a_auto_a.res in P2(1)/c
REM wR2 = 0.2540, GooF = S = 1.121, Restrained GooF = 1.121 for all data
REM R1 = 0.0827 for 3923 Fo > 4sig(Fo) and 0.0908 for all 4463 data
REM 292 parameters refined using 0 restraints

END

WGHT      0.0780     11.6432

REM Highest difference peak  0.938,  deepest hole -0.595,  1-sigma level  0.142
Q1    1   1.4632  0.7509  0.5180  11.00000  0.05    0.94
Q2    1   1.6268  0.8534  0.4209  11.00000  0.05    0.89
Q3    1   1.3209  0.7809  0.5193  11.00000  0.05    0.87
Q4    1   1.3862  0.8155  0.4896  11.00000  0.05    0.81
Q5    1   1.1383  0.8026  0.5104  11.00000  0.05    0.69
Q6    1   1.6569  0.7563  0.5549  11.00000  0.05    0.65
Q7    1   1.4451  0.8482  0.4592  11.00000  0.05    0.63
Q8    1   1.4573  0.8708  0.4035  11.00000  0.05    0.59
Q9    1   1.4823  0.8518  0.5373  11.00000  0.05    0.44
Q10   1   1.3968  0.6967  0.5563  11.00000  0.05    0.40
Q11   1   0.4466  0.8174  1.0566  11.00000  0.05    0.39
Q12   1   0.1852  0.6967  0.6414  11.00000  0.05    0.38
Q13   1   0.6425  0.9705  0.5570  11.00000  0.05    0.38
Q14   1   0.9789  0.8181  1.0245  11.00000  0.05    0.38
Q15   1   0.3792  0.8792  0.9733  11.00000  0.05    0.37
Q16   1   0.2236  1.0429  0.6594  11.00000  0.05    0.34
Q17   1   0.7501  0.8109  1.0745  11.00000  0.05    0.34
Q18   1   1.2361  0.8005  0.9422  11.00000  0.05    0.32
Q19   1   1.6723  0.7634  0.4481  11.00000  0.05    0.32
Q20   1   0.3587  1.0898  0.6371  11.00000  0.05    0.32
;
_shelx_res_checksum   17638

_shelx_hkl_file
;
   0 -24   0  202.44   10.52
   0 -24  -1   14.00    2.79
   0 -24   1   16.56    3.06
   0 -24  -2  109.92    7.56
   0 -24   2  108.13    7.62
   0 -24   3   14.58    3.12
   0 -24  -3   10.70    2.82
   0 -24   4  178.73    9.98
   0 -24  -4  184.90   10.07
   0 -23   0    3.90    1.71
   0 -23  -1   11.43    2.90
   0 -23   1    3.66    1.92
   0 -23   2    9.86    2.55
   0 -23  -2   13.50    3.03
   0 -23   3    7.50    2.19
   0 -23  -3   10.28    2.54
   0 -23   4    8.07    2.80
   0 -23  -4    5.98    2.41
   0 -23   5    6.85    2.21
   0 -23  -5    6.34    2.17
   0 -23   6    1.94    2.05
   0 -23  -6   -1.04    1.86
   0 -23   7    8.22    2.77
   0 -23  -7    8.61    2.51
   0 -22   0   27.53    3.54
   0 -22   1   51.11    5.03
   0 -22  -1   43.92    4.54
   0 -22  -2  106.03    7.12
   0 -22   2   87.70    6.60
   0 -22   3  128.47    7.83
   0 -22  -3  117.15    7.51
   0 -22  -4   86.72    6.33
   0 -22   4   86.08    6.53
   0 -22   5   33.38    4.18
   0 -22  -5   43.79    4.54
   0 -22   6   68.50    5.90
   0 -22  -6   76.14    6.05
   0 -22   7   20.89    3.37
   0 -22  -7   22.50    3.42
   0 -22   8   67.83    6.08
   0 -22  -8   73.74    6.04
   0 -22  -9    6.96    2.37
   0 -21   0   -0.53    1.64
   0 -21   1   -0.74    1.61
   0 -21  -1    1.10    1.59
   0 -21   2   23.21    3.36
   0 -21  -2   27.15    3.70
   0 -21   3    3.84    1.81
   0 -21  -3    2.67    1.55
   0 -21   4   37.70    4.25
   0 -21  -4   38.99    4.28
   0 -21   5    0.78    1.88
   0 -21  -5   -0.06    1.52
   0 -21   6    2.91    2.01
   0 -21  -6    2.90    1.89
   0 -21   7    3.95    2.36
   0 -21  -7    0.69    1.49
   0 -21   8   32.88    4.08
   0 -21  -8   24.04    3.57
   0 -21   9    2.86    1.66
   0 -21  -9    5.25    2.19
   0 -21  10   17.50    3.26
   0 -21 -10   23.17    3.74
   0 -20   0    8.88    2.15
   0 -20  -1   94.03    6.26
   0 -20   1   97.71    6.36
   0 -20   2    7.98    2.14
   0 -20  -2    9.66    2.35
   0 -20   3  139.07    7.70
   0 -20  -3  125.37    7.35
   0 -20   4    7.45    2.30
   0 -20  -4    4.27    1.69
   0 -20   5  119.99    7.34
   0 -20  -5  137.20    7.67
   0 -20   6    3.09    1.69
   0 -20  -6    2.35    1.79
   0 -20   7   13.78    2.71
   0 -20  -7   22.38    3.31
   0 -20   8    2.70    1.89
   0 -20  -8    0.96    1.59
   0 -20   9   31.96    4.09
   0 -20  -9   36.23    4.16
   0 -20  10    5.66    2.42
   0 -20 -10    5.61    2.06
   0 -20  11   19.54    3.35
   0 -20 -11   12.23    2.72
   0 -19   0   -0.53    1.32
   0 -19   1   23.07    3.05
   0 -19  -1   27.85    3.36
   0 -19  -2   45.37    4.19
   0 -19   2   55.88    4.68
   0 -19   3    1.25    1.37
   0 -19  -3    4.94    1.98
   0 -19   4   19.02    2.91
   0 -19  -4   19.74    2.93
   0 -19   5   11.24    2.43
   0 -19  -5    8.72    2.14
   0 -19   6   29.20    3.63
   0 -19  -6   20.84    3.11
   0 -19   7    3.15    1.72
   0 -19  -7    4.75    1.88
   0 -19   8   67.00    5.59
   0 -19  -8   51.61    4.71
   0 -19   9   -0.92    1.57
   0 -19  -9    0.17    1.51
   0 -19  10   34.62    4.29
   0 -19 -10   28.94    3.76
   0 -19  11   38.46    4.53
   0 -19 -11   30.99    3.93
   0 -19  12   14.93    3.12
   0 -19 -12   23.12    3.60
   0 -18   0  116.09    6.54
   0 -18   1   22.85    2.88
   0 -18  -1   26.08    3.07
   0 -18   2  174.41    8.26
   0 -18  -2  178.96    8.38
   0 -18   3  150.12    7.63
   0 -18  -3  158.34    7.77
   0 -18   4  109.59    6.50
   0 -18  -4  112.52    6.49
   0 -18   5   40.15    3.98
   0 -18  -5   41.93    3.98
   0 -18   6   75.05    2.69
   0 -18   6   78.10    5.58
   0 -18  -6   78.48    5.49
   0 -18  -6   72.78    2.83
   0 -18   7   62.59    5.07
   0 -18  -7   66.47    5.10
   0 -18  -7   68.48    3.18
   0 -18   8   38.02    4.10
   0 -18  -8   34.87    2.48
   0 -18  -8   32.69    3.65
   0 -18   9   47.33    4.78
   0 -18  -9   53.77    4.73
   0 -18  -9   55.77    3.46
   0 -18  10   40.17    4.37
   0 -18 -10   47.27    3.43
   0 -18 -10   44.47    4.46
   0 -18 -11    7.61    1.64
   0 -18  11   12.92    3.28
   0 -18 -11   10.19    2.41
   0 -18 -12   21.50    2.68
   0 -18  12   32.18    4.11
   0 -18 -12   26.40    3.70
   0 -18  13   12.55    2.79
   0 -18 -13   10.06    2.49
   0 -17   0    0.48    1.15
   0 -17   1   14.85    2.30
   0 -17  -1    8.88    2.00
   0 -17   2    6.14    1.77
   0 -17  -2    3.18    1.48
   0 -17   3  142.80    7.17
   0 -17  -3  133.30    6.94
   0 -17   4   36.50    3.60
   0 -17  -4   33.69    3.46
   0 -17   5   36.56    1.47
   0 -17   5   35.14    1.46
   0 -17   5   32.53    3.52
   0 -17  -5   37.13    3.60
   0 -17  -5   35.80    1.65
   0 -17   6    7.91    0.94
   0 -17   6    8.40    2.13
   0 -17  -6    8.44    1.01
   0 -17  -6   10.64    2.15
   0 -17   7   35.87    2.26
   0 -17   7   39.05    3.88
   0 -17  -7   40.08    3.90
   0 -17  -7   32.88    2.28
   0 -17  -8    5.93    1.28
   0 -17   8    1.86    0.87
   0 -17   8    3.03    1.88
   0 -17  -8    1.23    1.43
   0 -17   9  100.04    6.52
   0 -17  -9   82.14    5.79
   0 -17  -9   89.29    4.54
   0 -17 -10    6.76    1.54
   0 -17  10    7.53    2.24
   0 -17 -10    5.80    1.97
   0 -17 -11   18.47    2.40
   0 -17  11   14.66    2.98
   0 -17 -11   20.51    3.20
   0 -17 -12    4.80    1.49
   0 -17  12    6.91    2.21
   0 -17 -12    5.37    2.08
   0 -17 -13   32.09    3.47
   0 -17  13   33.59    4.29
   0 -17 -14   -0.89    1.37
   0 -17  14    1.73    1.76
   0 -17 -15   32.46    3.94
   0 -16   0  510.16   15.35
   0 -16  -1   89.24    5.31
   0 -16   1   78.49    5.01
   0 -16   2  322.58   11.29
   0 -16  -2  318.36   11.25
   0 -16   3   41.71    3.70
   0 -16  -3   42.61    3.68
   0 -16  -4  425.58   13.52
   0 -16   4  402.28   13.45
   0 -16   5    3.21    0.62
   0 -16   5    2.50    1.42
   0 -16  -5    1.79    0.55
   0 -16  -5    3.65    1.41
   0 -16   6  112.18    3.98
   0 -16   6   97.71    6.03
   0 -16  -6  116.02    4.18
   0 -16  -6  106.31    6.11
   0 -16  -7    9.32    1.35
   0 -16   7    8.22    1.18
   0 -16   7    9.84    2.15
   0 -16  -7    9.62    2.11
   0 -16   8  116.28    4.88
   0 -16   8  124.28    6.99
   0 -16  -8  117.42    5.08
   0 -16  -8  114.71    6.56
   0 -16  -9    3.25    1.22
   0 -16   9    3.47    1.13
   0 -16   9    4.85    1.96
   0 -16  -9    5.49    1.90
   0 -16  10   75.91    4.45
   0 -16  10   85.12    5.95
   0 -16 -10   81.94    4.75
   0 -16 -10   83.77    5.74
   0 -16 -11    1.84    1.18
   0 -16  11   -0.11    1.58
   0 -16 -11    3.56    1.76
   0 -16 -12   12.44    2.32
   0 -16  12    6.75    2.26
   0 -16 -12   18.67    3.17
   0 -16 -13    5.10    1.62
   0 -16  13    9.67    2.41
   0 -16 -14   10.57    2.48
   0 -16  14    9.29    2.65
   0 -16 -15    5.68    2.38
   0 -16 -16   19.08    3.28
   0 -16 -17    0.03    1.74
   0 -15   0    0.45    1.10
   0 -15  -1  112.06    5.86
   0 -15   1  106.15    5.66
   0 -15   2   18.20    2.37
   0 -15  -2   12.26    2.05
   0 -15  -3  122.18    6.20
   0 -15   3  125.67    6.28
   0 -15   4   29.88    1.29
   0 -15   4   31.37    3.19
   0 -15  -4   31.99    1.46
   0 -15  -4   29.99    3.01
   0 -15   5    9.63    0.95
   0 -15   5    9.33    1.97
   0 -15  -5    8.12    0.98
   0 -15  -5    6.89    1.74
   0 -15  -6    0.50    0.69
   0 -15   6    1.97    0.64
   0 -15   6    0.59    1.48
   0 -15  -6    1.94    1.31
   0 -15   7  170.30    5.92
   0 -15   7  175.20    8.10
   0 -15  -7  180.77    6.21
   0 -15  -7  173.70    7.86
   0 -15  -8    8.05    1.41
   0 -15   8    7.01    1.29
   0 -15   8    9.34    2.11
   0 -15  -8    6.19    2.00
   0 -15  -9   18.79    2.22
   0 -15   9   24.76    2.42
   0 -15   9   24.82    3.21
   0 -15  -9   26.89    3.17
   0 -15 -10    3.00    1.27
   0 -15  10    4.02    1.19
   0 -15  10    3.39    1.84
   0 -15 -10    1.51    1.48
   0 -15 -11    3.01    1.43
   0 -15  11    4.39    1.45
   0 -15  11    3.58    1.78
   0 -15 -11    2.87    1.52
   0 -15 -12   16.82    2.52
   0 -15 -12   15.24    2.80
   0 -15 -13    4.86    1.88
   0 -15 -14    9.78    2.37
   0 -15 -15   13.26    2.63
   0 -15 -16    2.63    1.92
   0 -15 -17    3.28    1.85
   0 -15 -18    9.73    3.14
   0 -14   0  408.19   12.51
   0 -14   1  793.49   20.60
   0 -14  -1  816.11   20.75
   0 -14  -2  116.53    5.87
   0 -14   2  131.62    6.15
   0 -14   3  110.27    5.62
   0 -14  -3  104.45    5.44
   0 -14  -3   97.85    2.48
   0 -14   4   90.37    2.86
   0 -14  -4   89.54    5.04
   0 -14   4   87.81    5.12
   0 -14  -4   90.25    3.01
   0 -14   5  462.37   11.04
   0 -14   5  460.60   14.24
   0 -14  -5  445.25   13.91
   0 -14  -5  493.78   11.37
   0 -14   6  259.95    7.53
   0 -14   6  268.14   10.04
   0 -14  -6  261.82    9.74
   0 -14  -6  279.09    7.88
   0 -14   7  199.17    6.70
   0 -14   7  214.40    8.84
   0 -14  -7  211.57    7.00
   0 -14  -7  204.44    8.45
   0 -14   8   41.02    2.87
   0 -14   8   46.23    4.01
   0 -14  -8   39.29    3.53
   0 -14  -8   36.31    2.78
   0 -14   9  264.12    9.07
   0 -14   9  279.34   10.79
   0 -14  -9  274.90   10.45
   0 -14  -9  275.14    9.26
   0 -14  10   63.71    4.13
   0 -14  10   68.73    5.11
   0 -14 -10   63.12    4.75
   0 -14 -10   57.73    4.01
   0 -14  11  156.57    7.21
   0 -14 -11  164.77    8.13
   0 -14 -11  169.53    7.49
   0 -14 -12   40.44    4.14
   0 -14 -12   43.25    3.79
   0 -14 -13   40.42    3.90
   0 -14 -14    3.64    1.72
   0 -14 -15   36.28    4.09
   0 -14 -16    1.72    2.01
   0 -14 -17   11.00    2.60
   0 -14 -18   -0.20    1.80
   0 -13   0    2.13    1.25
   0 -13   1   32.58    2.87
   0 -13  -1   26.18    2.61
   0 -13   2    9.59    1.76
   0 -13  -2   14.94    2.02
   0 -13   3   14.94    0.78
   0 -13   3   12.40    1.94
   0 -13  -3   13.93    0.85
   0 -13  -3   12.74    1.91
   0 -13   4   96.36    3.13
   0 -13  -4   94.98    5.06
   0 -13   4   94.13    5.10
   0 -13  -4   94.69    3.23
   0 -13   5   55.85    2.58
   0 -13   5   57.01    4.01
   0 -13  -5   59.32    2.76
   0 -13  -5   55.88    3.85
   0 -13   6   71.72    3.32
   0 -13   6   73.46    4.68
   0 -13  -6   68.29    3.33
   0 -13  -6   75.43    4.57
   0 -13   7   47.36    2.88
   0 -13   7   42.76    3.62
   0 -13  -7   45.60    3.62
   0 -13  -7   40.94    2.76
   0 -13   8   10.25    1.55
   0 -13  -8   11.16    1.64
   0 -13   8   10.96    1.76
   0 -13   8   10.71    2.06
   0 -13  -8    8.63    1.82
   0 -13   9   53.94    3.58
   0 -13   9   58.29    3.64
   0 -13  -9   57.83    3.74
   0 -13  -9   54.29    4.17
   0 -13  10   11.88    1.91
   0 -13  10   10.43    1.72
   0 -13 -10   11.21    1.83
   0 -13 -10   12.03    2.08
   0 -13  11  148.80    6.86
   0 -13  11  135.55    6.50
   0 -13 -11  151.72    7.60
   0 -13 -11  147.14    6.88
   0 -13 -12    6.66    1.73
   0 -13 -13   36.83    3.71
   0 -13 -14   33.91    3.73
   0 -13 -15   12.24    2.69
   0 -13 -16   23.16    3.60
   0 -13 -17   17.40    3.30
   0 -13 -18   12.90    3.26
   0 -12   0  877.08   21.33
   0 -12   1   94.85    4.76
   0 -12  -1  101.95    4.94
   0 -12   2 1090.04   25.84
   0 -12  -2 1111.52   25.86
   0 -12   3   87.67    2.59
   0 -12  -3   88.93    4.65
   0 -12   3   95.10    4.83
   0 -12  -3   86.45    2.69
   0 -12   4  194.95    5.37
   0 -12   4  197.71    7.62
   0 -12  -4  202.09    7.56
   0 -12  -4  204.64    5.58
   0 -12   5   68.20    2.96
   0 -12   5   66.70    4.18
   0 -12  -5   70.21    3.08
   0 -12  -5   75.65    4.36
   0 -12   6  298.06    8.25
   0 -12   6  286.21    8.27
   0 -12   6  281.18    9.97
   0 -12  -6  303.35    8.49
   0 -12  -6  298.40    9.95
   0 -12   7   74.53    3.63
   0 -12   7   72.76    4.61
   0 -12  -7   72.69    4.48
   0 -12  -7   67.70    3.60
   0 -12   8  328.37    9.83
   0 -12  -8  329.44   10.02
   0 -12  -8  329.20   11.08
   0 -12   9   38.80    3.01
   0 -12  -9   44.77    3.27
   0 -12  -9   39.52    3.51
   0 -12  10   45.51    3.47
   0 -12 -10   45.29    3.86
   0 -12 -10   41.78    3.34
   0 -12  11   25.04    2.70
   0 -12 -11   27.08    2.93
   0 -12 -11   23.42    2.92
   0 -12 -12   34.89    3.45
   0 -12 -13    5.76    1.63
   0 -12 -14   15.10    2.74
   0 -12 -15    8.78    2.22
   0 -12 -16   -0.52    1.59
   0 -12 -17    3.79    1.94
   0 -12 -18   -0.80    1.88
   0 -11   0    2.60    1.16
   0 -11   1  119.87    5.22
   0 -11  -1  116.68    5.17
   0 -11   2  197.51    7.16
   0 -11  -2  201.69    7.17
   0 -11  -2  196.30    4.38
   0 -11   3   25.83    1.28
   0 -11   3   25.07    2.41
   0 -11  -3   27.23    1.38
   0 -11  -3   25.56    2.37
   0 -11   4   55.55    2.37
   0 -11   4   56.27    3.60
   0 -11  -4   54.82    3.49
   0 -11  -4   52.68    2.37
   0 -11   5  128.85    4.41
   0 -11   5  133.10    5.94
   0 -11  -5  128.94    5.74
   0 -11  -5  133.98    4.59
   0 -11   6   90.03    3.86
   0 -11   6   97.12    5.07
   0 -11  -6   99.68    4.12
   0 -11  -6  102.68    5.03
   0 -11   7  206.24    6.84
   0 -11  -7  206.82    7.01
   0 -11  -7  210.48    7.95
   0 -11   8   55.08    3.34
   0 -11  -8   54.51    3.42
   0 -11  -8   51.60    3.78
   0 -11   9  195.80    7.37
   0 -11  -9  201.28    7.54
   0 -11  -9  195.90    8.03
   0 -11  10   34.51    2.97
   0 -11 -10   35.31    3.14
   0 -11 -10   41.28    3.55
   0 -11  11  120.44    6.08
   0 -11 -11  122.90    6.25
   0 -11 -12   39.75    3.62
   0 -11 -13   49.51    4.28
   0 -11 -14    8.86    2.15
   0 -11 -15   28.06    3.68
   0 -11 -16    1.00    1.58
   0 -11 -17   51.20    5.22
   0 -11 -18    2.55    1.61
   0 -10   0 3440.72   70.03
   0 -10  -1  787.09   18.73
   0 -10   1  772.21   18.67
   0 -10   2 1267.71   25.16
   0 -10  -2 1285.31   28.44
   0 -10   2 1294.86   28.56
   0 -10  -2 1277.46   25.29
   0 -10   3  278.96    6.74
   0 -10   3  273.46    8.84
   0 -10  -3  288.79    8.86
   0 -10  -3  289.87    6.88
   0 -10   4  652.40   14.70
   0 -10   4  708.51   17.17
   0 -10  -4  663.44   14.88
   0 -10  -4  682.16   16.83
   0 -10   5  573.12   13.37
   0 -10  -5  576.15   13.54
   0 -10   5  545.19   15.02
   0 -10  -5  579.32   15.03
   0 -10  -6  928.90   20.65
   0 -10   6  876.20   20.31
   0 -10  -6  916.14   21.88
   0 -10  -7  403.19   11.19
   0 -10   7  406.57   11.06
   0 -10  -7  408.03   12.06
   0 -10   8  507.92   13.47
   0 -10  -8  482.93   13.48
   0 -10  -8  508.59   14.32
   0 -10   9  151.47    6.30
   0 -10  -9  153.10    6.44
   0 -10  -9  155.03    6.79
   0 -10 -10  293.62   10.20
   0 -10  10  301.38   10.16
   0 -10 -10  307.78   10.65
   0 -10 -11  162.47    7.25
   0 -10  11  152.12    7.02
   0 -10 -12   30.27    3.25
   0 -10 -13   47.49    4.19
   0 -10 -14   27.95    3.41
   0 -10 -15   28.76    3.67
   0 -10 -16    6.28    2.28
   0 -10 -17    0.46    1.68
   0 -10 -18    6.13    2.22
   0  -9   0    0.63    0.81
   0  -9  -1   11.19    1.59
   0  -9   1    9.74    1.49
   0  -9   2   11.87    0.72
   0  -9   2   12.17    1.56
   0  -9  -2   13.57    0.81
   0  -9  -2   13.04    1.65
   0  -9   3    3.27    0.57
   0  -9  -3    2.19    0.54
   0  -9   3    3.69    1.15
   0  -9  -3    4.97    1.19
   0  -9   4   72.79    2.82
   0  -9  -4   70.33    2.87
   0  -9   4   70.93    3.81
   0  -9  -4   73.48    3.75
   0  -9  -5   16.26    1.48
   0  -9   5   16.80    1.44
   0  -9  -5   14.40    1.74
   0  -9   6    8.70    1.21
   0  -9  -6   10.20    1.31
   0  -9  -6   11.54    1.63
   0  -9   7   43.81    2.78
   0  -9  -7   38.22    2.68
   0  -9  -7   40.95    3.03
   0  -9   8   89.80    4.42
   0  -9  -8   85.91    4.43
   0  -9   8  101.27    4.99
   0  -9  -8   91.78    4.81
   0  -9   9   24.88    2.43
   0  -9  -9   22.22    2.37
   0  -9   9   27.84    2.63
   0  -9  -9   20.14    2.40
   0  -9 -10  196.77    7.89
   0  -9  10  197.99    7.82
   0  -9  10  206.18    8.05
   0  -9  11   21.11    2.50
   0  -9 -11   19.44    2.45
   0  -9 -12  123.24    6.54
   0  -9 -13    0.33    1.14
   0  -9 -14   10.45    2.41
   0  -9 -15   15.12    2.72
   0  -9 -16   23.87    3.51
   0  -9 -17    3.11    1.98
   0  -9 -18   29.29    4.21
   0  -8   0   75.07    3.46
   0  -8  -1 1067.02   23.44
   0  -8   1 1050.32   23.42
   0  -8   2  294.00    6.56
   0  -8   2  296.79    6.60
   0  -8   2  295.91    8.52
   0  -8  -2  312.16    8.59
   0  -8  -2  295.37    6.67
   0  -8   3  529.24   11.69
   0  -8  -3  526.24   11.81
   0  -8  -3  544.97   13.41
   0  -8   3  554.09   13.57
   0  -8   4  239.45    6.47
   0  -8  -4  240.80    6.60
   0  -8  -4  254.03    7.66
   0  -8   5  275.80    7.56
   0  -8  -5  273.23    7.66
   0  -8  -5  270.63    8.33
   0  -8  -6   44.43    2.67
   0  -8   6   41.99    2.55
   0  -8  -6   46.67    3.01
   0  -8  -7  833.74   19.62
   0  -8   7  812.93   19.39
   0  -8   7  826.57   19.98
   0  -8  -7  823.95   19.95
   0  -8   8   41.77    2.92
   0  -8  -8   37.25    2.85
   0  -8   8   43.94    3.11
   0  -8  -8   36.50    2.95
   0  -8   9  409.05   12.14
   0  -8  -9  392.59   12.06
   0  -8   9  436.80   12.43
   0  -8 -10   42.04    3.36
   0  -8  10   37.97    3.16
   0  -8  10   47.09    3.47
   0  -8 -11   67.64    4.53
   0  -8  11   68.87    4.50
   0  -8  11   65.75    4.32
   0  -8 -12   29.21    3.08
   0  -8 -13  106.18    6.30
   0  -8 -14   22.32    3.10
   0  -8 -15    8.38    2.30
   0  -8 -16    7.97    2.52
   0  -8 -17    7.94    2.33
   0  -8 -18    2.16    1.96
   0  -7   0   -0.08    0.70
   0  -7   1    6.46    1.11
   0  -7  -1    5.55    1.03
   0  -7  -2  121.23    3.29
   0  -7   2  122.68    3.21
   0  -7  -2  131.50    4.60
   0  -7   2  118.72    4.50
   0  -7  -3   79.58    2.81
   0  -7   3   80.70    2.75
   0  -7   3   85.66    3.71
   0  -7  -3   85.36    3.65
   0  -7   4   89.60    3.28
   0  -7  -4   83.83    3.27
   0  -7  -4   93.79    3.92
   0  -7   5   40.48    2.27
   0  -7  -5   37.07    2.27
   0  -7  -5   41.54    2.62
   0  -7   6   39.24    2.48
   0  -7  -6   41.15    2.57
   0  -7   6   41.46    2.72
   0  -7  -6   42.28    2.79
   0  -7   7   55.42    3.15
   0  -7  -7   51.29    3.12
   0  -7   7   53.93    3.27
   0  -7  -7   51.51    3.27
   0  -7   8  174.32    6.60
   0  -7  -8  176.35    6.72
   0  -7   8  185.32    6.81
   0  -7  -8  176.65    6.77
   0  -7  -9  294.73    9.65
   0  -7   9  274.04    9.34
   0  -7   9  292.26    9.43
   0  -7 -10  164.11    7.07
   0  -7  10  169.89    7.08
   0  -7  10  169.10    6.91
   0  -7  11  163.60    7.21
   0  -7 -11  156.16    7.18
   0  -7  11  158.20    6.86
   0  -7 -12    5.95    1.62
   0  -7 -13   63.06    4.75
   0  -7 -14   40.84    4.04
   0  -7 -15   24.19    3.28
   0  -7 -16   15.88    2.88
   0  -7 -17   20.19    3.40
   0  -7 -18   13.48    3.01
   0  -7 -19   39.96    4.97
   0  -6   0 1341.57   28.06
   0  -6   1   85.80    3.37
   0  -6  -1   84.73    3.34
   0  -6   2  342.23    7.64
   0  -6  -2  338.55    7.71
   0  -6   2  367.04    9.09
   0  -6  -2  367.48    9.04
   0  -6  -3  193.27    5.16
   0  -6   3  186.68    5.03
   0  -6  -3  195.62    5.90
   0  -6   4  148.95    4.67
   0  -6  -4  157.40    4.84
   0  -6  -4  162.34    5.28
   0  -6   5   96.00    3.79
   0  -6  -5  103.52    3.97
   0  -6   5   97.39    4.03
   0  -6  -5   96.85    4.05
   0  -6  -6  184.81    6.25
   0  -6   6  183.07    6.14
   0  -6   6  194.43    6.39
   0  -6  -6  194.34    6.47
   0  -6  -7   49.02    3.03
   0  -6   7   44.88    2.89
   0  -6   7   47.21    2.93
   0  -6  -7   49.96    3.05
   0  -6   8  252.28    8.49
   0  -6  -8  274.24    8.80
   0  -6   8  272.23    8.57
   0  -6   9  160.47    6.56
   0  -6  -9  162.08    6.69
   0  -6   9  160.01    6.35
   0  -6  10  225.97    8.44
   0  -6 -10  220.80    8.43
   0  -6  10  220.96    8.08
   0  -6  11    3.46    1.25
   0  -6 -11    4.12    1.55
   0  -6  11    8.27    1.58
   0  -6 -12   32.16    3.29
   0  -6 -13   13.58    2.38
   0  -6 -14  126.11    7.21
   0  -6 -15    0.74    1.44
   0  -6 -16   11.35    2.66
   0  -6 -17    2.11    1.83
   0  -6 -18    4.43    1.91
   0  -6 -19    1.56    1.65
   0  -5   0    1.60    0.67
   0  -5  -1 1904.88   40.17
   0  -5   1 2083.84   40.33
   0  -5  -2  175.40    4.45
   0  -5   2  177.28    4.39
   0  -5   2  183.31    5.32
   0  -5  -2  186.52    5.28
   0  -5   3  175.16    4.83
   0  -5  -3  182.46    4.94
   0  -5  -3  183.46    5.44
   0  -5   4  248.44    6.70
   0  -5  -4  249.97    6.78
   0  -5   4  258.04    7.07
   0  -5  -4  248.14    7.03
   0  -5   5   50.03    2.58
   0  -5  -5   50.06    2.63
   0  -5   5   50.51    2.64
   0  -5  -5   50.85    2.70
   0  -5   6    3.80    0.92
   0  -5  -6    2.26    0.82
   0  -5   6    2.26    0.73
   0  -5  -6    4.57    1.10
   0  -5   7   86.67    4.11
   0  -5  -7   88.38    4.23
   0  -5   7   90.96    4.10
   0  -5   8    1.06    0.82
   0  -5  -8    1.29    0.92
   0  -5   8    0.82    0.79
   0  -5   9  629.37   16.55
   0  -5  -9  632.51   16.65
   0  -5   9  613.13   15.99
   0  -5  10   12.03    1.86
   0  -5 -10   13.22    2.05
   0  -5  10    9.78    1.64
   0  -5 -11  242.26    9.37
   0  -5  11  257.72    9.51
   0  -5  11  257.33    8.98
   0  -5 -12   23.08    2.90
   0  -5  12   24.02    2.58
   0  -5 -13   56.75    4.51
   0  -5 -14    9.06    2.13
   0  -5 -15   24.74    3.35
   0  -5 -16    4.32    1.89
   0  -5 -17   60.57    5.51
   0  -5 -18    0.82    1.49
   0  -5 -19   22.42    3.76
   0  -4   0 1429.92   28.99
   0  -4   1 2688.82   52.75
   0  -4  -1 2632.33   52.67
   0  -4  -2   72.51    2.27
   0  -4   2   65.85    2.17
   0  -4  -2   74.31    2.71
   0  -4  -3   69.68    2.63
   0  -4   3   71.27    2.60
   0  -4   3   72.77    2.81
   0  -4  -3   72.53    2.83
   0  -4  -4  114.45    3.97
   0  -4   4  114.16    3.92
   0  -4   4  119.76    4.02
   0  -4  -4  120.62    4.08
   0  -4   5   36.15    2.19
   0  -4  -5   38.66    2.28
   0  -4   5   37.78    2.18
   0  -4  -5   38.85    2.30
   0  -4  -6  102.76    4.33
   0  -4   6  100.72    4.21
   0  -4   6  109.24    4.21
   0  -4  -7  214.50    7.27
   0  -4   7  220.59    7.30
   0  -4   7  222.50    7.02
   0  -4   8   66.81    3.81
   0  -4  -8   63.85    3.78
   0  -4   9   49.60    3.41
   0  -4  -9   45.98    3.33
   0  -4  10   70.97    4.40
   0  -4 -10   69.96    4.37
   0  -4  11   87.35    5.08
   0  -4 -11   84.19    5.06
   0  -4 -12   -1.01    1.01
   0  -4 -13   34.83    3.54
   0  -4 -14   40.52    3.97
   0  -4 -15   22.72    3.21
   0  -4 -16    1.15    1.71
   0  -4 -17    4.50    2.01
   0  -4 -18    6.78    2.21
   0  -4 -19    3.70    2.25
   0  -3   0    2.99    0.50
   0  -3  -1  143.70    3.91
   0  -3   1  150.08    3.94
   0  -3  -2   16.52    0.99
   0  -3   2   16.68    0.97
   0  -3   2   17.63    1.11
   0  -3  -2   16.86    1.14
   0  -3   3  180.99    4.98
   0  -3  -3  186.74    5.08
   0  -3   3  184.52    5.04
   0  -3  -3  192.72    5.14
   0  -3   4    4.64    0.78
   0  -3  -4    1.36    0.65
   0  -3   4    2.53    0.68
   0  -3  -4    2.98    0.80
   0  -3  -5  154.70    5.19
   0  -3   5  150.96    5.06
   0  -3   6    4.95    1.06
   0  -3  -6    3.05    0.96
   0  -3  -7   22.92    2.07
   0  -3   7   24.93    2.12
   0  -3  -8  145.71    5.92
   0  -3   8  140.96    5.82
   0  -3  -9   58.51    3.80
   0  -3   9   63.71    3.92
   0  -3  10  442.48   13.25
   0  -3 -10  444.55   13.35
   0  -3  11    3.03    1.19
   0  -3 -11    2.57    1.17
   0  -3 -12   60.12    4.43
   0  -3 -13   10.83    2.36
   0  -3 -14   62.76    4.97
   0  -3 -15    6.59    1.92
   0  -3 -16   49.00    4.87
   0  -3 -17    2.32    1.77
   0  -3 -18   50.71    5.27
   0  -3 -19   -0.15    1.57
   0  -2  -1 2239.89   43.87
   0  -2  -2  574.75   12.29
   0  -2   2  545.63   12.18
   0  -2   2  593.51   12.28
   0  -2  -2  612.82   12.33
   0  -2  -3  116.22    3.68
   0  -2   3  120.49    3.69
   0  -2  -3  122.43    3.63
   0  -2   4  761.81   16.94
   0  -2  -4  781.26   17.04
   0  -2  -5   66.26    3.10
   0  -2   5   65.13    3.02
   0  -2  -6    9.18    1.31
   0  -2   6    7.60    1.20
   0  -2   7  811.51   19.33
   0  -2  -7  817.99   19.41
   0  -2  -8   25.45    2.45
   0  -2   8   23.03    2.25
   0  -2   9  870.79   21.09
   0  -2  -9  818.01   20.86
   0  -2  10   16.97    2.20
   0  -2 -10   17.87    2.36
   0  -2 -11  150.10    7.02
   0  -2  11  162.64    7.17
   0  -2 -12   -0.06    1.20
   0  -2 -13  266.96   10.63
   0  -2 -14   11.52    2.42
   0  -2 -15   59.00    5.06
   0  -2 -16    5.23    1.96
   0  -2 -17   16.08    2.97
   0  -2 -18   -0.29    1.62
   0  -2 -19    4.60    2.26
   0  -1  -2   88.43    2.62
   0  -1   2   81.46    2.52
   0  -1  -3  224.86    5.91
   0  -1   3  234.38    5.94
   0  -1  -4  617.08   13.97
   0  -1   4  607.91   13.89
   0  -1   5  952.33   21.27
   0  -1  -5  985.26   21.43
   0  -1  -6   37.80    2.54
   0  -1   6   34.53    2.38
   0  -1   7  173.06    6.23
   0  -1  -7  168.91    6.21
   0  -1  -8    9.29    1.62
   0  -1   8    9.54    1.54
   0  -1   9  453.81   13.12
   0  -1  -9  459.48   13.21
   0  -1 -10   45.49    3.54
   0  -1  10   49.27    3.58
   0  -1 -11  236.46    9.21
   0  -1  11  254.98    9.43
   0  -1 -12   28.04    3.14
   0  -1 -13    6.67    1.96
   0  -1 -14    3.58    1.76
   0  -1 -15   59.65    5.10
   0  -1 -16   22.40    3.29
   0  -1 -17   21.74    3.54
   0  -1 -18   17.69    3.32
   0  -1 -19   33.55    4.56
   0   0  -2 3227.57   63.74
   0   0   2 3290.46   63.69
   0   0   3   18.96    1.27
   0   0  -3   21.19    1.35
   0   0   4 9999.00  193.74
   0   0  -4 9958.59  193.79
   0   0   5    0.60    0.66
   0   0  -5    0.80    0.87
   0   0   6 3714.85   75.32
   0   0  -6 3773.95   75.35
   0   0   7    5.93    1.26
   0   0  -7    7.30    1.33
   0   0  -8 2106.04   45.38
   0   0   8 2149.05   45.41
   0   0   9    4.80    1.29
   0   0  -9    6.95    1.55
   0   0 -10 1057.19   25.59
   0   0  10 1045.05   25.47
   0   0 -11    1.56    1.25
   0   0  11    1.15    1.17
   0   0 -12  256.92   10.01
   0   0 -13    3.07    1.54
   0   0 -14  192.56    9.00
   0   0 -15    1.93    1.35
   0   0 -16   55.76    5.07
   0   0 -17    5.96    2.14
   0   0 -18    7.50    2.47
   0   0 -19   -3.00    2.19
   0   1   2   76.72    2.43
   0   1  -2   80.76    2.48
   0   1   2   83.70    2.40
   0   1  -3  232.61    5.96
   0   1   3  229.17    5.91
   0   1  -4  641.52   14.30
   0   1   4  615.65   14.17
   0   1  -5  977.31   21.39
   0   1   5  958.34   21.29
   0   1  -6   34.52    2.42
   0   1   6   31.91    2.31
   0   1   7  158.13    6.02
   0   1  -7  176.39    6.25
   0   1   8   10.98    1.65
   0   1  -8   12.67    1.89
   0   1   9  459.87   13.09
   0   1  -9  443.79   13.01
   0   1 -10   39.95    3.35
   0   1  10   49.26    3.61
   0   1 -11  243.41    9.37
   0   1  11  250.76    9.38
   0   1 -12   24.48    2.87
   0   1 -13    5.84    1.92
   0   1 -14    2.53    1.46
   0   1 -15   61.89    5.16
   0   1 -16   17.29    2.98
   0   1 -17   26.81    3.76
   0   1 -18   17.48    3.20
   0   1 -19   38.81    4.72
   0   2   0 1757.27   34.51
   0   2   1 2223.91   43.97
   0   2  -1 2265.43   43.96
   0   2  -2  559.30   12.04
   0   2   2  536.36   12.01
   0   2  -2  595.41   12.12
   0   2   2  595.87   12.13
   0   2  -3  119.60    3.76
   0   2   3  128.34    3.82
   0   2   3  127.77    3.73
   0   2  -4  752.87   16.99
   0   2   4  760.96   16.98
   0   2   4  801.92   16.79
   0   2  -5   72.62    3.26
   0   2   5   69.26    3.14
   0   2   5   71.04    2.98
   0   2   6    7.63    1.23
   0   2  -6    8.27    1.27
   0   2   6    6.40    1.05
   0   2   7  820.54   19.52
   0   2  -7  797.61   19.38
   0   2   7  838.85   18.96
   0   2  -8   24.40    2.34
   0   2   8   25.04    2.36
   0   2   8   26.68    2.19
   0   2  -9  867.61   21.52
   0   2   9  862.24   21.49
   0   2   9  886.65   20.83
   0   2 -10   13.52    1.98
   0   2  10   13.12    1.95
   0   2  10   18.14    2.03
   0   2  11  158.34    7.13
   0   2 -11  155.96    7.14
   0   2  11  160.71    6.70
   0   2 -12    0.87    1.29
   0   2  12   -0.82    0.96
   0   2 -13  256.81   10.35
   0   2 -14   12.84    2.46
   0   2 -15   65.86    5.33
   0   2 -16   11.29    2.63
   0   2 -17   15.72    3.05
   0   2 -18    3.01    1.99
   0   2 -19    4.88    2.27
   0   3   0    3.29    0.52
   0   3   1  138.31    3.74
   0   3   2   16.52    0.97
   0   3  -2   16.65    0.97
   0   3   2   16.75    1.10
   0   3  -2   17.69    1.14
   0   3   3  175.55    4.84
   0   3  -3  175.32    4.87
   0   3   3  183.20    4.96
   0   3  -4    2.37    0.72
   0   3   4    1.94    0.63
   0   3   4    2.00    0.65
   0   3  -5  150.16    5.11
   0   3   5  155.62    5.16
   0   3   5  158.95    5.01
   0   3  -6    5.75    1.18
   0   3   6    2.78    0.88
   0   3   6    3.39    0.87
   0   3  -7   23.13    2.17
   0   3   7   19.56    1.92
   0   3   7   23.05    1.92
   0   3   8  135.93    5.75
   0   3  -8  139.11    5.79
   0   3   8  145.52    5.52
   0   3   9   61.76    3.87
   0   3  -9   60.99    3.82
   0   3   9   61.67    3.60
   0   3  10  456.40   13.53
   0   3 -10  441.24   13.44
   0   3  10  469.44   13.01
   0   3  11    7.06    1.59
   0   3 -11    4.81    1.39
   0   3  11    1.04    0.84
   0   3 -12   62.71    4.51
   0   3  12   59.67    4.07
   0   3 -13   13.29    2.38
   0   3 -14   64.33    4.96
   0   3 -15    0.89    1.41
   0   3 -16   56.08    5.08
   0   3 -17    4.99    2.03
   0   3 -18   67.26    6.02
   0   3 -19    0.53    1.58
   0   4   0 1458.27   29.56
   0   4   1 2478.38   49.18
   0   4  -2   68.86    2.22
   0   4   2   63.23    2.16
   0   4   2   73.54    2.69
   0   4  -2   74.10    2.69
   0   4   3   72.27    2.64
   0   4  -3   68.52    2.60
   0   4  -3   75.16    2.88
   0   4   3   79.96    2.96
   0   4  -4  114.67    3.91
   0   4   4  112.30    3.87
   0   4   4  115.03    3.97
   0   4   5   36.72    2.21
   0   4  -5   33.89    2.15
   0   4   5   31.47    2.06
   0   4   6   97.54    4.16
   0   4  -6  103.84    4.31
   0   4   6  104.75    4.15
   0   4  -7  227.96    7.42
   0   4   7  211.78    7.29
   0   4   7  227.75    7.13
   0   4  -8   65.39    3.79
   0   4   8   64.97    3.74
   0   4   8   68.08    3.60
   0   4  -9   44.02    3.26
   0   4   9   51.02    3.44
   0   4   9   38.98    2.93
   0   4 -10   68.72    4.35
   0   4  10   73.80    4.44
   0   4  10   69.69    4.09
   0   4  11   82.92    4.96
   0   4 -11   72.18    4.69
   0   4  11   82.87    4.64
   0   4 -12   -0.87    1.15
   0   4 -13   37.14    3.60
   0   4 -14   43.05    4.12
   0   4 -15   27.11    3.42
   0   4 -16    1.21    1.51
   0   4 -17    2.43    1.68
   0   4 -18    4.79    2.01
   0   4 -19   -0.06    1.61
   0   5   0    0.45    0.56
   0   5   1 1875.79   38.54
   0   5  -1 1936.72   38.64
   0   5  -2  177.46    4.46
   0   5   2  178.57    4.48
   0   5   2  188.55    5.35
   0   5  -2  193.66    5.35
   0   5   3  173.09    4.85
   0   5  -3  182.59    4.93
   0   5   3  183.34    5.43
   0   5  -3  187.58    5.44
   0   5   4  237.12    6.59
   0   5  -4  240.88    6.64
   0   5  -4  252.91    7.01
   0   5   4  259.39    7.07
   0   5  -5   50.23    2.62
   0   5   5   50.39    2.60
   0   5   5   50.72    2.70
   0   5   6    1.78    0.74
   0   5  -6    3.49    1.00
   0   5   6    2.62    0.77
   0   5  -7   87.73    4.17
   0   5   7   90.23    4.19
   0   5   7   91.45    4.13
   0   5  -8    0.07    0.82
   0   5   8    1.33    0.86
   0   5   8    0.94    0.77
   0   5  -9  622.75   16.40
   0   5   9  597.60   16.22
   0   5   9  613.90   15.91
   0   5  10    8.48    1.66
   0   5 -10    9.68    1.75
   0   5  10    8.12    1.45
   0   5  11  257.11    9.55
   0   5 -11  242.31    9.35
   0   5  11  258.64    9.09
   0   5 -12   27.68    3.06
   0   5 -13   54.19    4.44
   0   5 -14   12.87    2.45
   0   5 -15   26.71    3.56
   0   5 -16    1.37    1.51
   0   5 -17   68.21    5.90
   0   5 -18    4.22    2.22
   0   5 -19   18.39    3.30
   0   6   0 1284.69   26.99
   0   6  -1   85.16    3.37
   0   6   1   88.90    3.39
   0   6  -2  351.18    7.75
   0   6   2  344.41    7.76
   0   6   2  369.32    9.09
   0   6   3  188.45    5.11
   0   6  -3  192.08    5.13
   0   6   3  195.30    5.91
   0   6  -3  200.61    5.94
   0   6   4  157.21    4.79
   0   6  -4  152.58    4.77
   0   6  -4  156.56    5.23
   0   6   4  164.46    5.36
   0   6   5   89.98    3.70
   0   6  -5   95.38    3.80
   0   6   5  107.31    4.22
   0   6  -5  100.07    4.06
   0   6   6  188.75    6.28
   0   6  -6  193.14    6.34
   0   6   6  195.35    6.51
   0   6   7   47.56    2.98
   0   6  -7   48.91    3.01
   0   6   7   49.66    3.07
   0   6  -8  266.25    8.72
   0   6   8  270.65    8.78
   0   6   8  274.22    8.72
   0   6   9  152.07    6.39
   0   6  -9  153.24    6.43
   0   6   9  156.26    6.32
   0   6  10  217.84    8.33
   0   6 -10  221.54    8.39
   0   6  10  218.84    8.13
   0   6 -11    6.05    1.65
   0   6  11    1.21    0.99
   0   6  11    3.30    1.22
   0   6 -12   30.40    3.19
   0   6 -13   18.83    2.73
   0   6 -14  121.28    7.01
   0   6 -15    2.72    1.55
   0   6 -16   11.22    2.43
   0   6 -17    2.64    1.49
   0   6 -18    7.75    2.45
   0   6 -19    8.12    2.53
   0   7   0    0.19    0.65
   0   7   1    7.15    1.04
   0   7  -1    5.65    0.96
   0   7   2  127.24    3.36
   0   7   2  132.24    4.65
   0   7  -2  125.16    3.31
   0   7   3   81.36    2.81
   0   7  -3   81.25    2.80
   0   7   3   87.86    3.71
   0   7  -3   84.95    3.62
   0   7  -4   83.39    3.18
   0   7   4   84.83    3.20
   0   7   4   89.02    3.86
   0   7  -4   87.13    3.78
   0   7   5   36.27    2.19
   0   7  -5   36.39    2.20
   0   7  -5   40.46    2.59
   0   7   5   39.43    2.56
   0   7  -6   43.50    2.60
   0   7   6   38.35    2.47
   0   7   6   39.98    2.69
   0   7  -7   52.02    3.11
   0   7   7   49.76    3.03
   0   7   7   55.85    3.31
   0   7   8  175.38    6.68
   0   7  -8  176.93    6.69
   0   7   8  191.79    7.01
   0   7   9  266.83    9.23
   0   7  -9  288.91    9.50
   0   7   9  298.24    9.62
   0   7 -10  158.87    6.94
   0   7  10  166.21    7.07
   0   7  10  183.73    7.26
   0   7  11  163.30    7.26
   0   7 -11  152.70    7.03
   0   7 -12    9.16    1.80
   0   7 -13   65.79    4.87
   0   7 -14   43.81    4.16
   0   7 -15   28.90    3.59
   0   7 -16   26.31    3.54
   0   7 -17   15.10    2.92
   0   7 -18   13.38    3.00
   0   7 -19   33.77    4.57
   0   8   0   77.50    3.52
   0   8   1 1033.29   22.64
   0   8  -1  997.04   22.57
   0   8   2  298.07    6.67
   0   8   2  280.95    8.37
   0   8  -2  300.76    6.62
   0   8   3  537.32   11.91
   0   8  -3  539.40   13.47
   0   8   3  564.47   13.67
   0   8  -3  538.26   11.89
   0   8  -4  249.19    6.57
   0   8   4  239.02    6.52
   0   8   4  242.60    7.64
   0   8  -4  241.98    7.50
   0   8   5  281.12    7.76
   0   8  -5  276.04    7.71
   0   8   5  289.72    8.71
   0   8  -5  283.25    8.54
   0   8  -6   42.54    2.61
   0   8   6   41.85    2.56
   0   8   6   42.30    2.90
   0   8  -6   43.87    2.90
   0   8  -7  833.50   19.76
   0   8   7  825.17   19.72
   0   8   7  860.04   20.48
   0   8   8   38.53    2.81
   0   8  -8   34.23    2.71
   0   8   8   39.46    3.03
   0   8   9  405.85   12.13
   0   8  -9  397.60   12.06
   0   8   9  438.85   12.60
   0   8  10   43.69    3.42
   0   8 -10   43.43    3.44
   0   8  10   50.39    3.67
   0   8  11   73.15    4.63
   0   8 -11   60.44    4.35
   0   8 -12   35.92    3.43
   0   8 -13  111.20    6.41
   0   8 -14   18.89    2.75
   0   8 -15   14.08    2.60
   0   8 -16   14.81    2.80
   0   8 -17    2.25    1.65
   0   8 -18    4.67    2.99
   0   8 -19    5.87    2.35
   0   9   0    0.73    0.72
   0   9  -1    8.56    1.34
   0   9   1    8.94    1.37
   0   9   2   12.01    0.74
   0   9   2   11.23    1.47
   0   9  -2   13.00    0.75
   0   9  -3    2.77    0.57
   0   9   3    3.56    0.59
   0   9   3    3.36    0.59
   0   9  -3    3.89    1.13
   0   9   3    1.70    0.78
   0   9   4   69.90    2.82
   0   9  -4   77.03    3.82
   0   9   4   75.28    3.84
   0   9  -4   72.07    2.85
   0   9   5   17.91    1.54
   0   9  -5   14.96    1.41
   0   9  -5   15.38    1.84
   0   9   5   17.45    1.91
   0   9  -6    9.86    1.31
   0   9   6   10.71    1.36
   0   9  -6   11.99    1.65
   0   9   6   10.02    1.53
   0   9   7   38.89    2.69
   0   9  -7   40.69    2.74
   0   9   7   44.17    3.16
   0   9   8   95.68    4.57
   0   9  -8   94.12    4.57
   0   9   8   91.74    4.83
   0   9   9   25.82    2.47
   0   9  -9   19.01    2.17
   0   9   9   22.66    2.44
   0   9  10  201.07    7.87
   0   9 -10  196.09    7.80
   0   9 -11   20.61    2.61
   0   9  11   22.26    2.61
   0   9 -12  118.06    6.38
   0   9 -13    3.41    1.50
   0   9 -14    7.12    1.97
   0   9 -15   13.34    2.50
   0   9 -16   21.40    3.29
   0   9 -17    6.70    2.22
   0   9 -18   34.80    4.35
   0  10   0 3513.48   71.56
   0  10   1  763.65   18.35
   0  10  -1  742.31   18.18
   0  10   2 1292.75   25.14
   0  10   2 1329.30   28.52
   0  10  -2 1237.98   25.02
   0  10   3  274.64    6.63
   0  10  -3  269.61    8.55
   0  10   3  284.94    8.79
   0  10  -3  272.23    6.56
   0  10   4  659.31   14.66
   0  10   4  654.23   14.70
   0  10  -4  664.01   16.62
   0  10   4  677.53   16.81
   0  10  -4  659.51   14.65
   0  10   5  575.59   13.68
   0  10   5  629.93   15.71
   0  10  -5  582.71   15.21
   0  10  -5  570.39   13.63
   0  10   6  900.11   20.56
   0  10   6  952.44   22.32
   0  10  -6  902.44   21.90
   0  10  -6  899.47   20.54
   0  10   7  407.18   11.27
   0  10   7  420.95   12.43
   0  10  -7  414.84   12.18
   0  10  -7  418.78   11.33
   0  10   8  490.62   13.52
   0  10   8  525.56   14.70
   0  10  -8  505.68   13.63
   0  10   9  149.55    6.30
   0  10   9  147.87    6.73
   0  10  -9  152.97    6.34
   0  10  10  300.57   10.20
   0  10 -10  298.34   10.14
   0  10  11  157.83    7.09
   0  10 -11  152.10    7.02
   0  10 -12   30.42    3.19
   0  10 -13   51.66    4.34
   0  10 -14   31.11    3.50
   0  10 -15   22.82    3.25
   0  10 -16   12.73    2.66
   0  10 -17    2.10    1.56
   0  10 -18    7.32    2.46
   0  11   0    2.16    1.06
   0  11   1  114.53    5.15
   0  11  -1  121.47    5.27
   0  11   2  201.87    7.26
   0  11   3   25.66    1.31
   0  11  -3   24.86    2.36
   0  11   3   26.14    2.41
   0  11  -3   24.95    1.26
   0  11   4   55.64    2.41
   0  11   4   58.57    3.64
   0  11  -4   52.99    3.44
   0  11  -4   56.26    2.40
   0  11   5  131.68    4.47
   0  11   5  125.42    4.45
   0  11  -5  125.28    5.60
   0  11   5  130.86    5.81
   0  11  -5  130.95    4.46
   0  11   6  100.91    4.13
   0  11   6  100.82    5.13
   0  11  -6   99.98    5.04
   0  11  -6  105.77    4.21
   0  11   7  207.69    6.90
   0  11  -7  197.02    7.70
   0  11   7  223.07    8.21
   0  11  -7  195.37    6.75
   0  11   8   50.26    3.26
   0  11   8   53.61    3.86
   0  11  -8   60.36    3.54
   0  11   9  194.95    7.43
   0  11  -9  208.00    7.62
   0  11  10   34.71    3.05
   0  11 -10   36.08    3.11
   0  11  11  121.37    6.17
   0  11 -11  120.61    6.13
   0  11 -12   40.30    3.73
   0  11 -13   51.26    4.31
   0  11 -14    6.53    2.06
   0  11 -15   26.69    3.55
   0  11 -16    4.85    2.09
   0  11 -17   55.06    5.32
   0  11 -18    0.93    2.14
   0  12   0  848.77   20.86
   0  12  -1  101.02    4.91
   0  12   1   95.94    4.85
   0  12   2 1130.52   26.44
   0  12   3   86.25    2.65
   0  12   3   88.51    4.66
   0  12  -3   88.16    2.60
   0  12   4  198.52    5.50
   0  12   4  211.31    7.79
   0  12  -4  199.11    7.54
   0  12  -4  206.11    5.51
   0  12   5   72.98    3.11
   0  12   5   71.66    4.29
   0  12  -5   63.57    4.01
   0  12  -5   74.55    3.12
   0  12   6  314.90    8.83
   0  12   6  303.27   10.40
   0  12  -6  322.19   10.45
   0  12  -6  316.48    8.76
   0  12   7   67.99    3.53
   0  12   7   71.11    3.65
   0  12   7   76.25    4.62
   0  12  -7   70.10    4.40
   0  12  -7   67.48    3.51
   0  12   8  323.95    9.88
   0  12  -8  334.70    9.97
   0  12   9   45.84    3.30
   0  12  -9   50.72    3.47
   0  12  10   46.79    3.50
   0  12 -10   46.49    3.49
   0  12  11   23.02    2.64
   0  12 -11   18.09    2.43
   0  12 -12   28.48    3.06
   0  12 -13    4.08    1.64
   0  12 -14   12.23    2.53
   0  12 -15    8.13    2.07
   0  12 -16    2.42    1.85
   0  12 -17    4.91    2.11
   0  12 -18    5.58    2.27
   0  13   0    0.67    1.00
   0  13  -1   24.03    2.48
   0  13   1   27.91    2.59
   0  13   2   10.92    1.85
   0  13   3   14.04    0.81
   0  13   3   14.10    1.85
   0  13  -3   14.51    0.77
   0  13   4   99.11    3.26
   0  13   4  106.38    5.35
   0  13  -4   86.63    4.87
   0  13  -4   97.39    3.19
   0  13   5   56.31    2.63
   0  13  -5   52.50    3.74
   0  13   5   63.80    4.14
   0  13  -5   58.02    2.65
   0  13   6   69.17    3.31
   0  13  -6   73.65    4.53
   0  13   6   74.89    4.58
   0  13  -6   70.23    3.32
   0  13   7   42.65    2.78
   0  13  -7   41.60    3.46
   0  13  -7   45.23    2.84
   0  13  -8    7.67    1.39
   0  13   8   12.95    1.75
   0  13  -8   12.40    2.01
   0  13   9   50.38    3.50
   0  13   9   54.40    3.56
   0  13  -9   53.56    3.56
   0  13  10   11.63    1.84
   0  13  10   15.97    2.16
   0  13 -10   11.58    1.94
   0  13  11  151.07    7.02
   0  13  11  158.55    7.07
   0  13 -11  143.77    6.87
   0  13 -12    6.85    1.71
   0  13 -13   40.74    3.80
   0  13 -14   30.04    3.51
   0  13 -15    9.47    2.38
   0  13 -16   27.80    3.77
   0  13 -17   15.94    3.07
   0  13 -18   15.38    3.10
   0  14   0  413.34   12.70
   0  14  -1  833.47   21.17
   0  14   1  815.34   21.13
   0  14   2  129.15    6.14
   0  14   3  103.69    5.46
   0  14   4   91.82    2.98
   0  14  -4   81.94    4.92
   0  14   4  100.63    5.41
   0  14  -4   93.18    2.92
   0  14   5  471.45   11.27
   0  14  -5  460.81   14.11
   0  14  -5  484.34   11.23
   0  14   6  262.27    7.56
   0  14  -6  258.51    9.62
   0  14  -6  264.52    7.55
   0  14   7  201.67    6.77
   0  14  -7  203.81    8.42
   0  14  -7  204.92    6.75
   0  14   8   41.85    2.94
   0  14  -8   36.07    3.47
   0  14  -8   43.14    2.97
   0  14   9  269.16    9.15
   0  14  -9  270.35    9.07
   0  14  10   69.89    4.37
   0  14 -10   70.73    4.36
   0  14  11  158.92    7.28
   0  14 -11  166.60    7.34
   0  14 -12   34.24    3.45
   0  14 -13   40.03    3.81
   0  14 -14    5.55    1.83
   0  14 -15   35.67    4.00
   0  14 -16    1.40    1.76
   0  14 -17   15.37    3.12
   0  14 -18   -1.69    2.03
   0  15   0   -0.06    0.96
   0  15   1  108.16    5.75
   0  15  -1  110.41    5.79
   0  15   4   30.86    1.39
   0  15  -4   29.66    3.06
   0  15  -4   29.69    1.28
   0  15   5    9.76    1.00
   0  15  -5   10.99    2.08
   0  15  -5    8.52    0.91
   0  15   6    1.94    0.74
   0  15  -6   -0.35    1.10
   0  15  -6    0.75    0.65
   0  15   7  178.85    6.11
   0  15  -7  166.70    7.75
   0  15  -7  179.65    6.08
   0  15  -8    9.31    1.49
   0  15  -8    8.19    1.89
   0  15   8    7.44    1.37
   0  15  -9   22.68    2.40
   0  15   9   22.07    2.33
   0  15 -10    3.76    1.13
   0  15  10    4.92    1.39
   0  15 -11    4.00    1.37
   0  15  11    2.98    1.45
   0  15 -12   14.42    2.26
   0  15 -13    4.16    1.49
   0  15 -14    4.58    1.77
   0  15 -15    9.64    2.42
   0  15 -16    3.37    1.74
   0  15 -17    5.06    2.41
   0  15 -18   11.90    3.02
   0  16   4  379.41    8.13
   0  16   4  395.03    8.19
   0  16  -4  419.03   13.23
   0  16   5    3.67    0.63
   0  16  -5    1.89    1.26
   0  16  -5    3.65    0.62
   0  16   6  107.65    4.04
   0  16  -6  113.74    6.28
   0  16  -6  116.84    4.08
   0  16   7    8.79    1.28
   0  16  -7    7.79    2.00
   0  16  -7    8.33    1.19
   0  16   8  110.11    4.83
   0  16  -8  119.66    6.66
   0  16  -8  112.14    4.81
   0  16   9    4.06    1.39
   0  16  -9    4.54    1.17
   0  16  10   77.65    4.53
   0  16 -10   81.61    4.61
   0  16 -11    5.40    1.49
   0  16 -12   14.73    2.26
   0  16 -13   12.17    2.25
   0  16 -14    7.12    2.08
   0  16 -15    2.47    1.58
   0  16 -16   17.46    3.15
   0  17  -3  139.47    7.03
   0  17  -4   32.13    3.28
   0  17   5   37.31    1.62
   0  17  -5   38.84    3.68
   0  17   6    8.56    1.05
   0  17  -6    6.54    1.80
   0  17  -6    7.18    0.91
   0  17   7   32.35    2.18
   0  17  -7   28.55    3.27
   0  17  -7   31.34    2.11
   0  17   8    2.49    0.83
   0  17  -8    3.73    1.90
   0  17  -8    1.98    0.85
   0  17  -9   94.61    6.19
   0  17  -9   94.37    4.62
   0  17 -10    8.23    1.64
   0  17 -11   18.38    2.26
   0  17 -12    5.72    1.70
   0  17 -13   31.96    3.28
   0  17 -14    2.88    1.56
   0  18  -3  152.67    7.60
   0  18  -4  109.04    6.37
   0  18  -5   41.68    3.98
   0  18   6   77.45    2.89
   0  18  -6   88.22    5.77
   0  18  -6   75.72    2.70
   0  18  -7   60.76    4.95
   0  18  -7   63.56    2.88
   0  18  -8   26.09    3.42
   0  18  -8   31.67    2.28
   0  18  -9   54.83    4.84
   0  18  -9   55.14    3.39
   0  18 -10   39.77    3.06
   0  19  -3    2.18    1.53
   0  19  -4   21.87    3.04
   0  19  -5    9.76    2.37
   0  19  -6   22.88    3.15
   0  19  -7    4.28    2.01
   0  19  -8   51.66    4.72
   0  19  -9    0.49    1.62
   0  20  -3  133.70    7.59
   0  20  -4    3.17    1.51
   0  20  -5  136.38    7.70
   0  20  -6    1.54    1.83
   0  20  -7   18.11    3.10
   0  20  -8    1.69    1.95
   0  20  -9   27.62    3.84
   0  21  -3    0.28    1.53
   0  21  -4   36.53    4.10
   0  21  -5    0.41    1.47
   0  21  -6    5.18    2.05
   0  21  -7    1.29    1.48
   0  21  -8   24.11    3.66
   0  21  -9   11.40    2.64
   0  22  -3  118.59    7.54
   0  22  -4   95.34    6.76
   0  22  -5   49.07    4.88
   0  22  -6   77.16    6.19
   0  22  -7   22.36    3.47
   0  22  -8   81.38    6.49
   0  22  -9    7.54    2.52
   0  23  -2   11.87    2.69
   0  23  -3    5.91    2.12
   0  23  -4    6.97    2.60
   0  23  -5    7.85    2.57
   0  23  -6    3.52    1.74
   0  23  -7    8.00    2.23
   0  24  -2  109.07    7.82
   0  24  -3   15.90    3.29
   0  24  -4  181.35    9.95
  -1 -24   4    3.46    2.04
   1 -24  -4   -0.71    1.87
  -1 -24   3    5.10    2.06
   1 -24  -3    2.30    2.00
  -1 -24   2    0.29    1.64
   1 -24  -2    0.09    1.51
   1 -24  -1    9.81    2.68
  -1 -24   1    6.37    2.43
  -1 -24   0   13.30    2.80
   1 -24   0   16.74    3.20
   1 -24   1   27.01    3.84
  -1 -24  -1   31.29    4.07
   1 -24   2    5.07    1.93
  -1 -24  -2    6.50    2.39
   1 -24   3   16.99    3.27
  -1 -24  -3    5.33    2.04
   1 -24   4    5.72    2.15
  -1 -24  -4    6.51    2.44
  -1 -23   6    5.47    2.26
   1 -23  -6    3.85    2.05
  -1 -23   5  139.67    8.50
   1 -23  -5  120.47    7.93
  -1 -23   4    8.88    2.51
   1 -23  -4   10.26    2.57
  -1 -23   3  166.78    9.25
   1 -23  -3  150.48    8.81
  -1 -23   2    6.44    2.42
   1 -23  -2    7.38    2.36
  -1 -23   1  183.61    9.80
   1 -23  -1  174.67    9.52
   1 -23   0    3.80    2.06
  -1 -23   0    6.53    2.27
  -1 -23  -1  142.74    8.40
   1 -23   1  119.37    7.84
   1 -23   2    0.20    1.59
  -1 -23  -2    4.37    2.01
   1 -23   3   62.04    5.57
  -1 -23  -3   61.22    5.51
   1 -23   4   27.78    3.83
  -1 -23  -4   22.14    3.62
   1 -23   5   38.26    4.50
  -1 -23  -5   34.54    4.22
   1 -23   6    5.68    2.36
  -1 -23  -6    7.27    2.40
   1 -23   7   58.18    5.67
  -1 -23  -7   60.68    5.76
  -1 -22   8   -0.15    1.89
   1 -22  -8    4.38    2.30
  -1 -22   7    5.67    2.14
   1 -22  -7    0.84    1.55
  -1 -22   6   -1.30    1.87
   1 -22  -6    1.39    1.65
  -1 -22   5   -0.08    1.60
   1 -22  -5    1.51    1.85
  -1 -22   4   -0.72    1.71
   1 -22  -4   -2.02    1.73
  -1 -22   3    3.46    1.79
   1 -22  -3    6.77    2.25
  -1 -22   2    5.69    2.20
   1 -22  -2    9.61    2.58
  -1 -22   1    3.01    2.01
   1 -22  -1    3.68    2.13
  -1 -22   0    1.12    1.63
   1 -22   0    1.43    1.85
   1 -22   1    3.37    2.01
  -1 -22  -1    3.26    2.14
   1 -22   2   27.40    3.80
  -1 -22  -2   29.66    3.97
   1 -22   3    9.46    2.47
  -1 -22  -3    8.52    2.32
   1 -22   4    5.40    2.22
  -1 -22  -4    7.78    2.28
   1 -22   5   11.46    2.66
  -1 -22  -5   15.16    2.89
   1 -22   6   20.16    3.28
  -1 -22  -6   22.15    3.47
   1 -22   7   24.48    3.69
  -1 -22  -7   21.06    3.36
   1 -22   8   25.59    3.70
  -1 -22  -8   29.94    3.90
   1 -22   9   16.69    3.49
  -1 -22  -9   12.24    2.78
  -1 -21  10   56.90    5.80
   1 -21 -10   55.57    5.36
  -1 -21   9    1.87    1.73
   1 -21  -9    2.68    1.79
  -1 -21   8  111.33    7.60
   1 -21  -8  112.85    7.41
  -1 -21   7   54.61    5.30
   1 -21  -7   47.73    4.81
  -1 -21   6   53.51    5.22
   1 -21  -6   50.69    4.86
  -1 -21   5   65.51    5.58
   1 -21  -5   58.27    5.15
  -1 -21   4   99.94    6.79
   1 -21  -4   94.20    6.58
  -1 -21   3   54.27    5.00
   1 -21  -3   53.78    4.90
   1 -21  -2  119.84    7.42
  -1 -21   2  120.30    7.41
  -1 -21   1   90.35    6.41
   1 -21  -1   85.54    6.18
  -1 -21   0  144.27    8.19
   1 -21   0  158.05    8.49
   1 -21   1   14.93    2.74
  -1 -21  -1   14.50    2.67
   1 -21   2   70.77    5.56
  -1 -21  -2   62.34    5.29
   1 -21   3   20.20    3.23
  -1 -21  -3   16.37    3.11
   1 -21   4   29.99    3.88
  -1 -21  -4   22.38    3.37
   1 -21   5    4.75    2.16
  -1 -21  -5    1.10    1.60
   1 -21   6  111.79    7.21
  -1 -21  -6   99.70    6.76
   1 -21   7    5.42    2.43
  -1 -21  -7    2.06    2.07
   1 -21   8   45.18    4.90
  -1 -21  -8   44.22    4.78
   1 -21   9    8.89    2.44
  -1 -21  -9    8.76    2.42
   1 -21  10    7.55    2.35
  -1 -21 -10    5.77    2.45
  -1 -20  11    4.44    2.15
   1 -20 -11    3.83    1.94
  -1 -20  10    0.27    1.59
   1 -20 -10   -1.03    1.72
  -1 -20   9   -1.66    1.91
   1 -20  -9    1.12    1.83
  -1 -20   8    4.65    2.16
   1 -20  -8    3.97    1.99
  -1 -20   7    6.63    2.23
   1 -20  -7    2.68    1.84
  -1 -20   6    3.76    1.98
   1 -20  -6    6.46    2.27
  -1 -20   5    9.90    2.50
   1 -20  -5    8.37    2.33
  -1 -20   4   -0.32    1.61
   1 -20  -4    1.63    1.63
  -1 -20   3   23.41    3.31
   1 -20  -3   26.40    3.40
  -1 -20   2    7.38    2.29
   1 -20  -2    5.65    1.92
  -1 -20   1   17.58    2.86
   1 -20  -1   23.65    3.24
  -1 -20   0   21.07    3.14
   1 -20   0   20.19    3.02
   1 -20   1   30.80    3.63
  -1 -20  -1   32.12    3.71
   1 -20   2    7.52    2.13
  -1 -20  -2    7.41    2.14
   1 -20   3   21.60    3.18
  -1 -20  -3   17.28    2.79
   1 -20   4    1.68    1.87
  -1 -20  -4    3.17    1.66
   1 -20   5  122.00    7.41
  -1 -20  -5  127.29    7.35
   1 -20   6    1.59    1.50
  -1 -20  -6    2.26    1.77
   1 -20   7   40.45    4.42
  -1 -20  -7   42.33    4.30
   1 -20   8    1.15    1.90
  -1 -20  -8    1.91    1.68
   1 -20   9   62.57    5.54
  -1 -20  -9   67.96    5.58
   1 -20  10    0.99    1.66
  -1 -20 -10    3.70    1.94
   1 -20  11   42.18    4.86
  -1 -20 -11   48.96    4.91
  -1 -19  12   22.12    3.67
   1 -19 -12   19.44    3.29
  -1 -19  11   20.00    3.30
   1 -19 -11   25.90    3.69
  -1 -19  10   11.92    2.66
   1 -19 -10   12.11    2.59
  -1 -19   9   14.53    3.01
   1 -19  -9   14.76    2.82
  -1 -19   8   17.93    3.09
   1 -19  -8   13.89    2.80
  -1 -19   7   25.62    3.66
   1 -19  -7   31.07    3.73
  -1 -19   6  107.50    6.88
   1 -19  -6   97.45    6.39
  -1 -19   5   10.68    2.40
   1 -19  -5    8.98    2.16
  -1 -19   4   30.89    3.66
   1 -19  -4   37.54    3.90
  -1 -19   3   11.78    2.32
   1 -19  -3   15.80    2.70
  -1 -19   2  132.79    7.41
   1 -19  -2  159.22    7.97
  -1 -19   1   92.77    6.00
   1 -19  -1  102.43    6.30
  -1 -19   0  133.61    7.32
   1 -19   0  144.71    7.62
  -1 -19  -1   57.33    4.70
   1 -19   1   51.49    4.49
   1 -19   2   20.98    2.99
  -1 -19  -2   20.48    2.95
   1 -19   3   43.40    4.24
  -1 -19  -3   42.97    4.09
   1 -19   4   34.09    3.77
  -1 -19  -4   27.60    3.43
   1 -19   5   24.53    3.19
  -1 -19  -5   28.16    3.40
   1 -19   6   62.06    5.21
  -1 -19  -6   69.27    5.29
   1 -19   7    9.71    2.53
  -1 -19  -7    7.31    2.21
   1 -19   8   39.11    4.17
  -1 -19  -8   32.40    3.82
   1 -19   9   11.23    2.70
  -1 -19  -9    9.75    2.49
   1 -19  10    5.17    2.18
  -1 -19 -10    7.39    2.30
   1 -19  11   10.32    2.82
  -1 -19 -11   14.53    2.92
   1 -19  12    0.17    1.54
  -1 -19 -12    6.28    2.38
  -1 -18  13    6.04    2.49
   1 -18 -13    8.38    2.53
   1 -18 -12    4.25    1.49
  -1 -18  12    8.48    2.62
   1 -18 -12    4.64    2.06
   1 -18 -11    9.93    1.91
  -1 -18  11   11.76    2.82
   1 -18 -11    6.28    2.20
   1 -18 -10   11.28    1.81
  -1 -18  10   12.54    2.81
   1 -18 -10   10.31    2.49
   1 -18  -9    2.09    1.10
  -1 -18   9    0.65    1.64
   1 -18  -9    1.46    1.57
   1 -18  -8    9.51    1.43
  -1 -18   8    6.43    2.14
   1 -18  -8    7.58    2.17
  -1 -18   7   24.56    3.38
   1 -18  -7   25.91    1.99
   1 -18  -7   25.74    3.25
   1 -18  -6    2.39    0.64
  -1 -18   6    2.00    0.55
  -1 -18   6    1.36    1.62
   1 -18  -6    0.11    1.36
   1 -18  -5   11.64    0.91
  -1 -18   5    5.13    1.90
   1 -18  -5   10.38    2.29
  -1 -18   4    3.05    1.43
   1 -18  -4    2.14    1.46
  -1 -18   3   11.32    2.22
   1 -18  -3   14.89    2.54
  -1 -18   2    6.72    1.94
   1 -18  -2    1.99    1.56
  -1 -18   1   27.65    3.30
   1 -18  -1   29.31    3.30
  -1 -18   0    2.27    1.43
   1 -18   0    2.84    1.56
   1 -18   1    9.43    2.13
  -1 -18  -1   12.52    2.32
   1 -18   2   22.92    3.03
  -1 -18  -2   23.71    3.02
   1 -18   3  114.81    6.54
  -1 -18  -3  104.60    6.28
   1 -18   4   58.11    4.65
  -1 -18  -4   50.35    4.31
   1 -18   5   44.01    1.99
   1 -18   5   48.27    1.99
   1 -18   5   43.95    4.13
  -1 -18  -5   50.81    4.35
   1 -18   6  116.17    4.05
   1 -18   6  112.79    6.82
  -1 -18  -6  116.82    6.75
   1 -18   7   83.80    3.67
   1 -18   7   81.02    5.78
  -1 -18  -7   73.97    5.35
  -1 -18  -7   80.26    3.69
   1 -18   8  111.74    6.94
  -1 -18  -8  103.36    6.49
  -1 -18  -8  107.84    4.77
   1 -18   9   18.39    3.16
  -1 -18  -9   19.83    2.17
  -1 -18  -9   18.41    2.90
   1 -18  10   74.69    5.95
  -1 -18 -10   80.71    5.89
  -1 -18 -10   75.14    4.53
   1 -18  11   28.30    3.85
  -1 -18 -11   34.95    3.97
  -1 -18 -11   25.48    2.79
   1 -18  12   31.12    4.12
  -1 -18 -12   32.00    3.93
   1 -18  13   23.69    3.69
  -1 -18 -13   30.89    4.00
   1 -17 -15   25.29    3.50
   1 -17 -14    2.16    1.57
  -1 -17  14    4.24    2.29
   1 -17 -13   29.05    3.43
  -1 -17  13   35.45    4.41
   1 -17 -12    4.13    1.55
  -1 -17  12    4.69    1.84
   1 -17 -12    1.55    1.60
  -1 -17  11   52.98    5.02
   1 -17 -11   53.70    4.04
   1 -17 -11   57.03    5.06
   1 -17 -10    6.29    1.51
  -1 -17  10    8.36    2.37
   1 -17 -10    5.40    1.87
  -1 -17   9  122.36    7.37
   1 -17  -9  115.02    6.92
   1 -17  -9  119.04    5.48
   1 -17  -8    6.96    1.35
  -1 -17   8    8.07    1.25
  -1 -17   8    9.01    2.27
   1 -17  -8    9.00    2.05
  -1 -17   7   75.21    3.39
  -1 -17   7   81.56    5.68
   1 -17  -7   80.66    5.49
   1 -17  -7   77.90    3.72
   1 -17  -6    9.34    1.15
  -1 -17   6   10.09    1.06
  -1 -17   6   11.17    2.40
   1 -17  -6    9.91    2.10
  -1 -17   5  135.70    3.79
  -1 -17   5  142.18    7.38
   1 -17  -5  124.20    6.83
   1 -17  -5  133.28    4.19
  -1 -17   4   57.69    4.53
   1 -17  -4   55.58    4.41
   1 -17  -4   59.36    1.95
  -1 -17   3   51.17    4.23
   1 -17  -3   61.32    4.53
  -1 -17   2   28.20    3.13
   1 -17  -2   38.34    3.59
  -1 -17   1  141.38    7.11
   1 -17  -1  153.66    7.37
  -1 -17   0  134.99    6.87
   1 -17   0  132.43    6.84
  -1 -17  -1  177.71    8.04
   1 -17   1  170.12    7.91
   1 -17   2   -0.74    1.42
  -1 -17  -2    1.61    1.25
   1 -17   3   38.67    3.61
  -1 -17  -3   32.05    3.34
   1 -17   4   44.41    1.76
   1 -17   4   46.61    1.75
  -1 -17  -4   40.77    3.74
   1 -17   4   35.75    3.60
   1 -17   5  107.22    3.73
   1 -17   5  111.12    3.81
   1 -17   5  120.31    3.82
   1 -17   5  101.46    6.14
  -1 -17  -5  107.23    6.18
   1 -17   6   40.08    2.36
   1 -17   6   43.58    2.38
   1 -17   6   38.90    3.86
  -1 -17  -6   43.39    2.47
  -1 -17  -6   38.17    3.90
   1 -17   7  135.50    5.15
   1 -17   7  121.94    7.00
  -1 -17  -7  136.06    5.16
  -1 -17  -7  129.71    7.04
   1 -17   8   13.80    1.77
   1 -17   8   10.39    2.33
  -1 -17  -8   13.86    2.50
  -1 -17  -8   14.86    1.82
   1 -17   9   18.37    2.85
  -1 -17  -9   17.71    2.07
  -1 -17  -9   15.80    2.65
   1 -17  10    3.97    1.85
  -1 -17 -10    2.94    1.59
  -1 -17 -10    4.44    1.40
   1 -17  11    4.13    1.79
  -1 -17 -11    7.89    1.80
  -1 -17 -11    8.59    2.10
   1 -17  12    2.32    1.75
  -1 -17 -12    6.97    2.39
  -1 -17 -12    2.65    1.31
   1 -17  13    8.48    2.46
  -1 -17 -13    6.29    1.93
   1 -17  14    1.74    1.97
  -1 -17 -14    0.04    1.52
  -1 -17 -15    5.99    2.34
   1 -16 -17    5.95    2.18
   1 -16 -16   10.39    2.94
   1 -16 -15   10.61    2.66
   1 -16 -14    3.72    1.59
   1 -16 -13    4.98    1.85
   1 -16 -12   27.31    3.13
  -1 -16  12   30.80    3.91
   1 -16 -12   30.62    3.82
   1 -16 -11    1.34    1.11
  -1 -16  11    3.74    1.96
   1 -16 -11    0.43    1.45
   1 -16 -10    3.45    1.29
  -1 -16  10    6.51    1.47
  -1 -16  10    8.56    2.46
   1 -16 -10    2.97    1.44
   1 -16  -9   11.98    1.85
  -1 -16   9   10.82    1.63
  -1 -16   9    8.60    2.22
   1 -16  -9   12.73    2.50
   1 -16  -8   49.98    3.22
  -1 -16   8   46.43    2.92
  -1 -16   8   55.02    4.65
   1 -16  -8   45.35    4.05
   1 -16  -7   51.94    3.08
  -1 -16   7   56.67    2.97
  -1 -16   7   60.13    4.69
   1 -16  -7   56.96    4.50
   1 -16  -6   74.60    3.38
  -1 -16   6   72.26    3.09
  -1 -16   6   74.20    5.19
   1 -16  -6   71.92    4.94
   1 -16  -5   60.37    2.69
  -1 -16   5   60.62    2.41
  -1 -16   5   61.80    4.59
   1 -16  -5   57.83    4.43
  -1 -16   4   21.19    1.04
  -1 -16   4   17.49    2.57
   1 -16  -4   19.63    2.68
   1 -16  -4   19.18    1.22
   1 -16  -3  401.40   13.00
  -1 -16   3  383.93   12.93
  -1 -16   2  102.64    5.82
   1 -16  -2  108.90    5.95
   1 -16  -1   89.80    5.31
  -1 -16   1   86.87    5.29
   1 -16   0   30.38    3.14
  -1 -16   0   30.31    3.13
  -1 -16  -1  488.97   14.91
   1 -16   1  485.65   14.87
  -1 -16  -2   45.90    3.76
   1 -16   2   35.48    3.39
   1 -16   3  256.20    5.89
  -1 -16  -3  271.89   10.09
   1 -16   3  244.83    9.73
   1 -16   3  269.66    5.86
   1 -16   4   82.31    2.89
   1 -16   4   81.18    2.81
   1 -16   4   82.96    5.21
  -1 -16  -4   80.85    5.11
   1 -16   5   52.18    2.57
   1 -16   5   55.85    2.54
   1 -16   5   59.84    4.46
  -1 -16  -5   54.98    4.24
   1 -16   6  103.48    4.18
   1 -16   6  107.75    6.18
  -1 -16  -6  100.43    4.11
  -1 -16  -6   97.28    5.78
   1 -16   7  247.16    7.91
   1 -16   7  247.14   10.20
  -1 -16  -7  264.21   10.18
  -1 -16  -7  255.31    7.96
   1 -16   8   61.71    3.67
   1 -16   8   54.11    4.59
  -1 -16  -8   68.45    4.90
  -1 -16  -8   56.25    3.49
   1 -16   9  116.54    5.49
   1 -16   9  112.28    6.79
  -1 -16  -9  114.80    5.48
  -1 -16  -9  108.02    6.42
   1 -16  10   47.01    3.67
   1 -16  10   46.91    4.43
  -1 -16 -10   48.27    4.42
  -1 -16 -10   49.45    3.69
   1 -16  11   25.62    3.57
  -1 -16 -11   31.70    3.65
  -1 -16 -11   35.69    3.29
   1 -16  12   36.83    4.27
  -1 -16 -12   39.89    3.72
  -1 -16 -12   39.39    4.21
   1 -16  13   28.53    3.98
  -1 -16 -13   26.37    3.26
   1 -16  14   13.26    2.89
  -1 -16 -14    9.09    2.26
   1 -16  15   22.61    3.59
  -1 -16 -15   21.34    3.34
  -1 -16 -16   14.99    3.25
  -1 -16 -17   15.62    3.39
   1 -15 -18   11.63    2.94
   1 -15 -17   11.38    2.93
   1 -15 -16   50.51    4.95
   1 -15 -15    4.22    2.02
   1 -15 -14   35.38    3.86
   1 -15 -13   28.61    3.30
   1 -15 -12  185.19    8.30
   1 -15 -12  184.92    9.19
  -1 -15  11   16.48    2.32
   1 -15 -11   21.09    2.68
   1 -15 -11   18.02    2.95
  -1 -15  10  200.85    7.81
   1 -15 -10  205.23    8.13
  -1 -15  10  220.15    9.80
   1 -15 -10  210.43    9.45
   1 -15  -9    2.73    1.29
  -1 -15   9    2.16    1.12
  -1 -15   9    7.34    2.00
   1 -15  -9    2.46    1.50
   1 -15  -8  475.94   12.78
  -1 -15   8  439.83   12.08
  -1 -15   8  442.49   14.80
   1 -15  -8  434.57   14.41
   1 -15  -7   88.31    4.17
  -1 -15   7   92.99    3.99
  -1 -15   7   85.69    5.55
   1 -15  -7   92.17    5.57
   1 -15  -6  504.03   12.55
  -1 -15   6  493.79   11.99
  -1 -15   6  487.34   15.41
   1 -15  -6  479.01   15.01
   1 -15  -5   15.22    1.44
  -1 -15   5   15.64    1.24
  -1 -15   5   19.82    2.69
   1 -15  -5   15.76    2.37
   1 -15  -4  387.37    8.97
  -1 -15   4  356.42    8.38
  -1 -15   4  354.22   12.19
   1 -15  -4  379.87   12.29
   1 -15  -3    1.87    0.47
  -1 -15   3    2.94    1.39
   1 -15  -3    2.61    1.39
  -1 -15   2  583.56   16.55
   1 -15  -2  574.10   16.51
  -1 -15   1   70.35    4.57
   1 -15  -1   76.08    4.72
   1 -15   0  410.78   12.77
  -1 -15   0  384.89   12.48
   1 -15   1   25.26    2.75
  -1 -15  -1   33.02    3.12
   1 -15   2  347.33   11.43
  -1 -15  -2  324.68   11.17
   1 -15   3    8.23    0.78
   1 -15   3    8.17    0.74
   1 -15   3    8.88    1.78
  -1 -15  -3    7.66    1.78
   1 -15   4  400.19    9.76
   1 -15   4  421.20    9.69
   1 -15   4  386.51   12.88
  -1 -15  -4  409.93   12.97
   1 -15   5   26.63    1.86
   1 -15   5   27.40    1.83
   1 -15   5   24.04    2.84
  -1 -15  -5   27.76    1.83
  -1 -15  -5   24.85    2.77
   1 -15   6   42.68    2.62
   1 -15   6   42.33    3.77
  -1 -15  -6   44.01    3.70
  -1 -15  -6   43.72    2.61
   1 -15   7   43.03    2.87
   1 -15   7   45.06    3.93
  -1 -15  -7   44.25    3.80
  -1 -15  -7   43.99    2.90
   1 -15   8  125.82    5.52
   1 -15   8  124.26    6.78
  -1 -15  -8  125.60    6.59
  -1 -15  -8  116.69    5.33
   1 -15   9   19.84    2.30
   1 -15   9   16.74    2.69
  -1 -15  -9   18.15    2.18
  -1 -15  -9   18.49    2.63
   1 -15  10    3.07    1.27
   1 -15  10    2.35    1.70
  -1 -15 -10    4.34    1.73
  -1 -15 -10    3.84    1.39
   1 -15  11   12.13    2.48
  -1 -15 -11   15.73    2.44
  -1 -15 -11   15.79    2.63
   1 -15  12    6.10    2.05
  -1 -15 -12    6.82    1.83
  -1 -15 -12    2.82    1.81
   1 -15  13   17.92    3.14
  -1 -15 -13   22.71    3.20
   1 -15  14    8.88    2.45
  -1 -15 -14    6.89    2.23
  -1 -15 -15    2.58    1.94
  -1 -15 -16    0.18    1.60
  -1 -15 -17    2.85    1.96
   1 -14 -18    1.16    1.73
   1 -14 -17   -6.27    2.24
   1 -14 -16    8.68    2.71
   1 -14 -15   14.50    2.89
   1 -14 -14    2.74    1.77
   1 -14 -13   32.45    3.53
   1 -14 -12   44.33    3.92
  -1 -14  11   62.47    4.25
   1 -14 -11   59.32    4.32
   1 -14 -11   62.46    4.94
  -1 -14  10    5.74    1.36
   1 -14 -10    5.30    1.57
   1 -14 -10    6.26    1.74
   1 -14  -9   12.71    1.90
  -1 -14   9   14.82    1.99
  -1 -14   9   12.53    2.30
   1 -14  -9    9.29    2.11
   1 -14  -8   61.72    3.70
  -1 -14   8   57.83    3.44
  -1 -14   8   64.42    4.73
   1 -14  -8   59.57    4.42
   1 -14  -7    2.40    0.87
  -1 -14   7    4.40    0.95
  -1 -14   7    1.12    1.30
   1 -14  -7    0.28    1.16
   1 -14  -6    4.46    1.03
  -1 -14   6    3.19    0.81
  -1 -14   6    4.85    1.57
   1 -14  -6    3.00    1.33
   1 -14  -5    5.76    1.00
  -1 -14   5    6.50    0.91
  -1 -14   5    7.33    1.81
   1 -14  -5    4.49    1.36
   1 -14  -4    0.91    0.54
  -1 -14   4    1.98    0.51
  -1 -14   4    2.19    1.22
   1 -14  -4    0.69    1.17
   1 -14  -3   83.32    2.79
  -1 -14   3   79.56    2.42
  -1 -14   3   77.34    4.76
   1 -14  -3   79.80    4.76
   1 -14  -2   35.70    1.36
  -1 -14   2   34.58    3.12
   1 -14  -2   36.27    3.16
   1 -14  -2   34.42    1.28
  -1 -14   1    7.92    1.64
   1 -14  -1    7.22    1.54
  -1 -14   0  107.61    5.51
   1 -14   0  115.11    5.70
   1 -14   1  127.99    6.00
  -1 -14  -1  118.09    5.83
   1 -14   2   31.44    1.34
   1 -14   2   29.60    1.25
   1 -14   2   27.57    2.74
  -1 -14  -2   29.35    2.85
   1 -14   3   17.75    1.22
   1 -14   3   19.41    1.21
   1 -14   3   17.78    2.29
  -1 -14  -3   17.18    2.29
   1 -14   4    0.87    0.51
   1 -14   4    0.71    0.50
   1 -14   4   -0.12    1.00
  -1 -14  -4    2.51    1.30
   1 -14   5  108.40    4.15
   1 -14   5  109.87    5.79
  -1 -14  -5   99.84    3.94
  -1 -14  -5  105.81    5.57
   1 -14   6   22.73    1.95
   1 -14   6   23.63    2.74
  -1 -14  -6   22.60    2.53
  -1 -14  -6   25.26    2.03
   1 -14   7  242.03    7.94
   1 -14   7  236.24    9.48
  -1 -14  -7  250.09    9.40
  -1 -14  -7  245.40    7.96
   1 -14   8   10.66    1.65
   1 -14   8    7.80    1.69
  -1 -14  -8   10.43    2.01
  -1 -14  -8    9.31    1.60
   1 -14   9  102.35    5.18
   1 -14   9   97.75    5.94
  -1 -14  -9   97.97    5.77
  -1 -14  -9  100.17    5.11
   1 -14  10   11.90    1.95
   1 -14  10   13.02    2.33
  -1 -14 -10   11.65    1.89
  -1 -14 -10   11.37    2.28
   1 -14  11   80.80    5.67
  -1 -14 -11   80.95    5.48
  -1 -14 -11   79.43    5.03
  -1 -14 -12    3.87    1.58
  -1 -14 -13   14.75    2.55
  -1 -14 -14   -0.71    1.45
  -1 -14 -15   14.58    2.93
  -1 -14 -16    3.61    2.01
  -1 -14 -17    7.71    2.46
   1 -13 -18   13.36    3.16
   1 -13 -17    1.24    1.61
   1 -13 -16   32.60    4.23
   1 -13 -15   12.84    2.63
   1 -13 -14   59.36    4.94
   1 -13 -13    5.70    1.67
   1 -13 -12   31.50    3.35
  -1 -13  11   73.73    4.63
   1 -13 -11   69.19    4.63
   1 -13 -11   78.85    5.40
  -1 -13  10  155.18    6.69
   1 -13 -10  157.40    6.97
   1 -13 -10  160.75    7.72
   1 -13  -9  194.42    7.46
  -1 -13   9  173.30    6.89
   1 -13  -9  190.93    8.30
   1 -13  -8  206.66    7.40
  -1 -13   8  187.72    6.89
   1 -13  -8  198.30    8.32
   1 -13  -7  139.11    5.54
  -1 -13   7  142.13    5.30
  -1 -13   7  130.57    6.62
   1 -13  -7  141.21    6.68
   1 -13  -6  265.97    8.07
  -1 -13   6  266.24    7.70
  -1 -13   6  287.76   10.16
   1 -13  -6  272.37    9.72
   1 -13  -5  289.36    7.90
  -1 -13   5  270.31    7.38
  -1 -13   5  271.07    9.83
   1 -13  -5  267.80    9.63
   1 -13  -4  614.66   13.67
  -1 -13   4  573.69   13.10
  -1 -13   4  598.04   16.51
   1 -13  -4  589.13   16.24
   1 -13  -3  248.64    6.33
   1 -13  -3  237.40    8.74
  -1 -13   3  252.25    9.01
  -1 -13   3  245.80    5.94
   1 -13  -2  267.73    6.28
   1 -13  -2  252.74    9.09
  -1 -13   2  277.37    9.45
   1 -13  -1  460.97    9.76
  -1 -13   1  469.06   13.52
   1 -13  -1  492.10   13.75
   1 -13  -1  474.99    9.77
   1 -13   0  223.00    8.14
  -1 -13   0  215.01    8.02
   1 -13   1  269.15    6.14
   1 -13   1  284.29    9.43
  -1 -13  -1  280.09    9.41
   1 -13   1  277.07    6.06
   1 -13   2  479.33   10.69
   1 -13   2  497.54   13.94
  -1 -13  -2  478.65   13.83
   1 -13   2  490.21   10.54
   1 -13   3  337.19    8.41
   1 -13   3  357.69    8.30
  -1 -13  -3  346.00   10.97
   1 -13   3  330.29   10.88
   1 -13   4   71.25    3.07
   1 -13   4   71.98    2.94
  -1 -13  -4   62.98    4.08
   1 -13   4   71.83    4.40
  -1 -13  -4   73.01    2.99
   1 -13   5  258.31    7.59
   1 -13   5  256.07    9.34
  -1 -13  -5  254.13    9.15
  -1 -13  -5  266.87    7.52
   1 -13   6  102.80    4.43
   1 -13   6  105.88    5.62
  -1 -13  -6  107.46    4.46
  -1 -13  -6   98.59    5.29
   1 -13   7   23.95    2.16
   1 -13   7   25.34    2.80
  -1 -13  -7   21.44    2.06
  -1 -13  -7   20.85    2.47
   1 -13   8   24.07    2.36
   1 -13   8   22.83    2.82
  -1 -13  -8   22.23    2.31
  -1 -13  -8   21.61    2.57
   1 -13   9  191.30    7.60
   1 -13   9  196.87    8.49
  -1 -13  -9  190.36    7.53
  -1 -13  -9  210.44    8.55
   1 -13  10   31.36    3.01
   1 -13  10   29.49    3.31
  -1 -13 -10   31.38    3.08
  -1 -13 -10   31.27    3.27
  -1 -13 -11    7.58    1.76
  -1 -13 -11   11.79    2.30
  -1 -13 -12    3.81    1.70
  -1 -13 -13   23.44    3.11
  -1 -13 -14    1.47    1.52
  -1 -13 -15   15.10    2.83
  -1 -13 -16    2.61    1.98
  -1 -13 -17    4.52    2.97
   1 -12 -18    7.03    2.51
   1 -12 -17    0.45    1.80
   1 -12 -16   16.34    2.92
   1 -12 -15    4.19    1.94
   1 -12 -14   39.80    4.09
   1 -12 -13   29.55    3.48
   1 -12 -12   20.11    2.71
  -1 -12  11   25.22    2.72
   1 -12 -11   23.66    2.86
   1 -12 -10   58.98    4.05
  -1 -12  10   57.14    3.85
   1 -12 -10   57.29    4.41
  -1 -12   9   10.13    1.70
   1 -12  -9    9.45    1.73
   1 -12  -9    6.66    1.70
  -1 -12   8    5.92    1.19
   1 -12  -8    4.00    1.17
   1 -12  -8    4.08    1.33
   1 -12  -7   92.02    4.36
  -1 -12   7   91.94    4.13
   1 -12  -7   89.00    5.05
   1 -12  -6   50.56    2.93
  -1 -12   6   52.48    2.76
  -1 -12   6   51.79    3.75
   1 -12  -6   42.87    3.37
   1 -12  -5   16.61    1.55
  -1 -12   5   15.24    1.35
  -1 -12   5   12.87    2.00
   1 -12  -5   15.68    2.06
   1 -12  -4    8.88    1.07
  -1 -12   4    8.69    0.92
  -1 -12   4   10.27    1.79
   1 -12  -4    8.51    1.56
   1 -12  -3   22.98    1.44
  -1 -12   3   21.61    1.24
  -1 -12   3   20.86    2.38
   1 -12  -3   24.24    2.46
   1 -12  -2    3.28    0.57
  -1 -12   2    4.62    0.51
  -1 -12   2    2.79    1.17
   1 -12  -2    6.00    1.42
   1 -12  -1   26.20    1.16
  -1 -12   1   27.06    2.51
   1 -12  -1   25.16    2.45
   1 -12  -1   23.02    1.09
   1 -12   0   30.56    1.21
  -1 -12   0   25.31    2.42
   1 -12   0   32.04    2.73
   1 -12   0   29.02    1.22
   1 -12   1    6.11    0.63
   1 -12   1    5.83    1.38
  -1 -12  -1    7.45    1.48
   1 -12   1    5.47    0.56
   1 -12   2  305.20    7.35
   1 -12   2  301.70    9.72
  -1 -12  -2  312.56    9.85
   1 -12   2  305.65    7.16
   1 -12   3   28.89    1.71
   1 -12   3   30.42    1.64
  -1 -12  -3   30.75    2.69
   1 -12   3   24.64    2.44
   1 -12   4    4.10    0.77
   1 -12   4    2.09    1.05
  -1 -12  -4    1.60    1.04
  -1 -12  -4    2.86    0.73
   1 -12   5   68.93    3.30
   1 -12   5   66.17    4.17
  -1 -12  -5   67.08    3.18
  -1 -12  -5   65.86    4.07
   1 -12   6    3.29    0.86
   1 -12   6    3.43    1.31
  -1 -12  -6    0.93    1.11
  -1 -12  -6    4.57    1.07
   1 -12   7   85.48    4.27
   1 -12   7   84.40    4.92
  -1 -12  -7   80.40    4.69
  -1 -12  -7   88.35    4.26
   1 -12   8  254.22    8.72
   1 -12   8  252.77    9.53
  -1 -12  -8  263.66    8.74
  -1 -12  -8  257.99    9.35
   1 -12   9   36.49    3.08
  -1 -12  -9   33.33    2.95
  -1 -12  -9   36.89    3.29
   1 -12  10   26.01    2.77
  -1 -12 -10   30.94    2.92
  -1 -12 -10   26.32    2.99
  -1 -12 -11    4.86    1.54
  -1 -12 -11    3.70    1.53
  -1 -12 -12   57.44    4.48
  -1 -12 -13    6.20    1.73
  -1 -12 -14   68.80    5.44
  -1 -12 -15    6.19    2.30
  -1 -12 -16   45.50    4.78
  -1 -12 -17    0.74    1.70
  -1 -12 -18   25.17    3.82
   1 -11 -18    2.28    1.65
   1 -11 -17   24.94    3.77
   1 -11 -16    0.71    1.78
   1 -11 -15   75.82    5.85
   1 -11 -14    1.56    1.55
   1 -11 -13   54.34    4.58
   1 -11 -12   -0.87    1.43
   1 -11 -11  209.08    8.64
  -1 -11  11  217.27    8.49
  -1 -11  10   58.07    3.87
   1 -11 -10   56.80    4.04
   1 -11 -10   60.47    4.38
   1 -11  -9  371.76   11.62
  -1 -11   9  386.28   11.44
   1 -11  -9  382.67   12.39
   1 -11  -8   35.50    2.87
  -1 -11   8   33.29    2.57
   1 -11  -8   38.63    3.29
  -1 -11   7  577.30   14.37
   1 -11  -7  567.78   14.64
   1 -11  -7  554.47   15.64
  -1 -11   6    4.86    0.95
   1 -11  -6    5.19    1.13
   1 -11  -6    4.72    1.43
   1 -11  -5  584.99   13.90
  -1 -11   5  562.42   13.45
  -1 -11   5  571.28   15.66
   1 -11  -5  597.69   15.60
   1 -11  -4   91.24    3.47
  -1 -11   4   90.85    3.27
  -1 -11   4   84.01    4.59
   1 -11  -4   83.06    4.46
   1 -11  -3  951.59   19.94
   1 -11  -3  937.95   22.38
  -1 -11   3  878.56   22.27
  -1 -11   3  949.07   19.59
   1 -11  -2   67.91    2.36
  -1 -11   2   59.42    2.09
  -1 -11   2   62.79    3.75
   1 -11  -2   67.38    3.81
   1 -11  -1  926.55   18.67
   1 -11  -1  880.68   21.56
  -1 -11   1  931.38   21.78
   1 -11  -1  899.94   18.61
   1 -11   0  215.59    5.04
  -1 -11   0  208.98    7.37
   1 -11   0  207.66    7.31
   1 -11   0  208.22    5.06
   1 -11   1  386.42    8.54
   1 -11   1  394.21   11.18
  -1 -11  -1  377.76   11.05
   1 -11   1  385.59    8.66
   1 -11   2   63.03    2.44
   1 -11   2   62.53    2.33
   1 -11   2   73.73    3.89
  -1 -11  -2   67.14    3.78
   1 -11   3  754.43   17.17
   1 -11   3  780.84   17.01
  -1 -11  -3  816.44   19.46
   1 -11   3  785.89   19.41
  -1 -11  -3  817.63   17.11
   1 -11   4   19.31    1.60
   1 -11   4   18.36    2.12
  -1 -11  -4   18.96    2.13
  -1 -11  -4   19.18    1.53
   1 -11   5  540.74   13.58
   1 -11   5  538.24   14.98
  -1 -11  -5  567.71   14.94
  -1 -11  -5  564.63   13.53
   1 -11   6   45.79    2.87
   1 -11   6   48.82    3.50
  -1 -11  -6   49.22    2.92
  -1 -11  -6   43.73    3.24
   1 -11   7  202.69    7.19
   1 -11   7  201.89    7.85
  -1 -11  -7  204.18    7.11
  -1 -11  -7  199.97    7.66
  -1 -11  -8    2.42    1.09
   1 -11   8    3.25    1.14
  -1 -11  -8    1.39    1.06
   1 -11   9  203.79    7.83
  -1 -11  -9  195.30    7.66
  -1 -11  -9  192.50    7.92
  -1 -11 -10    3.29    1.32
   1 -11  10    5.08    1.37
  -1 -11 -10    1.50    1.20
  -1 -11 -11   79.64    5.03
  -1 -11 -12    0.13    1.12
  -1 -11 -13   32.82    3.50
  -1 -11 -14    6.59    1.95
  -1 -11 -15   20.06    3.15
  -1 -11 -16    3.39    2.03
  -1 -11 -17    0.24    1.48
  -1 -11 -18    3.44    1.91
   1 -10 -18    5.28    2.13
   1 -10 -17    8.12    2.35
   1 -10 -16    5.68    2.31
   1 -10 -15   15.38    2.82
   1 -10 -14    9.08    2.26
   1 -10 -13    8.57    2.06
   1 -10 -12   35.26    3.46
  -1 -10  11    4.48    1.29
   1 -10 -11    3.27    1.09
  -1 -10  10   16.55    2.16
   1 -10 -10   15.77    2.18
  -1 -10   9   97.61    4.87
   1 -10  -9  100.79    5.11
   1 -10  -9   93.99    5.25
   1 -10  -8   31.87    2.67
  -1 -10   8   33.13    2.58
   1 -10  -8   30.46    2.87
   1 -10  -7  188.96    6.73
  -1 -10   7  188.18    6.49
   1 -10  -7  188.02    7.33
   1 -10  -6   71.14    3.56
  -1 -10   6   74.06    3.43
   1 -10  -6   72.24    4.12
  -1 -10   5  138.53    4.70
   1 -10  -5  141.77    4.96
   1 -10  -5  138.39    5.82
   1 -10  -4    8.15    1.02
  -1 -10   4    5.86    0.82
  -1 -10   4    2.49    0.96
   1 -10  -4    4.55    1.16
   1 -10  -3  176.68    5.02
  -1 -10   3  175.43    6.56
   1 -10  -3  177.15    6.49
  -1 -10   3  171.81    4.78
   1 -10  -2   67.56    2.42
   1 -10  -2   62.20    3.54
  -1 -10   2   67.55    3.70
  -1 -10   2   66.01    2.26
   1 -10  -1   40.74    1.64
  -1 -10   1   38.25    1.49
  -1 -10   1   39.23    2.76
   1 -10  -1   38.45    2.72
   1 -10   0  511.03   10.75
  -1 -10   0  513.73   13.23
   1 -10   0  514.50   13.21
   1 -10   0  484.18   10.76
   1 -10   1  207.46    5.12
   1 -10   1  205.34    7.01
  -1 -10  -1  201.61    6.96
   1 -10   1  207.95    5.24
   1 -10   2    2.95    0.60
   1 -10   2    2.75    0.52
   1 -10   2    3.73    1.08
  -1 -10  -2    1.69    0.89
   1 -10   3   20.55    1.48
   1 -10   3   21.61    2.13
  -1 -10  -3   22.86    2.09
  -1 -10  -3   24.11    1.52
   1 -10   4   28.82    1.94
   1 -10   4   31.11    2.59
  -1 -10  -4   37.03    2.67
  -1 -10  -4   32.17    1.98
   1 -10   5   20.55    1.77
   1 -10   5   22.54    2.27
  -1 -10  -5   21.16    1.78
  -1 -10  -5   23.11    2.20
   1 -10   6   78.01    3.84
   1 -10   6   79.15    4.33
  -1 -10  -6   76.18    3.73
  -1 -10  -6   73.50    4.06
  -1 -10  -7    9.97    1.54
   1 -10   7   12.01    1.64
   1 -10   7   11.91    1.88
  -1 -10  -7   10.19    1.67
   1 -10   8  121.51    5.50
   1 -10   8  117.56    5.85
  -1 -10  -8  106.67    5.14
  -1 -10  -8  108.52    5.38
   1 -10   9   52.53    3.73
  -1 -10  -9   61.78    4.06
  -1 -10  -9   55.14    3.78
   1 -10  10   90.25    5.19
  -1 -10 -10   90.86    5.16
  -1 -10 -10   95.94    5.28
  -1 -10 -11   63.59    4.48
  -1 -10 -12   44.12    3.91
  -1 -10 -13   26.94    3.29
  -1 -10 -14   38.07    3.99
  -1 -10 -15   49.93    4.74
  -1 -10 -16   30.80    4.81
  -1 -10 -17   15.15    3.02
  -1 -10 -18    5.48    2.42
   1  -9 -18   39.21    4.71
   1  -9 -17    3.75    2.18
   1  -9 -16   69.79    5.82
   1  -9 -15   19.41    3.04
   1  -9 -14   33.19    3.85
   1  -9 -13    1.10    1.14
   1  -9 -12  207.65    8.88
   1  -9 -11    0.71    1.09
  -1  -9  11    0.62    0.83
  -1  -9  11    0.55    0.89
   1  -9 -10  466.71   13.98
  -1  -9  10  469.03   13.73
  -1  -9   9    4.65    1.24
   1  -9  -9    4.99    1.31
   1  -9  -9    6.80    1.61
  -1  -9   8  520.55   13.97
   1  -9  -8  533.78   14.34
   1  -9  -8  531.99   14.78
   1  -9  -7   24.93    2.20
  -1  -9   7   24.10    2.07
   1  -9  -7   24.72    2.42
  -1  -9   6  842.44   19.24
   1  -9  -6  840.42   19.49
   1  -9  -6  834.30   20.36
  -1  -9   5   63.06    2.95
   1  -9  -5   69.08    3.19
   1  -9  -5   66.62    3.71
   1  -9  -4 1072.73   22.92
  -1  -9   4 1043.36   22.62
  -1  -9   4 1098.41   24.65
   1  -9  -4 1079.21   24.44
   1  -9  -3  438.93   10.26
   1  -9  -3  442.84   11.82
  -1  -9   3  430.46   11.86
  -1  -9   3  438.13   10.04
   1  -9  -2 3006.58   59.36
   1  -9  -2 2974.10   61.48
  -1  -9   2 3080.88   61.68
  -1  -9   2 2998.11   59.10
   1  -9  -1  106.42    3.08
  -1  -9   1   98.77    2.89
   1  -9  -1  102.59    4.40
  -1  -9   1  107.22    4.50
   1  -9   0 1456.69   29.21
  -1  -9   0 1540.65   31.68
   1  -9   0 1453.69   31.50
   1  -9   0 1441.08   29.27
   1  -9   1  313.35    7.27
  -1  -9  -1  312.58    9.03
   1  -9   1  317.74    9.04
   1  -9   1  314.25    7.38
   1  -9   2  827.66   17.53
  -1  -9  -2  838.14   19.40
   1  -9   2  857.74   19.48
   1  -9   2  816.92   17.67
   1  -9   3  114.58    3.96
  -1  -9  -3  125.77    4.94
   1  -9   3  117.86    4.89
  -1  -9  -3  118.89    3.91
   1  -9   4 1086.51   23.69
   1  -9   4 1122.47   24.98
  -1  -9  -4 1099.36   24.73
  -1  -9  -4 1082.78   23.58
   1  -9   5   52.02    2.86
   1  -9   5   56.16    3.37
  -1  -9  -5   55.12    3.24
  -1  -9  -5   49.05    2.75
   1  -9   6  398.00   11.13
   1  -9   6  403.96   11.89
  -1  -9  -6  411.89   11.07
  -1  -9  -6  406.80   11.46
   1  -9   7   59.22    3.52
   1  -9   7   54.63    3.68
  -1  -9  -7   55.87    3.51
  -1  -9  -7   54.45    3.33
   1  -9   8  298.52    9.82
   1  -9   8  326.97   10.48
  -1  -9  -8  301.47    9.72
  -1  -9  -8  293.29    9.70
  -1  -9  -9    2.23    1.08
   1  -9   9    2.92    1.23
  -1  -9  -9    2.70    1.05
  -1  -9 -10   13.01    2.10
   1  -9  10   15.96    2.18
   1  -9  11   45.88    3.86
  -1  -9 -11   44.24    3.79
  -1  -9 -12   33.37    3.44
  -1  -9 -13    3.18    1.43
  -1  -9 -14   24.80    3.30
  -1  -9 -15    3.02    2.01
  -1  -9 -16    6.74    2.35
  -1  -9 -17    7.87    2.51
  -1  -9 -18   -1.60    2.00
   1  -8 -19    5.06    2.30
   1  -8 -18    2.03    1.80
   1  -8 -17    9.86    2.60
   1  -8 -16   10.24    2.57
   1  -8 -15    6.83    2.10
   1  -8 -14    3.27    1.61
   1  -8 -13    5.66    1.66
   1  -8 -12    2.62    1.39
  -1  -8  12    3.58    1.36
   1  -8 -11   17.11    2.39
  -1  -8  11   16.57    2.08
  -1  -8  11   18.94    2.43
   1  -8 -10    8.94    1.74
  -1  -8  10    9.99    1.61
  -1  -8  10    7.88    1.53
  -1  -8   9    7.13    1.50
   1  -8  -9    5.12    1.44
   1  -8  -8   37.21    2.86
  -1  -8   8   34.61    2.62
   1  -8  -8   31.88    2.83
  -1  -8   7   86.47    4.06
   1  -8  -7   89.88    4.28
   1  -8  -7   84.72    4.42
  -1  -8   6   96.47    4.03
   1  -8  -6   96.76    4.16
   1  -8  -6   88.33    4.35
  -1  -8   5   13.27    1.32
   1  -8  -5   15.50    1.51
   1  -8  -5   13.43    1.61
  -1  -8   4  179.71    5.34
   1  -8  -4  179.00    5.47
   1  -8  -4  188.20    6.38
   1  -8  -3  265.99    6.82
  -1  -8   3  259.80    6.64
  -1  -8   3  284.84    8.19
   1  -8  -3  242.59    7.74
   1  -8  -2   95.19    3.05
  -1  -8   2   94.10    2.91
   1  -8  -2   88.43    3.92
  -1  -8   2   81.19    3.87
  -1  -8   1 1555.91   31.39
   1  -8  -1 1577.74   31.54
   1  -8  -1 1564.94   33.42
  -1  -8   1 1630.96   33.55
   1  -8   0  171.67    4.37
   1  -8   0  176.87    5.76
  -1  -8   0  165.21    5.66
   1  -8   0  167.79    4.39
   1  -8   1 1721.62   34.85
  -1  -8  -1 1776.08   36.68
   1  -8   1 1797.68   36.70
   1  -8   1 1733.91   34.97
   1  -8   2  406.26    9.40
  -1  -8  -2  419.60   10.76
   1  -8   2  396.58   10.65
   1  -8   2  414.34    9.57
  -1  -8  -2  401.07    9.39
   1  -8   3 1643.93   34.44
   1  -8   3 1676.59   35.62
  -1  -8  -3 1683.11   35.52
  -1  -8  -3 1714.32   34.42
   1  -8   4  170.21    5.43
   1  -8   4  161.80    5.88
  -1  -8  -4  172.46    5.39
  -1  -8  -4  167.83    5.85
   1  -8   5  413.52   10.89
   1  -8   5  426.06   11.73
  -1  -8  -5  407.66   10.76
  -1  -8  -5  414.64   11.15
   1  -8   6    9.05    1.32
  -1  -8  -6    8.99    1.32
   1  -8   6    6.25    1.30
  -1  -8  -6    7.80    1.31
   1  -8   7  664.29   17.18
   1  -8   7  704.67   17.77
  -1  -8  -7  672.79   17.06
  -1  -8  -7  710.04   17.28
   1  -8   8    6.24    1.38
  -1  -8  -8    7.77    1.51
   1  -8   8    7.21    1.46
  -1  -8  -8    4.34    1.15
   1  -8   9  311.20   10.39
   1  -8   9  320.66   10.55
  -1  -8  -9  300.64   10.21
   1  -8  10   86.58    5.07
  -1  -8 -10   79.12    4.83
   1  -8  11  194.41    8.34
  -1  -8 -11  184.98    8.08
  -1  -8 -12    1.68    1.15
  -1  -8 -13  253.22   10.48
  -1  -8 -14   17.20    2.76
  -1  -8 -15   59.24    5.18
  -1  -8 -16   20.11    3.25
  -1  -8 -17   53.74    5.33
  -1  -8 -18    0.50    1.52
   1  -7 -19   15.85    3.29
   1  -7 -18   21.95    3.77
   1  -7 -17    0.21    1.67
   1  -7 -16   54.73    5.13
   1  -7 -15   27.87    3.62
   1  -7 -14   25.45    3.27
   1  -7 -13   20.11    2.83
   1  -7 -12   49.91    4.12
  -1  -7  12   53.33    3.71
   1  -7 -11   99.71    5.65
  -1  -7  11  109.68    5.73
  -1  -7  11  106.05    5.18
   1  -7 -10   77.51    4.69
  -1  -7  10   76.86    4.59
  -1  -7  10   83.99    4.35
  -1  -7   9  348.49   10.84
   1  -7  -9  332.71   10.89
  -1  -7   9  373.47   10.59
   1  -7  -8  131.22    5.69
  -1  -7   8  130.72    5.53
  -1  -7   8  139.19    5.43
   1  -7  -7   61.87    3.48
  -1  -7   7   61.22    3.35
   1  -7  -7   60.88    3.58
  -1  -7   6  286.32    8.16
   1  -7  -6  273.02    8.23
   1  -7  -6  280.10    8.65
  -1  -7   5   18.06    1.51
   1  -7  -5   16.12    1.53
   1  -7  -5   16.62    1.75
  -1  -7   4  414.30   10.12
   1  -7  -4  419.55   10.27
   1  -7  -4  423.47   11.01
  -1  -7   3  230.52    6.12
   1  -7  -3  236.94    6.33
   1  -7  -3  240.45    6.29
   1  -7  -3  240.87    7.18
   1  -7  -2 1567.86   31.51
  -1  -7   2 1509.37   31.30
  -1  -7   2 1647.60   33.09
   1  -7  -2 1558.92   32.80
  -1  -7   1  496.61   10.94
   1  -7  -1  517.80   11.08
  -1  -7   1  508.47   12.44
   1  -7  -1  523.18   12.46
   1  -7   0   27.68    1.32
  -1  -7   0   28.67    1.97
   1  -7   0   29.20    2.01
   1  -7   0   27.51    1.35
   1  -7   1   23.12    1.27
   1  -7   1   27.19    1.91
  -1  -7  -1   24.46    1.83
   1  -7   1   24.58    1.36
  -1  -7  -2  117.85    4.30
   1  -7   2  110.47    4.23
  -1  -7  -2  118.84    3.62
   1  -7   2  109.29    3.60
   1  -7   3   19.65    1.72
  -1  -7  -3   21.01    1.74
   1  -7   3   18.00    1.41
  -1  -7  -3   18.45    1.40
   1  -7   4   32.57    2.05
   1  -7   4   31.39    2.23
   1  -7   4   36.55    2.50
  -1  -7  -4   34.78    2.28
  -1  -7  -4   33.90    2.07
   1  -7   5  473.64   11.95
   1  -7   5  478.77   12.48
  -1  -7  -5  432.89   11.64
  -1  -7  -5  476.36   11.97
   1  -7   6  238.43    7.66
   1  -7   6  235.50    7.90
  -1  -7  -6  241.61    7.54
  -1  -7  -6  233.61    7.54
   1  -7   7  130.28    5.48
   1  -7   7  127.63    5.56
  -1  -7  -7  121.33    5.11
  -1  -7  -7  128.19    5.37
   1  -7   8    6.53    1.40
  -1  -7  -8    5.87    1.34
   1  -7   8    8.45    1.50
  -1  -7  -8    8.83    1.47
   1  -7   9    4.10    1.29
  -1  -7  -9    3.95    1.27
   1  -7   9    2.42    1.05
   1  -7  10   16.09    2.25
  -1  -7 -10   18.28    2.45
   1  -7  10   14.22    2.02
   1  -7  11   10.61    2.05
  -1  -7 -11    9.92    2.00
  -1  -7 -12   19.25    2.67
  -1  -7 -13   12.81    2.36
  -1  -7 -14    8.37    2.22
  -1  -7 -15    7.42    2.31
  -1  -7 -16    1.96    1.69
  -1  -7 -17   15.61    3.14
  -1  -7 -18    0.11    1.99
   1  -6 -19   -2.66    2.30
   1  -6 -18   26.33    3.91
   1  -6 -17    2.40    1.81
   1  -6 -16   21.38    3.27
   1  -6 -15   10.95    2.39
   1  -6 -14    2.33    1.47
   1  -6 -13   37.33    3.75
  -1  -6  13   35.97    3.09
   1  -6 -12   34.00    3.45
  -1  -6  12   36.05    3.02
  -1  -6  11   12.39    2.03
   1  -6 -11   13.22    2.18
  -1  -6  11   14.05    1.86
   1  -6 -10   33.91    3.10
  -1  -6  10   37.48    3.11
  -1  -6  10   39.44    2.87
   1  -6  -9   51.75    3.58
  -1  -6   9   45.78    3.30
  -1  -6   9   51.00    3.12
   1  -6  -8   52.53    3.38
  -1  -6   8   49.32    3.19
  -1  -6   8   45.25    2.83
   1  -6  -7   14.15    1.73
  -1  -6   7   12.90    1.58
  -1  -6   7   12.30    1.44
   1  -6  -7   14.76    1.79
  -1  -6   6   36.31    2.35
   1  -6  -6   33.99    2.36
   1  -6  -6   36.41    2.56
   1  -6  -5  636.23   15.10
  -1  -6   5  638.35   14.96
   1  -6  -5  661.34   15.58
  -1  -6   4   99.17    3.63
   1  -6  -4  104.05    3.76
   1  -6  -4   99.84    4.06
  -1  -6   3  171.29    4.95
   1  -6  -3  186.79    5.21
   1  -6  -3  178.23    5.68
   1  -6  -2  209.51    5.57
  -1  -6   2  222.59    5.54
  -1  -6   2  220.47    6.45
   1  -6  -2  220.65    6.38
   1  -6  -1   15.06    0.98
  -1  -6   1   15.70    0.99
  -1  -6   1   15.51    1.44
   1  -6  -1   15.21    1.40
  -1  -6   0 1622.81   33.46
   1  -6   0 1723.66   33.56
   1  -6   0 1713.02   34.66
  -1  -6   0 1689.97   34.66
   1  -6   1  157.38    4.25
   1  -6   1  159.89    4.95
  -1  -6  -1  152.05    4.86
   1  -6   1  159.23    4.33
  -1  -6  -2 1083.22   23.13
   1  -6   2 1056.98   23.12
   1  -6   2 1055.27   22.52
  -1  -6  -2 1120.08   22.51
  -1  -6  -3   45.00    2.41
   1  -6   3   43.67    2.41
   1  -6   3   46.04    2.59
   1  -6   3   45.41    2.25
  -1  -6  -3   48.38    2.30
   1  -6   4  704.86   16.28
   1  -6   4  706.83   16.79
  -1  -6  -4  718.25   16.31
  -1  -6  -4  720.08   16.24
   1  -6   5   57.26    3.06
   1  -6   5   63.30    3.35
  -1  -6  -5   64.93    3.13
  -1  -6  -5   63.30    3.14
   1  -6   6  278.82    8.40
   1  -6   6  261.92    8.35
  -1  -6  -6  272.65    8.02
  -1  -6  -6  255.59    8.12
   1  -6   7   36.56    2.76
   1  -6   7   41.29    2.94
  -1  -6  -7   41.33    2.94
  -1  -6  -7   33.26    2.47
   1  -6   8  379.09   11.38
   1  -6   8  371.19   11.17
  -1  -6  -8  359.49   11.07
   1  -6   9    3.23    1.23
  -1  -6  -9    4.41    1.33
   1  -6   9    2.68    1.23
   1  -6  10  316.83   10.88
   1  -6  10  327.32   10.72
  -1  -6 -10  306.46   10.71
   1  -6  11    0.96    1.09
  -1  -6 -11    3.46    1.35
  -1  -6 -12  222.69    9.35
  -1  -6 -13    2.63    1.41
  -1  -6 -14  158.11    8.26
  -1  -6 -15   -1.09    1.68
  -1  -6 -16   88.78    6.63
  -1  -6 -17    1.93    1.50
  -1  -6 -18   12.50    2.83
   1  -5 -19    5.52    2.12
   1  -5 -18    5.50    2.08
   1  -5 -17   57.33    5.39
   1  -5 -16   14.14    2.85
   1  -5 -15   22.99    3.35
   1  -5 -14   36.17    3.80
   1  -5 -13   34.46    3.54
  -1  -5  13   39.06    3.20
   1  -5 -12   83.39    5.37
  -1  -5  12   82.42    4.54
  -1  -5  11  433.88   13.45
   1  -5 -11  434.95   13.67
  -1  -5  11  429.46   12.32
   1  -5 -10  551.41   15.40
  -1  -5  10  533.23   15.08
  -1  -5  10  516.41   13.93
  -1  -5   9  139.78    6.06
   1  -5  -9  147.24    6.29
  -1  -5   9  140.58    5.43
   1  -5  -8  399.92   11.55
  -1  -5   8  380.42   11.30
  -1  -5   8  403.36   10.65
   1  -5  -7  573.25   14.48
  -1  -5   7  548.54   14.21
  -1  -5   7  558.98   13.57
  -1  -5   6   58.11    3.07
   1  -5  -6   57.58    3.13
  -1  -5   6   58.87    2.82
   1  -5  -6   62.74    3.32
  -1  -5   5   54.24    2.72
   1  -5  -5   54.78    2.83
   1  -5  -5   54.31    2.90
   1  -5  -4  217.07    6.18
  -1  -5   4  212.41    6.09
   1  -5  -4  215.36    6.44
  -1  -5   3  888.72   19.20
   1  -5  -3  926.91   19.40
   1  -5  -3  906.37   19.80
  -1  -5   2   57.20    2.20
   1  -5  -2   60.84    2.32
   1  -5  -2   62.71    2.68
   1  -5  -1  879.39   18.09
  -1  -5   1  860.68   18.00
  -1  -5   1  884.12   18.85
   1  -5  -1  875.57   18.79
   1  -5   0    6.24    0.65
  -1  -5   0    4.81    0.58
   1  -5   0    6.36    0.91
  -1  -5   0    4.68    0.80
   1  -5   1  210.37    5.29
   1  -5   1  210.14    5.74
  -1  -5  -1  218.19    5.79
   1  -5   1  203.24    5.33
   1  -5   2  510.63   12.26
   1  -5   2  528.69   12.06
  -1  -5  -2  522.61   11.99
  -1  -5  -2  533.97   11.75
   1  -5   2  515.50   11.76
   1  -5   3  159.19    5.16
  -1  -5  -3  152.17    4.76
  -1  -5  -3  157.95    4.81
   1  -5   3  156.50    4.83
   1  -5   4  104.81    3.96
   1  -5   4   97.93    4.02
  -1  -5  -4  103.00    3.75
  -1  -5  -4   99.86    3.84
   1  -5   5  520.27   13.30
   1  -5   5  541.91   13.50
  -1  -5  -5  542.05   12.91
  -1  -5  -5  543.17   13.30
   1  -5   6   68.50    3.58
   1  -5   6   66.78    3.60
  -1  -5  -6   68.69    3.30
  -1  -5  -6   69.57    3.58
   1  -5   7  186.15    6.89
   1  -5   7  194.00    6.87
  -1  -5  -7  186.20    6.82
  -1  -5  -8    6.48    1.44
   1  -5   8    8.03    1.56
   1  -5   8    6.58    1.34
   1  -5   9   13.07    1.97
  -1  -5  -9    7.45    1.46
   1  -5  10    6.57    1.39
  -1  -5 -10   10.74    1.94
   1  -5  11    3.68    1.41
  -1  -5 -11    2.67    1.39
  -1  -5 -12    6.80    1.84
  -1  -5 -13   37.62    3.71
  -1  -5 -14    2.37    1.47
  -1  -5 -15   12.03    2.66
  -1  -5 -16    5.58    2.11
  -1  -5 -17    1.73    1.81
  -1  -5 -18   -1.13    1.75
   1  -4 -19   39.22    4.81
   1  -4 -18   15.62    3.16
   1  -4 -17   15.39    3.07
   1  -4 -16   36.32    4.25
   1  -4 -15    4.82    1.75
   1  -4 -14   25.70    3.31
   1  -4 -13  154.51    7.77
  -1  -4  13  160.22    6.77
   1  -4 -12   60.62    4.55
  -1  -4  12   66.95    3.99
   1  -4 -11    9.21    1.85
  -1  -4  11   10.39    1.82
  -1  -4  11    9.82    1.59
  -1  -4  10   71.27    4.36
   1  -4 -10   67.69    4.34
  -1  -4  10   66.50    3.65
  -1  -4   9   81.73    4.44
   1  -4  -9   79.99    4.48
  -1  -4   9   73.38    3.66
   1  -4  -8   35.73    2.79
  -1  -4   8   36.96    2.76
  -1  -4   8   38.04    2.42
   1  -4  -7    4.04    1.12
  -1  -4   7    1.40    0.72
  -1  -4   7    1.64    0.77
   1  -4  -6   14.18    1.58
  -1  -4   6   14.93    1.60
  -1  -4   6   16.09    1.44
   1  -4  -5    2.17    0.77
  -1  -4   5    1.54    0.68
  -1  -4   5    0.97    0.53
   1  -4  -5    1.60    0.82
   1  -4  -4  436.17   10.62
   1  -4  -4  443.99   10.72
  -1  -4   4  429.72   10.56
   1  -4  -4  445.60   10.81
  -1  -4   3  335.28    7.93
   1  -4  -3  308.77    7.89
   1  -4  -3  313.97    8.08
   1  -4  -2  872.05   18.23
  -1  -4   2  861.43   18.14
   1  -4  -2  870.29   18.53
   1  -4  -1  247.28    5.90
  -1  -4   1  241.75    5.83
  -1  -4   1  239.74    6.22
   1  -4  -1  242.84    6.18
  -1  -4   0  102.83    2.99
   1  -4   0  103.88    3.03
  -1  -4   0   94.89    3.19
   1  -4   0  109.41    3.30
   1  -4   1 1013.12   20.60
   1  -4   1 1008.80   20.76
   1  -4   1  975.06   21.00
  -1  -4  -1 1016.79   20.77
   1  -4   1  981.41   20.63
   1  -4   2  385.92    8.96
  -1  -4  -2  377.37    8.89
   1  -4   2  383.25    9.29
   1  -4   2  381.53    9.04
  -1  -4  -2  379.06    8.98
   1  -4   3   24.08    1.71
  -1  -4  -3   27.88    1.60
  -1  -4  -3   24.50    1.65
   1  -4   3   19.41    1.48
   1  -4   4  176.05    5.67
  -1  -4  -4  183.87    5.25
   1  -4   4  175.71    5.58
  -1  -4  -4  170.35    5.48
   1  -4   5   94.09    4.03
   1  -4   5   91.19    3.91
  -1  -4  -5   91.50    3.56
  -1  -4  -5   93.35    3.95
   1  -4   6   37.92    2.63
  -1  -4  -6   39.73    2.66
   1  -4   7   38.37    2.81
  -1  -4  -7   41.32    2.91
  -1  -4  -8   11.83    1.71
   1  -4   8    4.77    1.24
   1  -4   9  356.96   11.28
  -1  -4  -9  334.69   10.91
  -1  -4 -10    3.83    1.35
   1  -4  10    4.18    1.33
   1  -4  11   40.81    3.63
  -1  -4 -11   40.22    3.54
  -1  -4 -12  135.48    6.98
  -1  -4 -13   89.91    5.84
  -1  -4 -14   33.95    3.75
  -1  -4 -15   41.62    4.33
  -1  -4 -16   15.85    2.90
  -1  -4 -17   33.16    4.27
  -1  -4 -18   12.21    2.91
   1  -3 -19    5.15    1.97
   1  -3 -18   13.50    3.07
   1  -3 -17   14.01    2.80
   1  -3 -16   96.14    6.70
   1  -3 -15   18.17    3.00
   1  -3 -14   54.18    4.70
   1  -3 -13   14.84    2.58
   1  -3 -12  126.82    6.69
   1  -3 -11   99.36    5.58
  -1  -3  11   96.86    5.44
  -1  -3  11   99.44    5.37
  -1  -3  10  793.58   20.25
   1  -3 -10  776.52   20.37
  -1  -3  10  785.29   20.09
  -1  -3   9   28.69    2.61
   1  -3  -9   29.57    2.70
  -1  -3   8  839.84   20.79
   1  -3  -8  909.16   21.12
  -1  -3   8  856.44   19.50
  -1  -3   7  150.78    5.72
   1  -3  -7  155.06    5.85
  -1  -3   7  155.71    5.04
   1  -3  -6  346.72    9.46
  -1  -3   6  333.52    9.35
  -1  -3   6  330.94    8.45
   1  -3  -5  205.99    6.18
  -1  -3   5  194.20    6.03
  -1  -3   5  191.69    5.34
   1  -3  -4  822.84   17.97
  -1  -3   4  799.79   17.86
   1  -3  -4  810.12   17.90
  -1  -3   4  803.25   17.09
   1  -3  -4  831.44   17.94
  -1  -3   3  734.37   15.92
   1  -3  -3  727.71   15.98
   1  -3  -3  738.13   16.00
  -1  -3   2 2321.26   47.21
   1  -3  -2 2402.72   47.30
   1  -3  -2 2425.06   47.33
  -1  -3   1   40.29    1.70
   1  -3  -1   47.06    1.81
   1  -3  -1   44.26    1.79
  -1  -3   0   29.26    1.36
   1  -3   0   26.98    1.33
  -1  -3   0   33.80    1.44
   1  -3   0   26.89    1.30
   1  -3   1  117.83    3.43
   1  -3   1  113.87    3.50
   1  -3   1  118.82    3.27
  -1  -3  -1  117.50    3.27
   1  -3   1  114.23    3.44
   1  -3   2 1331.32   27.49
   1  -3   2 1323.88   27.39
  -1  -3  -2 1316.36   27.37
  -1  -3  -2 1356.91   26.93
   1  -3   3 1761.29   36.11
  -1  -3  -3 1794.43   35.42
  -1  -3  -3 1721.57   36.00
  -1  -3  -4 1300.87   26.85
   1  -3   4 1228.18   26.75
  -1  -3  -4 1246.62   26.01
   1  -3   5   58.23    3.08
  -1  -3  -5   63.36    3.19
   1  -3   6  717.99   17.37
  -1  -3  -6  714.27   17.27
   1  -3   7   54.19    3.32
  -1  -3  -7   48.50    3.16
   1  -3   8   61.10    3.79
  -1  -3  -8   58.59    3.66
   1  -3   9   68.13    4.24
  -1  -3  -9   61.46    3.98
  -1  -3 -10    6.44    1.63
   1  -3  10    7.88    1.76
   1  -3  11    7.01    1.65
  -1  -3 -11    4.83    1.49
  -1  -3 -12    3.76    1.48
  -1  -3 -13   16.85    2.62
  -1  -3 -14    0.96    1.25
  -1  -3 -15    3.28    1.68
  -1  -3 -16   -0.07    1.85
  -1  -3 -17    1.63    1.59
  -1  -3 -18    2.79    1.81
   1  -2 -19   31.51    4.29
   1  -2 -18    1.78    2.05
   1  -2 -17    8.50    2.58
   1  -2 -16   12.97    2.81
   1  -2 -15   21.15    3.18
   1  -2 -14    6.86    2.07
   1  -2 -13   74.34    5.21
   1  -2 -12   31.48    3.32
   1  -2 -11   33.40    3.22
  -1  -2  11   36.48    3.25
  -1  -2  11   33.67    3.11
   1  -2 -10    5.67    1.50
  -1  -2  10    8.38    1.84
  -1  -2  10    6.80    1.64
   1  -2  -9    2.16    1.20
  -1  -2   9    1.08    0.88
  -1  -2   9    0.73    0.95
   1  -2  -8    2.02    1.24
  -1  -2   8    0.55    0.80
  -1  -2   7   93.20    4.27
   1  -2  -7   86.54    4.18
  -1  -2   6   25.29    1.98
   1  -2  -6   26.60    2.15
  -1  -2   5  222.77    6.50
   1  -2  -5  211.42    6.44
  -1  -2   5  209.00    5.54
  -1  -2   4  151.32    4.78
   1  -2  -4  164.65    4.99
   1  -2  -4  160.18    4.89
  -1  -2   4  144.49    4.01
  -1  -2   3   68.77    2.69
   1  -2  -3   70.18    2.74
   1  -2  -2  181.10    4.74
  -1  -2   2  167.47    4.63
   1  -2  -2  170.95    4.52
  -1  -2   1 2806.21   54.94
   1  -2  -1 2793.15   54.97
   1  -2  -1 2788.25   54.64
  -1  -2   0  198.25    4.92
   1  -2   0  201.63    4.94
   1  -2   0  196.34    4.53
   1  -2   0  194.59    4.70
  -1  -2   0  194.46    4.55
   1  -2   1  369.18    8.33
  -1  -2  -1  356.11    7.73
   1  -2   1  359.63    8.20
   1  -2   1  361.18    7.74
  -1  -2  -1  371.78    8.37
   1  -2   1  363.38    8.33
  -1  -2  -2  803.48   16.95
  -1  -2  -2  786.35   16.14
   1  -2   2  785.08   16.94
   1  -2   3 7412.72  146.78
  -1  -2  -3 7602.93  145.86
  -1  -2  -3 7532.95  146.76
  -1  -2  -4 1076.95   23.30
   1  -2   4 1075.56   23.32
  -1  -2  -5    5.85    1.12
   1  -2   5    9.59    1.32
   1  -2   6   44.73    2.86
  -1  -2  -6   44.00    2.83
   1  -2   7 2217.11   46.60
  -1  -2  -7 2180.90   46.43
   1  -2   8  339.05   10.40
  -1  -2  -8  298.90    9.84
   1  -2   9  685.43   17.97
  -1  -2  -9  640.81   17.45
   1  -2  10   71.21    4.53
  -1  -2 -10   56.86    4.02
   1  -2  11  217.26    8.72
  -1  -2 -11  174.71    7.92
  -1  -2 -12   48.92    4.12
  -1  -2 -13  287.83   11.25
  -1  -2 -14   70.31    5.34
  -1  -2 -15   54.08    4.95
  -1  -2 -16   17.78    3.09
  -1  -2 -17   25.53    3.66
  -1  -2 -18   15.69    3.13
   1  -1 -19   -1.40    2.58
   1  -1 -18    9.11    2.63
   1  -1 -17   65.49    5.86
   1  -1 -16   70.73    5.73
   1  -1 -15   91.49    6.31
   1  -1 -14    0.10    1.20
   1  -1 -13   57.09    4.58
   1  -1 -12  208.64    8.90
  -1  -1  11  549.88   16.47
   1  -1 -11  616.17   17.03
  -1  -1  11  594.88   16.60
   1  -1 -10   79.30    4.68
  -1  -1  10   83.15    4.62
  -1  -1  10   71.15    4.50
  -1  -1   9 1406.30   33.10
   1  -1  -9 1558.92   33.68
  -1  -1   9 1479.39   33.22
   1  -1  -8  702.49   17.76
  -1  -1   8  717.98   17.84
   1  -1  -7 1025.84   22.77
  -1  -1   7  937.66   22.46
  -1  -1   6  371.97   10.09
   1  -1  -6  373.36   10.14
   1  -1  -5  860.72   18.97
  -1  -1   5  825.01   18.85
  -1  -1   4  904.12   19.99
   1  -1  -4  924.28   20.07
   1  -1  -4  948.99   20.17
   1  -1  -3 2244.12   44.62
  -1  -1   3 2195.99   44.53
  -1  -1   3 2223.04   43.35
  -1  -1   2 3311.36   64.87
   1  -1  -2 3286.06   64.87
  -1  -1   1   68.65    2.37
   1  -1  -1   75.17    2.47
   1  -1  -1   78.60    2.12
  -1  -1   0 1863.82   37.31
   1  -1   0 1896.04   37.34
   1  -1   1  666.49   14.19
  -1  -1  -1  656.83   14.19
   1  -1   1  676.43   14.25
   1  -1   2  920.16   19.81
  -1  -1  -2  959.78   19.84
  -1  -1  -3 6061.63  115.64
   1  -1   3 5754.37  115.63
  -1  -1  -4 5450.84  107.86
   1  -1   4 5504.01  107.87
   1  -1   5 1885.21   39.22
  -1  -1  -5 1855.22   39.11
   1  -1   6  490.56   12.73
  -1  -1  -6  474.35   12.58
   1  -1   7  900.22   21.34
  -1  -1  -7  889.02   21.19
   1  -1   8  352.75   10.80
  -1  -1  -8  334.40   10.48
   1  -1   9  172.21    7.04
  -1  -1  -9  143.98    6.44
   1  -1  10   67.18    4.42
  -1  -1 -10   65.55    4.29
   1  -1  11  100.46    5.73
  -1  -1 -11   88.34    5.31
  -1  -1 -12   22.84    2.82
  -1  -1 -13   82.28    5.54
  -1  -1 -14   29.85    3.49
  -1  -1 -15   15.76    2.82
  -1  -1 -16   10.49    2.63
  -1  -1 -17   10.44    2.63
  -1  -1 -18    2.68    1.77
   1   0 -19   11.10    2.88
   1   0 -18   -0.90    1.82
   1   0 -17   11.81    2.83
   1   0 -16    2.82    1.58
   1   0 -15    0.52    1.30
   1   0 -14   42.27    4.09
   1   0 -13   12.63    2.29
   1   0 -12   85.59    5.36
  -1   0  11    5.59    1.62
  -1   0  11    6.53    1.55
   1   0 -11    5.97    1.81
  -1   0  10   37.92    3.20
   1   0 -10   39.62    3.27
  -1   0  10   41.92    3.28
   1   0  -9   40.38    3.21
  -1   0   9   28.68    2.75
  -1   0   9   36.73    2.92
  -1   0   8    1.96    0.94
   1   0  -8    3.10    1.21
   1   0  -7   17.59    1.91
  -1   0   7   14.95    1.81
  -1   0   6  204.04    6.75
   1   0  -6  229.94    7.03
  -1   0   5   57.16    2.81
   1   0  -5   53.16    2.77
   1   0  -4  203.78    6.19
   1   0  -4  220.30    6.15
  -1   0   4  213.83    6.08
  -1   0   3   25.12    1.56
   1   0  -3   27.82    1.67
   1   0  -2  860.67   17.67
  -1   0   2  818.78   17.60
   1   0  -1    9.34    0.83
  -1   0   1   10.93    0.83
   1   0   0  743.31   15.47
  -1   0   0  740.74   15.48
   1   0   1  180.59    4.79
  -1   0  -1  182.01    4.81
   1   0   1  190.55    4.88
  -1   0  -2    6.26    0.89
   1   0   2    5.80    0.79
  -1   0  -3   72.14    2.97
   1   0   3   66.92    2.89
  -1   0  -4 2535.13   51.93
   1   0   4 2593.97   51.97
   1   0   5  239.44    7.35
  -1   0  -5  245.94    7.37
   1   0   6    6.12    1.13
  -1   0  -6    1.18    0.97
  -1   0  -7   12.10    1.75
   1   0   7   11.99    1.67
  -1   0  -8   12.21    1.81
   1   0   8   16.16    2.01
   1   0   9   17.75    2.22
  -1   0  -9   16.85    2.16
   1   0  10   76.67    4.79
  -1   0 -10   82.01    4.82
   1   0  11   18.62    2.52
  -1   0 -11   18.87    2.50
  -1   0 -12   72.54    4.98
  -1   0 -13    2.02    1.33
  -1   0 -14   81.54    5.75
  -1   0 -15    7.71    2.19
  -1   0 -16   84.80    6.38
  -1   0 -17   -0.71    1.71
  -1   0 -18   13.64    2.97
   1   1 -19    0.01    1.86
   1   1 -18   17.96    3.31
   1   1 -17   63.43    5.64
   1   1 -16   77.81    6.02
   1   1 -15   94.08    6.39
   1   1 -14    1.20    1.34
   1   1 -13   58.29    4.63
   1   1 -12  204.05    8.74
   1   1 -11  582.46   16.62
  -1   1  11  549.62   16.23
  -1   1  11  586.17   16.37
   1   1 -10   81.85    4.78
  -1   1  10   82.01    4.74
  -1   1  10   77.71    4.49
   1   1  -9 1502.52   33.35
  -1   1   9 1458.15   33.09
  -1   1   9 1449.49   33.01
  -1   1   8  689.89   17.47
   1   1  -8  709.75   17.65
  -1   1   7  969.38   22.40
   1   1  -7  974.19   22.43
   1   1  -6  377.91   10.15
  -1   1   6  366.75   10.04
   1   1  -5  863.25   19.14
  -1   1   5  840.82   19.03
   1   1  -4  918.05   19.78
  -1   1   4  892.63   19.59
   1   1  -4  896.74   19.58
  -1   1   3 2134.72   43.89
   1   1  -3 2245.23   43.98
  -1   1   2 3260.73   63.59
   1   1  -2 3171.48   63.55
  -1   1   2 3256.36   63.22
   1   1  -1   74.83    2.41
  -1   1   1   65.02    2.28
  -1   1   1   69.75    1.99
   1   1   0 1956.40   38.84
  -1   1   0 1960.62   38.84
   1   1   1  653.78   13.78
   1   1   1  623.07   13.76
  -1   1  -1  660.07   13.84
   1   1   2  900.52   18.04
  -1   1  -2  923.23   19.11
   1   1   2  879.19   19.03
   1   1   3 5734.25  109.94
   1   1   3 5641.01  111.03
  -1   1  -3 5570.09  110.97
   1   1   4 5654.26  107.63
  -1   1  -4 5452.84  108.69
   1   1   4 5378.04  108.69
   1   1   5 1875.64   39.20
  -1   1  -5 1863.56   39.09
   1   1   6  482.33   12.78
  -1   1  -6  492.87   12.76
   1   1   7  878.18   20.80
  -1   1  -7  854.30   20.60
   1   1   8  352.52   10.79
  -1   1  -8  327.27   10.35
   1   1   9  166.96    7.04
  -1   1  -9  159.85    6.79
   1   1  10   68.60    4.46
  -1   1 -10   60.38    4.14
   1   1  11   94.53    5.55
   1   1  11   99.25    4.90
  -1   1 -11   89.73    5.44
  -1   1 -12   20.63    2.77
   1   1  12   26.71    2.62
  -1   1 -13   73.26    5.24
  -1   1 -14   33.43    3.73
  -1   1 -15   16.19    2.90
  -1   1 -16   10.80    2.51
  -1   1 -17    9.10    2.55
  -1   1 -18    0.76    1.79
   1   2 -19   34.61    4.57
   1   2 -18    2.21    2.06
   1   2 -17    9.44    2.60
   1   2 -16   10.76    2.53
   1   2 -15   14.51    2.63
   1   2 -14    2.72    1.36
   1   2 -13   72.88    5.19
   1   2 -12   37.36    3.57
  -1   2  11   32.48    3.08
  -1   2  11   37.00    3.23
   1   2 -11   31.83    3.17
  -1   2  11   31.30    2.86
   1   2 -10    5.53    1.47
  -1   2  10    8.06    1.54
  -1   2  10    7.07    1.53
  -1   2  10    6.33    1.34
   1   2  -9   -0.25    0.91
  -1   2   9    0.70    0.90
  -1   2   9    1.57    1.04
  -1   2   9    1.28    0.92
  -1   2   8    0.54    0.76
   1   2  -8    0.78    0.94
  -1   2   8    0.90    0.71
  -1   2   7   76.62    4.00
   1   2  -7   90.01    4.22
  -1   2   7   90.30    3.99
   1   2  -6   24.92    2.03
  -1   2   6   26.21    2.05
  -1   2   6   27.03    2.08
  -1   2   5  204.40    6.28
   1   2  -5  223.91    6.48
  -1   2   5  202.13    6.12
   1   2  -4  154.01    4.87
  -1   2   4  157.10    4.86
   1   2  -4  151.70    4.81
  -1   2   4  151.63    4.72
   1   2  -3   67.86    2.69
  -1   2   3   69.37    2.68
   1   2  -3   68.24    2.11
  -1   2   3   69.40    2.62
  -1   2   2  171.08    4.65
   1   2  -2  176.59    4.68
  -1   2   2  166.99    4.45
   1   2  -1 2684.91   52.99
  -1   2   1 2691.44   53.00
  -1   2   1 2703.57   52.72
   1   2   0  195.56    4.92
  -1   2   0  202.31    4.97
  -1   2   0  203.87    4.75
  -1   2   0  193.17    4.55
   1   2   1  368.06    8.42
   1   2   1  370.75    7.88
   1   2   1  368.16    8.45
   1   2   2  801.20   16.33
   1   2   2  810.93   17.11
  -1   2  -2  780.79   17.06
   1   2   3 7516.73  144.51
   1   2   3 7407.00  145.46
  -1   2  -3 7425.91  145.42
  -1   2  -4 1105.61   23.68
   1   2   4 1103.19   23.71
   1   2   4 1084.00   22.71
   1   2   5    7.93    1.24
  -1   2  -5    5.70    1.07
   1   2   5    6.43    0.92
   1   2   6   41.27    2.74
  -1   2  -6   39.60    2.70
   1   2   6   40.55    2.24
   1   2   7 2288.08   46.92
  -1   2  -7 2131.48   46.49
   1   2   7 2207.06   45.42
   1   2   8  324.72   10.23
   1   2   8  319.24    9.11
  -1   2  -8  311.96    9.95
   1   2   9  680.76   18.07
   1   2   9  682.34   16.65
  -1   2  -9  655.44   17.67
   1   2  10   69.80    4.51
   1   2  10   64.44    3.76
  -1   2 -10   62.66    4.23
   1   2  11  185.19    8.10
   1   2  11  196.35    7.29
  -1   2 -11  170.11    7.80
   1   2  12   46.90    3.48
  -1   2 -12   45.77    3.97
  -1   2 -13  297.41   11.49
  -1   2 -14   67.71    5.28
  -1   2 -15   53.64    4.92
  -1   2 -16   22.41    3.45
  -1   2 -17   23.13    3.68
  -1   2 -18   18.05    3.46
   1   3 -19    6.04    2.56
   1   3 -18   16.33    3.09
   1   3 -17   15.53    3.10
   1   3 -16  106.12    7.09
   1   3 -15   22.02    3.27
   1   3 -14   52.82    4.51
   1   3 -13   13.89    2.46
   1   3 -12  132.63    6.84
  -1   3  11   95.65    5.28
  -1   3  11   88.59    5.21
   1   3 -11   97.11    5.47
  -1   3  11   98.45    5.17
  -1   3  10  819.36   20.81
   1   3 -10  803.63   20.96
  -1   3  10  785.56   20.83
  -1   3  10  866.25   20.66
  -1   3   9   29.17    2.65
   1   3  -9   26.33    2.59
  -1   3   9   29.93    2.57
   1   3  -8  887.61   21.36
  -1   3   8  848.86   21.21
  -1   3   8  926.64   21.06
  -1   3   7  155.34    5.80
   1   3  -7  151.16    5.78
  -1   3   7  155.23    5.63
   1   3  -6  334.21    9.23
  -1   3   6  308.58    9.04
  -1   3   6  340.86    9.14
   1   3  -5  190.18    6.01
  -1   3   5  194.30    6.01
  -1   3   5  197.70    5.99
   1   3  -4  867.39   18.30
   1   3  -4  802.75   18.12
  -1   3   4  811.96   18.16
   1   3  -4  851.89   17.46
  -1   3   4  800.16   18.07
   1   3  -3  741.55   15.90
  -1   3   3  723.01   15.82
   1   3  -3  722.46   15.23
  -1   3   3  725.98   15.84
   1   3  -2 2335.55   46.54
  -1   3   2 2343.98   46.57
  -1   3   2 2355.72   46.62
   1   3  -1   43.85    1.78
  -1   3   1   46.09    1.82
  -1   3   1   47.60    1.86
   1   3   0   25.84    1.30
  -1   3   0   28.57    1.34
  -1   3   0   27.63    1.31
  -1   3   0   30.09    1.41
   1   3   0   26.75    1.31
   1   3   1  125.29    3.49
   1   3   1  113.28    3.26
  -1   3  -1  114.40    3.27
  -1   3  -1  112.48    3.52
   1   3   1  124.71    3.53
   1   3   2 1347.33   26.98
  -1   3  -2 1361.64   27.44
   1   3   2 1292.35   27.39
   1   3   3 1783.55   35.99
   1   3   3 1847.70   36.73
  -1   3  -3 1751.09   36.59
  -1   3  -4 1216.53   25.89
   1   3   4 1188.38   25.90
   1   3   4 1221.79   25.16
   1   3   5   63.12    3.18
   1   3   5   58.99    2.65
  -1   3  -5   59.94    3.08
   1   3   6  712.54   17.22
   1   3   6  708.17   16.18
  -1   3  -6  705.90   17.10
   1   3   7   52.22    3.27
   1   3   7   48.01    2.71
  -1   3  -7   45.28    3.07
   1   3   8   55.16    3.64
  -1   3  -8   64.25    3.81
   1   3   8   56.73    3.14
   1   3   9   67.16    4.27
  -1   3  -9   65.26    4.10
   1   3   9   67.64    3.64
  -1   3 -10    3.34    1.21
   1   3  10    5.56    1.44
   1   3  10    2.41    1.05
  -1   3 -11    9.14    1.92
   1   3  11    7.60    1.74
   1   3  11    4.61    1.22
  -1   3 -12    2.76    1.40
   1   3  12    1.66    0.94
  -1   3 -13   19.60    2.77
  -1   3 -14   -0.51    1.46
  -1   3 -15    3.64    1.65
  -1   3 -16    3.36    1.82
  -1   3 -17    1.05    1.73
  -1   3 -18    1.39    1.74
   1   4 -19   39.28    4.75
   1   4 -18   11.93    2.67
   1   4 -17   13.06    2.88
   1   4 -16   38.91    4.46
   1   4 -15    4.61    1.84
   1   4 -14   29.29    3.48
   1   4 -13  154.56    7.71
   1   4 -12   61.15    4.52
   1   4 -11    5.65    1.50
  -1   4  11   10.22    1.91
  -1   4  11   10.47    1.65
   1   4 -10   67.61    4.33
  -1   4  10   73.78    4.50
  -1   4  10   65.93    4.07
   1   4  -9   80.40    4.48
  -1   4   9   80.62    4.41
  -1   4   9   80.93    4.32
   1   4  -8   41.49    2.98
  -1   4   8   36.31    2.81
  -1   4   8   36.84    2.69
  -1   4   7    1.69    0.83
   1   4  -7    0.95    0.95
  -1   4   7    2.89    0.97
  -1   4   6   14.07    1.49
   1   4  -6   17.18    1.67
  -1   4   6   11.38    1.44
  -1   4   5    0.94    0.53
   1   4  -5    2.05    0.77
  -1   4   5    1.45    0.69
  -1   4   4  426.23   10.41
   1   4  -4  431.73   10.42
   1   4  -4  444.56   10.03
  -1   4   4  410.39   10.46
   1   4  -3  318.97    7.87
  -1   4   3  316.65    7.85
   1   4  -3  320.55    7.64
  -1   4   3  313.09    8.05
   1   4  -2  918.72   18.90
  -1   4   2  880.19   18.84
  -1   4   2  916.12   19.25
  -1   4   1  236.94    5.83
   1   4  -1  248.31    5.83
  -1   4   1  238.14    6.15
   1   4   0  102.77    2.98
  -1   4   0   96.90    2.95
  -1   4   0   98.18    3.19
  -1   4   0  102.78    3.28
   1   4   0  102.99    3.25
   1   4   1  988.29   20.26
  -1   4  -1  992.91   20.73
   1   4   1  961.05   20.41
  -1   4  -1  960.86   20.42
   1   4   1 1011.20   20.36
  -1   4  -2  387.65    9.30
   1   4   2  380.89    8.89
  -1   4  -2  386.36    8.97
   1   4   2  365.83    8.93
   1   4   3   20.93    1.41
  -1   4  -3   23.05    1.64
   1   4   3   18.35    1.43
   1   4   4  172.49    5.59
   1   4   4  183.84    5.33
  -1   4  -4  183.16    5.63
   1   4   5   93.13    4.00
  -1   4  -5   87.88    3.84
   1   4   5   92.23    3.55
   1   4   6   45.80    2.90
  -1   4  -6   42.85    2.77
   1   4   6   42.83    2.45
   1   4   7   39.28    2.81
   1   4   7   38.01    2.45
  -1   4  -7   40.90    2.88
  -1   4  -8    2.07    1.16
   1   4   8    5.43    1.36
   1   4   8    4.79    1.08
   1   4   9  354.58   11.12
  -1   4  -9  317.88   10.57
   1   4   9  331.34    9.90
  -1   4 -10    4.92    1.57
   1   4  10    2.58    1.30
   1   4  10    1.51    0.98
   1   4  11   43.71    3.78
   1   4  11   35.18    2.90
  -1   4 -11   39.91    3.52
  -1   4 -12  126.06    6.74
   1   4  12  135.76    6.26
  -1   4 -13   87.27    5.71
  -1   4 -14   36.50    3.93
  -1   4 -15   37.69    4.17
  -1   4 -16   18.51    3.13
  -1   4 -17   23.67    3.78
  -1   4 -18   14.28    3.04
   1   5 -19    5.69    2.41
   1   5 -18    3.91    1.82
   1   5 -17   68.09    5.91
   1   5 -16   17.22    3.14
   1   5 -15   36.57    4.03
   1   5 -14   34.82    3.77
   1   5 -13   34.62    3.57
   1   5 -12   94.28    5.66
   1   5 -11  425.80   13.48
  -1   5  11  409.46   13.23
  -1   5  11  444.81   13.17
  -1   5  10  496.55   14.46
   1   5 -10  503.04   14.61
  -1   5  10  503.42   14.23
   1   5  -9  148.62    6.36
  -1   5   9  150.87    6.36
  -1   5   9  154.33    6.29
  -1   5   8  377.67   11.28
   1   5  -8  394.34   11.46
  -1   5   8  411.43   11.42
   1   5  -7  569.76   14.40
  -1   5   7  556.53   14.31
  -1   5   7  551.76   14.26
   1   5  -6   60.45    3.18
  -1   5   6   61.83    3.17
  -1   5   6   60.57    3.25
   1   5  -5   52.72    2.73
  -1   5   5   54.30    2.71
   1   5  -5   54.41    2.56
  -1   5   5   51.22    2.81
   1   5  -4  208.69    6.00
  -1   5   4  203.83    5.98
   1   5  -4  214.20    5.92
  -1   5   4  212.91    6.36
   1   5  -3  921.21   19.75
  -1   5   3  927.44   20.28
  -1   5   3  940.95   19.77
   1   5  -2   60.74    2.29
  -1   5   2   60.45    2.28
  -1   5   2   60.66    2.67
   1   5  -1  878.07   17.93
  -1   5   1  862.97   17.95
  -1   5   1  857.38   18.63
  -1   5   0    4.82    0.62
   1   5   0    6.07    0.65
   1   5   0    4.06    0.76
  -1   5   0    4.56    0.77
   1   5   1  206.14    5.16
  -1   5  -1  202.82    5.64
  -1   5  -1  208.93    5.83
   1   5   1  202.94    5.62
   1   5   1  201.45    5.23
   1   5   2  506.40   11.74
  -1   5  -2  510.87   12.10
  -1   5  -2  510.02   11.47
   1   5   2  514.38   11.56
   1   5   3  161.15    4.91
  -1   5  -3  155.74    4.83
   1   5   3  160.82    4.91
   1   5   4   92.46    3.74
   1   5   4  101.58    3.73
  -1   5  -4   98.69    3.81
   1   5   5  526.68   13.26
   1   5   5  536.57   12.87
  -1   5  -5  534.54   13.18
   1   5   6   68.05    3.57
  -1   5  -6   68.33    3.54
   1   5   6   71.43    3.35
   1   5   7  204.66    7.23
   1   5   7  195.76    6.55
  -1   5  -7  194.10    7.00
  -1   5  -8    8.44    1.54
   1   5   8    9.58    1.56
   1   5   8    7.11    1.30
   1   5   9   15.51    2.10
  -1   5  -9    9.34    1.72
   1   5   9   10.50    1.56
   1   5  10    8.96    1.71
  -1   5 -10    7.56    1.57
   1   5  10    8.60    1.55
   1   5  11    4.75    1.45
  -1   5 -11    3.84    1.28
   1   5  11    0.98    0.85
  -1   5 -12    6.99    1.78
   1   5  12    6.80    1.59
  -1   5 -13   37.24    3.78
  -1   5 -14    3.65    1.84
  -1   5 -15    8.68    2.35
  -1   5 -16    6.25    2.22
  -1   5 -17   -4.00    2.40
  -1   5 -18   -0.24    1.86
   1   6 -19   -1.71    1.56
   1   6 -18   19.70    3.44
   1   6 -17    0.22    1.85
   1   6 -16   18.98    3.20
   1   6 -15    9.27    2.33
   1   6 -14    6.45    1.90
   1   6 -13   35.47    3.67
   1   6 -12   34.30    3.36
  -1   6  11   13.37    2.13
   1   6 -11   12.56    2.17
   1   6 -10   44.62    3.48
  -1   6  10   36.99    3.15
  -1   6  10   37.86    3.11
   1   6  -9   47.54    3.43
  -1   6   9   52.55    3.51
  -1   6   9   47.63    3.36
   1   6  -8   51.58    3.35
  -1   6   8   47.34    3.18
  -1   6   8   51.03    3.30
  -1   6   7   16.44    1.74
   1   6  -7   12.26    1.61
  -1   6   7   13.39    1.63
   1   6  -6   36.63    2.42
  -1   6   6   34.04    2.32
   1   6  -6   35.52    2.28
  -1   6   6   34.74    2.48
  -1   6   5  645.05   15.30
   1   6  -5  657.00   15.37
   1   6  -5  674.82   15.30
  -1   6   5  661.51   15.86
   1   6  -4  100.17    3.65
  -1   6   4   99.92    3.67
   1   6  -4  101.27    3.78
  -1   6   4  100.17    4.06
   1   6  -3  177.69    5.10
  -1   6   3  181.70    5.73
  -1   6   3  178.81    5.05
   1   6  -2  212.86    5.43
  -1   6   2  204.59    5.39
  -1   6   2  216.79    6.29
   1   6  -1   16.29    1.03
  -1   6   1   14.05    0.96
  -1   6   1   12.74    1.29
   1   6   0 1693.46   33.51
  -1   6   0 1701.37   33.59
  -1   6   0 1709.84   34.71
   1   6   0 1651.57   34.67
   1   6   0 1656.18   33.54
   1   6   1  160.44    4.22
  -1   6  -1  153.80    4.91
   1   6   1  161.92    4.98
  -1   6  -1  155.14    5.02
   1   6   1  152.81    4.27
   1   6   2 1093.66   23.10
  -1   6  -2 1067.84   23.33
   1   6   2 1078.36   22.50
  -1   6  -2 1069.35   22.39
   1   6   3   45.46    2.39
  -1   6  -3   42.93    2.51
  -1   6  -3   46.34    2.26
   1   6   3   45.84    2.26
   1   6   4  719.53   16.23
   1   6   4  691.32   16.19
  -1   6  -4  704.95   16.08
   1   6   5   59.80    3.14
   1   6   5   62.09    3.06
  -1   6  -5   63.95    3.14
   1   6   6  261.22    8.25
   1   6   6  278.04    8.09
  -1   6  -6  268.07    8.22
   1   6   7   34.70    2.71
  -1   6  -7   39.49    2.81
   1   6   7   34.07    2.48
   1   6   8  373.16   11.25
   1   6   8  363.89   10.59
  -1   6  -8  359.21   10.99
   1   6   9    0.88    1.02
  -1   6  -9    2.76    1.16
   1   6   9    2.38    0.98
   1   6  10  327.62   11.07
  -1   6 -10  305.36   10.68
   1   6  10  323.37   10.25
   1   6  11    1.65    1.21
  -1   6 -11    1.10    0.97
   1   6  11    0.02    0.81
  -1   6 -12  218.84    9.23
  -1   6 -13    4.44    1.66
  -1   6 -14  144.85    7.85
  -1   6 -15   -1.83    1.80
  -1   6 -16   87.25    6.47
  -1   6 -17   -3.00    1.79
  -1   6 -18   15.68    3.42
   1   7 -19   13.44    3.06
   1   7 -18   15.39    3.12
   1   7 -17    0.40    1.49
   1   7 -16   56.97    5.16
   1   7 -15   21.23    3.16
   1   7 -14   27.86    3.41
   1   7 -13   21.03    2.83
   1   7 -12   50.42    4.09
   1   7 -11  105.63    5.73
  -1   7  11  103.38    5.63
  -1   7  10   81.96    4.71
   1   7 -10   77.70    4.65
  -1   7  10   77.70    4.61
   1   7  -9  364.30   11.22
  -1   7   9  349.36   10.98
  -1   7   9  365.72   11.25
   1   7  -8  132.03    5.64
  -1   7   8  137.19    5.65
  -1   7   8  130.15    5.73
  -1   7   7   62.33    3.42
   1   7  -7   60.99    3.44
  -1   7   7   62.49    3.66
  -1   7   6  274.31    8.14
   1   7  -6  287.77    8.32
   1   7  -6  288.42    8.25
  -1   7   6  273.07    8.63
  -1   7   5   17.35    1.53
   1   7  -5   20.26    1.68
  -1   7   5   21.33    1.96
   1   7  -5   19.47    1.72
   1   7  -4  418.83   10.22
   1   7  -4  427.37   10.71
  -1   7   4  425.28   11.14
  -1   7   4  411.04   10.18
   1   7  -3  235.45    6.26
   1   7  -3  240.13    6.23
  -1   7   3  235.35    7.16
  -1   7   3  236.30    6.23
   1   7  -2 1508.26   30.71
  -1   7   2 1533.78   30.75
  -1   7   2 1526.92   32.18
   1   7  -1  505.42   11.02
  -1   7   1  513.14   11.08
  -1   7   1  519.98   12.45
   1   7   0   24.92    1.23
  -1   7   0   29.09    1.96
   1   7   0   24.59    1.82
   1   7   0   25.06    1.25
   1   7   1   22.19    1.22
  -1   7  -1   25.23    1.89
  -1   7  -1   25.43    1.87
   1   7   1   21.69    1.75
   1   7   1   23.91    1.30
   1   7   2  100.06    4.01
  -1   7  -2  109.98    4.28
   1   7   2  116.05    3.62
  -1   7  -2  108.85    3.48
   1   7   3   19.36    1.44
   1   7   3   20.26    1.67
  -1   7  -3   16.29    1.70
  -1   7  -3   19.51    1.44
   1   7   4   33.55    2.12
  -1   7  -4   31.62    2.35
   1   7   4   43.24    2.55
  -1   7  -4   40.79    2.26
   1   7   5  448.65   11.73
   1   7   5  461.22   11.91
  -1   7  -5  460.77   11.66
   1   7   6  226.50    7.53
   1   7   6  240.17    7.58
  -1   7  -6  238.34    7.49
   1   7   7  125.11    5.49
   1   7   7  137.55    5.44
  -1   7  -7  130.22    5.42
   1   7   8    8.59    1.57
  -1   7  -8   10.47    1.63
   1   7   8   10.53    1.61
   1   7   9    3.28    1.25
  -1   7  -9    3.30    1.25
   1   7   9    1.13    0.95
   1   7  10   12.87    2.07
  -1   7 -10   14.85    2.14
   1   7  10   12.49    1.76
  -1   7 -11   11.37    2.10
   1   7  11   10.71    2.02
   1   7  11    9.67    1.71
  -1   7 -12   19.06    2.65
  -1   7 -13   15.33    2.55
  -1   7 -14   11.15    2.44
  -1   7 -15    4.42    1.96
  -1   7 -16    3.94    1.83
  -1   7 -17   12.28    2.88
  -1   7 -18   -0.78    1.89
   1   8 -19    6.74    2.69
   1   8 -18   10.94    3.49
   1   8 -17   13.09    2.95
   1   8 -16   10.60    2.69
   1   8 -15    7.46    2.16
   1   8 -14    0.55    1.30
   1   8 -13    6.03    1.73
   1   8 -12    1.03    1.20
  -1   8  11   11.46    1.86
   1   8 -11   15.69    2.28
  -1   8  10   12.29    1.86
   1   8 -10   10.68    1.84
  -1   8   9    4.71    1.34
   1   8  -9    3.74    1.19
  -1   8   9    4.18    1.23
  -1   8   8   38.30    2.80
   1   8  -8   34.50    2.76
  -1   8   8   32.26    2.76
  -1   8   7   84.50    4.05
   1   8  -7   89.68    4.25
  -1   8   7   92.56    4.59
   1   8  -7   85.81    4.10
   1   8  -6   97.02    4.17
  -1   8   6   93.67    4.04
   1   8  -6   97.70    4.28
  -1   8   6   99.55    4.68
   1   8  -5   12.39    1.37
  -1   8   5   15.64    1.42
   1   8  -5   14.08    1.55
  -1   8   5   15.27    1.82
   1   8  -4  185.18    5.43
  -1   8   4  178.75    6.30
   1   8  -4  180.04    6.00
  -1   8   4  173.54    5.30
   1   8  -3  260.07    6.73
  -1   8   3  273.63    8.10
  -1   8   3  266.10    6.79
   1   8  -2   95.65    2.99
  -1   8   2   85.81    2.87
  -1   8   2   90.58    3.95
   1   8  -1 1525.57   30.62
  -1   8   1 1520.72   30.68
  -1   8   1 1577.42   32.68
   1   8   0  165.03    4.26
   1   8   0  163.88    5.66
  -1   8   0  174.93    5.78
   1   8   0  172.90    4.33
   1   8   1 1749.51   34.50
  -1   8  -1 1703.94   36.34
   1   8   1 1744.04   36.40
  -1   8  -1 1729.27   36.44
   1   8   1 1710.32   34.59
  -1   8  -2  404.47   10.70
   1   8   2  373.64   10.37
   1   8   2  406.62    9.34
   1   8   3 1674.26   34.29
   1   8   3 1659.27   35.35
  -1   8  -3 1677.01   35.65
  -1   8  -3 1662.24   34.14
   1   8   4  162.62    5.36
   1   8   4  169.81    5.95
  -1   8  -4  166.15    6.10
  -1   8  -4  170.37    5.35
   1   8   5  402.18   10.73
   1   8   5  416.85   11.22
  -1   8  -5  401.38   10.56
  -1   8  -6    9.63    1.43
   1   8   6    8.08    1.32
   1   8   6    8.95    1.38
   1   8   7  658.03   16.82
   1   8   7  684.72   16.95
  -1   8  -7  655.99   16.64
  -1   8  -8    6.68    1.38
   1   8   8    5.62    1.33
   1   8   8    7.19    1.39
   1   8   9  290.07   10.06
   1   8   9  306.59    9.93
  -1   8  -9  306.65   10.10
   1   8  10   88.12    5.11
   1   8  10   86.92    4.82
  -1   8 -10   79.86    4.81
   1   8  11  186.29    8.21
  -1   8 -11  194.75    8.23
  -1   8 -12    1.93    1.59
  -1   8 -13  258.30   10.58
  -1   8 -14   21.59    3.09
  -1   8 -15   65.39    5.40
  -1   8 -16   18.27    3.16
  -1   8 -17   56.81    5.42
  -1   8 -18   -2.08    1.87
   1   9 -19    2.25    2.10
   1   9 -18   37.95    4.56
   1   9 -17    3.05    1.93
   1   9 -16   70.35    5.79
   1   9 -15   21.82    3.28
   1   9 -14   36.47    3.80
   1   9 -13    3.60    1.67
   1   9 -12  183.96    8.24
  -1   9  11    1.47    1.05
   1   9 -11    0.29    1.15
   1   9 -10  476.40   14.02
  -1   9  10  469.86   13.85
  -1   9   9    5.13    1.33
   1   9  -9    7.30    1.56
  -1   9   9    4.52    1.39
  -1   9   8  519.31   14.02
   1   9  -8  534.59   14.28
  -1   9   8  533.15   14.90
  -1   9   7   29.12    2.30
   1   9  -7   26.14    2.22
  -1   9   7   27.77    2.57
   1   9  -7   28.66    2.42
   1   9  -6  841.44   19.36
  -1   9   6  833.94   19.24
  -1   9   6  848.92   20.55
   1   9  -6  824.47   19.79
  -1   9   5   61.84    2.98
   1   9  -5   65.95    3.07
   1   9  -5   62.69    3.41
  -1   9   5   64.92    3.71
   1   9  -4 1090.57   22.95
  -1   9   4 1092.32   24.72
   1   9  -4 1060.99   24.14
  -1   9   4 1058.79   22.87
   1   9  -3  446.04   10.23
  -1   9   3  446.04   11.96
  -1   9   3  435.09   10.18
   1   9  -2 2993.43   58.77
  -1   9   2 3082.75   61.20
  -1   9   2 2939.33   58.73
   1   9  -1   96.74    2.85
  -1   9   1   96.50    2.89
  -1   9   1  103.01    4.37
   1   9   0 1458.10   28.79
  -1   9   0 1480.59   31.31
   1   9   0 1467.49   31.33
   1   9   0 1408.61   28.83
   1   9   1  306.41    7.10
  -1   9  -1  308.72    8.96
   1   9   1  295.95    8.88
   1   9   1  316.42    7.27
   1   9   2  832.81   17.58
   1   9   2  868.02   19.65
  -1   9  -2  838.85   19.63
   1   9   2  821.67   17.75
   1   9   3  126.42    4.15
   1   9   3  122.47    4.96
  -1   9  -3  123.35    5.07
  -1   9  -3  118.33    3.95
   1   9   4 1071.57   23.43
  -1   9  -4 1094.33   24.83
   1   9   4 1050.55   24.43
  -1   9  -4 1098.64   23.32
   1   9   5   52.96    2.93
   1   9   5   55.71    3.31
  -1   9  -5   45.16    3.17
  -1   9  -5   53.73    2.85
   1   9   6  394.90   11.07
   1   9   6  415.89   11.63
  -1   9  -6  392.88   10.83
   1   9   7   55.49    3.44
   1   9   7   62.33    3.73
  -1   9  -7   54.00    3.31
   1   9   8  303.89    9.87
   1   9   8  311.03   10.03
  -1   9  -8  302.86    9.70
  -1   9  -9    1.75    1.08
   1   9   9    0.90    0.86
   1   9   9    1.79    0.85
  -1   9 -10   15.81    2.18
   1   9  10   14.45    2.10
   1   9  10   16.43    2.14
  -1   9 -11   45.36    3.76
  -1   9 -12   31.31    3.35
  -1   9 -13    3.06    1.41
  -1   9 -14   21.09    2.97
  -1   9 -15   -1.63    1.55
  -1   9 -16    5.01    2.10
  -1   9 -17   10.35    2.77
  -1   9 -18    4.73    2.18
   1  10 -18    6.66    2.34
   1  10 -17    9.62    2.73
   1  10 -16    6.90    2.46
   1  10 -15   11.48    2.55
   1  10 -14   10.98    2.38
   1  10 -13    9.61    2.03
   1  10 -12   31.19    3.21
   1  10 -11    4.45    1.52
  -1  10  11    5.35    1.55
   1  10 -10   18.25    2.28
  -1  10  10   12.91    1.95
   1  10  -9   98.27    5.00
  -1  10   9   96.49    4.87
  -1  10   8   27.89    2.42
   1  10  -8   32.77    2.67
  -1  10   8   34.43    3.00
   1  10  -8   31.03    2.68
   1  10  -7  187.28    6.68
  -1  10   7  190.84    6.62
  -1  10   7  210.20    7.79
   1  10  -7  185.61    7.03
   1  10  -6   73.53    3.53
  -1  10   6   75.16    3.52
  -1  10   6   72.08    4.17
   1  10  -6   67.74    3.81
   1  10  -5  135.69    4.81
  -1  10   5  146.26    6.04
   1  10  -5  133.77    5.50
  -1  10   5  142.27    4.82
   1  10  -4    5.23    0.89
  -1  10   4    6.47    1.32
  -1  10   4    5.62    0.86
   1  10  -3  180.64    4.94
  -1  10   3  167.24    6.40
  -1  10   3  173.38    4.89
   1  10  -2   65.79    2.26
  -1  10   2   59.82    2.23
  -1  10   2   65.03    3.59
   1  10  -1   39.17    1.55
  -1  10   1   44.16    1.66
  -1  10   1   44.66    2.89
   1  10  -1   37.93    1.51
   1  10   0  486.00   10.43
   1  10   0  473.88   12.94
  -1  10   0  502.68   13.08
   1  10   0  501.54   10.50
   1  10   1  203.56    5.01
   1  10   1  205.79    7.04
  -1  10  -1  202.53    6.98
   1  10   1  206.12    5.13
   1  10   2    2.79    0.63
   1  10   2    2.92    0.56
  -1  10  -2    3.02    1.10
   1  10   2    2.67    0.93
   1  10   3   22.20    1.54
  -1  10  -3   21.36    2.13
   1  10   3   22.09    2.08
  -1  10  -3   20.77    1.42
   1  10   4   34.94    2.15
  -1  10  -4   31.16    2.63
   1  10   4   34.23    2.62
  -1  10  -4   35.90    2.09
   1  10   5   20.19    1.82
   1  10   5   24.76    2.27
  -1  10  -5   19.21    2.15
  -1  10  -5   19.21    1.70
   1  10   6   73.68    3.76
   1  10   6   76.64    4.23
  -1  10  -6   79.60    3.77
   1  10   7    8.72    1.54
  -1  10  -7   13.22    1.73
   1  10   7   12.01    1.76
   1  10   8  123.17    5.64
   1  10   8  127.91    5.91
  -1  10  -8  120.48    5.44
   1  10   9   56.53    3.95
   1  10   9   63.05    4.15
  -1  10  -9   63.45    4.00
   1  10  10   87.47    5.11
  -1  10 -10   85.25    4.95
  -1  10 -11   71.09    4.74
  -1  10 -12   42.04    3.77
  -1  10 -13   27.40    3.29
  -1  10 -14   44.89    4.34
  -1  10 -15   54.42    4.96
  -1  10 -16   27.33    3.70
  -1  10 -17   13.22    3.04
  -1  10 -18    4.72    2.16
   1  11 -18    1.30    2.46
   1  11 -17   26.67    3.82
   1  11 -16   -0.15    1.46
   1  11 -15   75.14    5.74
   1  11 -14   -0.33    1.27
   1  11 -13   51.15    4.30
   1  11 -12    0.19    1.06
  -1  11  11  208.95    8.37
   1  11 -11  203.97    8.39
   1  11 -10   58.61    3.99
  -1  11  10   50.29    3.66
   1  11  -9  387.99   11.60
  -1  11   9  365.63   11.30
   1  11  -8   35.62    2.78
  -1  11   8   36.53    2.74
   1  11  -8   29.66    2.76
   1  11  -7  582.47   14.88
  -1  11   7  584.59   14.76
   1  11  -7  581.15   15.67
  -1  11   7  596.92   16.38
   1  11  -6    4.85    1.07
  -1  11   6    5.92    1.08
   1  11  -6    4.70    1.21
  -1  11   6    3.19    1.08
   1  11  -5  548.43   13.39
  -1  11   5  592.84   15.58
   1  11  -5  558.97   14.87
  -1  11   5  563.20   13.34
   1  11  -4   90.25    3.37
  -1  11   4   90.85    4.64
  -1  11   4   86.81    3.30
   1  11  -3  947.40   19.72
  -1  11   3  947.28   22.48
  -1  11   3  923.20   19.67
   1  11  -2   63.55    2.19
  -1  11   2   64.44    2.24
  -1  11   2   61.77    3.68
   1  11  -1  938.30   18.97
  -1  11   1  900.39   22.11
   1  11  -1  943.98   18.92
   1  11   0  209.34    4.87
   1  11   0  206.39    7.38
  -1  11   0  197.48    7.24
   1  11   0  215.25    4.94
   1  11   1  396.83    8.77
   1  11   1  393.83   11.42
  -1  11  -1  382.86   11.32
   1  11   1  398.98    8.65
   1  11   2   66.69    2.48
  -1  11  -2   65.50    3.81
   1  11   2   66.64    3.78
   1  11   2   65.67    2.35
   1  11   3  774.59   17.23
  -1  11  -3  780.32   19.49
   1  11   3  825.32   19.60
   1  11   4   17.09    1.50
   1  11   4   16.66    1.96
  -1  11  -4   20.99    2.32
  -1  11  -4   21.81    1.60
   1  11   5  533.13   13.52
   1  11   5  572.71   15.09
  -1  11  -5  562.99   15.23
  -1  11  -5  546.74   13.36
   1  11   6   44.32    2.85
   1  11   6   51.25    3.50
  -1  11  -6   46.61    3.49
  -1  11  -6   49.25    2.87
   1  11   7  198.63    7.17
   1  11   7  208.55    7.96
  -1  11  -7  202.69    7.05
   1  11   8    3.23    1.07
  -1  11  -8    1.90    1.04
   1  11   8    4.37    1.38
   1  11   9  178.24    7.33
  -1  11  -9  188.37    7.38
  -1  11 -10    1.93    1.02
   1  11  10    1.50    1.12
  -1  11 -11   78.27    4.96
  -1  11 -12    2.00    1.27
  -1  11 -13   37.29    3.75
  -1  11 -14    6.49    2.26
  -1  11 -15   24.75    3.52
  -1  11 -16   -2.04    1.88
  -1  11 -17    0.10    1.90
  -1  11 -18    3.55    1.70
   1  12 -18   10.48    2.92
   1  12 -17    2.71    1.82
   1  12 -16   24.03    3.64
   1  12 -15    2.90    2.04
   1  12 -14   36.83    3.90
   1  12 -13   31.51    3.43
   1  12 -12   25.69    3.01
   1  12 -11   23.63    2.73
  -1  12  11   23.07    2.63
   1  12 -10   55.95    3.93
  -1  12  10   60.05    3.96
   1  12  -9    6.54    1.44
  -1  12   9    9.78    1.62
   1  12  -8    4.35    1.10
   1  12  -8    4.30    1.38
  -1  12   8    4.00    1.05
   1  12  -7   93.42    4.26
  -1  12   7   84.82    4.02
   1  12  -7   85.80    4.72
   1  12  -6   45.89    2.74
   1  12  -6   47.96    3.39
  -1  12   6   47.96    3.62
  -1  12   6   46.33    2.67
   1  12  -5   16.04    1.45
   1  12  -5   12.19    1.81
  -1  12   5   14.92    1.98
  -1  12   5   14.45    1.36
   1  12  -4    8.02    0.95
  -1  12   4    7.41    1.44
  -1  12   4    9.85    1.03
   1  12  -3   21.28    1.29
  -1  12   3   22.26    2.33
  -1  12   3   20.89    1.30
   1  12  -2    3.73    0.50
  -1  12   2    3.77    0.53
  -1  12   2    4.22    1.35
   1  12  -1   23.40    0.96
  -1  12   1   29.56    2.58
   1  12  -1   22.92    0.95
   1  12   0   26.51    1.01
   1  12   0   26.84    1.02
   1  12   0   31.63    2.69
  -1  12   0   30.13    2.58
   1  12   1    5.58    0.57
   1  12   1    5.15    1.33
  -1  12  -1    4.35    1.25
   1  12   1    6.11    0.55
   1  12   2  314.23    7.34
  -1  12  -2  300.87    9.81
   1  12   2  295.03    9.71
   1  12   2  300.76    7.07
   1  12   3   30.77    1.75
   1  12   3   28.68    1.58
  -1  12  -3   25.73    2.55
   1  12   3   26.03    2.47
   1  12   4    2.95    0.64
   1  12   4    3.65    1.06
  -1  12  -4    2.78    1.13
  -1  12  -4    2.02    0.67
   1  12   5   66.44    3.29
   1  12   5   71.90    4.28
  -1  12  -5   71.59    4.37
  -1  12  -5   70.67    3.26
   1  12   6    3.92    1.06
   1  12   6    2.19    1.13
  -1  12  -6    3.38    1.23
  -1  12  -6    2.88    0.95
   1  12   7   91.67    4.43
   1  12   7   89.61    5.03
  -1  12  -7   88.30    4.28
   1  12   8  254.17    8.76
  -1  12  -8  266.11    8.74
   1  12   9   34.04    3.03
  -1  12  -9   38.27    3.09
   1  12  10   22.46    2.53
  -1  12 -10   22.97    2.57
  -1  12 -11    3.83    1.40
  -1  12 -12   62.96    4.64
  -1  12 -13    5.20    1.72
  -1  12 -14   63.03    5.05
  -1  12 -15    2.83    1.72
  -1  12 -16   34.64    4.37
  -1  12 -17   -0.66    1.71
  -1  12 -18   23.04    3.66
   1  13 -18    6.35    2.29
   1  13 -17    3.43    2.12
   1  13 -16   34.64    4.24
   1  13 -15   16.87    2.87
   1  13 -14   59.18    4.91
   1  13 -13    6.44    1.96
   1  13 -12   28.25    3.14
   1  13 -11   74.36    4.73
  -1  13  11   72.79    4.66
   1  13 -10  151.96    6.71
  -1  13  10  154.27    6.72
  -1  13   9  177.40    6.96
   1  13  -9  179.65    7.04
   1  13  -9  172.89    7.58
   1  13  -8  205.22    7.23
  -1  13   8  186.78    6.92
   1  13  -8  203.04    8.09
   1  13  -7  147.92    5.56
   1  13  -7  129.64    6.22
  -1  13   7  137.80    5.32
   1  13  -6  263.74    7.78
   1  13  -6  262.19    9.26
  -1  13   6  262.54    7.69
   1  13  -5  280.21    7.71
  -1  13   5  303.54   10.21
   1  13  -5  274.52    9.54
  -1  13   5  278.03    7.64
   1  13  -4  609.59   13.74
  -1  13   4  629.42   16.93
  -1  13   4  611.27   13.73
   1  13  -3  252.57    6.12
  -1  13   3  244.00    6.14
  -1  13   3  248.37    8.93
   1  13  -2  263.83    5.90
  -1  13   2  266.81    6.11
  -1  13   2  277.58    9.40
   1  13  -2  264.52    5.83
  -1  13   1  466.61   13.55
   1  13   0  230.24    8.35
  -1  13   0  219.51    8.21
   1  13   1  270.47    5.85
  -1  13  -1  262.71    9.23
   1  13   1  270.80    9.34
   1  13   1  268.47    5.78
   1  13   2  493.56   10.72
  -1  13  -2  455.97   13.80
   1  13   2  511.89   14.21
   1  13   2  490.68   10.54
   1  13   3  350.58    8.40
  -1  13  -3  333.46   10.92
   1  13   3  350.73   11.10
   1  13   3  338.08    8.16
   1  13   4   69.52    3.03
  -1  13  -4   76.50    4.55
   1  13   4   73.45    4.41
   1  13   5  266.64    7.74
  -1  13  -5  258.96    9.50
   1  13   5  282.45    9.65
  -1  13  -5  258.08    7.47
   1  13   6  100.10    4.38
  -1  13  -6   97.63    5.44
   1  13   6  105.67    5.51
  -1  13  -6   98.87    4.24
   1  13   7   26.86    2.36
  -1  13  -7   24.69    2.18
   1  13   8   24.22    2.41
  -1  13  -8   25.20    2.39
   1  13   9  190.55    7.60
  -1  13  -9  202.52    7.66
   1  13  10   31.79    2.97
  -1  13 -10   31.80    2.99
  -1  13 -11    7.23    1.77
  -1  13 -12    4.38    1.63
  -1  13 -13   23.03    2.94
  -1  13 -14    4.52    1.93
  -1  13 -15   15.42    2.79
  -1  13 -16    3.49    1.94
  -1  13 -17    0.54    1.64
  -1  13 -18    2.61    1.94
   1  14 -18   -0.45    1.75
   1  14 -17   -4.00    2.46
   1  14 -16   23.67    3.83
   1  14 -15   23.23    3.31
   1  14 -14    1.62    1.20
   1  14 -13   25.45    3.09
   1  14 -12   47.53    3.96
  -1  14  11   60.38    4.25
   1  14 -11   62.74    4.34
   1  14 -10    5.98    1.58
  -1  14  10    5.41    1.47
   1  14  -9   10.88    1.68
   1  14  -9   14.51    2.21
  -1  14   9   11.23    1.80
   1  14  -8   61.06    3.58
   1  14  -8   59.86    4.29
  -1  14   8   57.00    3.41
   1  14  -7    2.70    0.93
   1  14  -7    3.98    1.55
  -1  14   7    3.03    0.90
   1  14  -6    3.34    0.84
   1  14  -6    2.32    1.31
  -1  14   6    2.47    0.75
   1  14  -5    5.67    0.92
   1  14  -5    6.58    1.67
  -1  14   5    5.99    0.90
   1  14  -4    1.81    0.51
  -1  14   4    1.41    1.10
  -1  14   4    2.54    0.61
   1  14  -3   80.09    2.47
  -1  14   3   79.97    4.79
  -1  14   3   80.81    2.60
  -1  14   2   37.34    3.19
  -1  14   1   11.15    1.91
   1  14   0  112.53    5.64
  -1  14   0  107.99    5.56
  -1  14  -1  124.38    6.04
   1  14   1  133.14    6.22
   1  14   2   31.08    1.26
  -1  14  -2   27.01    2.76
   1  14   2   32.00    2.97
   1  14   2   30.61    1.21
   1  14   3   20.26    1.27
  -1  14  -3   21.27    2.55
   1  14   3   21.24    2.44
   1  14   3   19.46    1.19
   1  14   4    0.38    0.52
   1  14   4   -0.01    0.43
  -1  14  -4    1.43    1.28
   1  14   4    0.02    0.98
   1  14   5   99.23    4.02
  -1  14  -5  102.77    5.64
  -1  14  -5  103.84    3.93
   1  14   6   23.73    2.00
  -1  14  -6   23.46    2.77
  -1  14  -6   24.86    2.01
   1  14   7  246.39    8.06
  -1  14  -7  233.45    9.47
  -1  14  -7  252.28    7.99
   1  14   8   11.34    1.74
  -1  14  -8   11.42    1.69
   1  14   9   93.72    5.02
  -1  14  -9   89.24    4.79
   1  14  10   10.20    1.91
  -1  14 -10   13.39    1.96
  -1  14 -11   77.91    4.94
  -1  14 -12    3.33    1.33
  -1  14 -13   16.45    2.56
  -1  14 -14    1.68    1.71
  -1  14 -15   14.37    2.79
  -1  14 -16    2.77    1.98
  -1  14 -17   13.25    2.83
   1  15 -18   17.01    3.90
   1  15 -17    5.07    2.24
   1  15 -16   39.83    4.46
   1  15 -15    5.93    2.04
   1  15 -14   39.17    4.01
   1  15 -13   28.72    3.38
   1  15 -12  176.59    7.93
   1  15 -11   16.47    2.38
  -1  15  11   15.12    2.26
  -1  15  10  212.95    8.13
   1  15 -10  219.07    8.25
   1  15  -9    2.72    1.14
   1  15  -9    2.41    1.29
  -1  15   9    2.17    0.96
   1  15  -8  447.85   12.25
   1  15  -8  428.89   13.91
  -1  15   8  445.68   12.17
   1  15  -7   91.97    4.09
   1  15  -7   90.91    5.39
  -1  15   7   84.86    3.93
   1  15  -6  499.45   12.12
   1  15  -6  462.91   14.52
  -1  15   6  487.23   12.04
   1  15  -5   15.42    1.31
  -1  15   5   14.23    1.26
   1  15  -5   18.65    2.40
  -1  15   4  359.83    8.70
   1  15  -4  384.59    8.64
  -1  15   3    1.91    0.40
   1  15   0  395.01   12.58
  -1  15   0  380.90   12.44
   1  15   1   28.07    2.91
  -1  15  -1   32.69    3.13
  -1  15  -2  352.02   11.76
   1  15   3    8.48    0.77
  -1  15  -3    7.76    1.81
   1  15   3    7.77    0.71
   1  15   4  402.83    9.71
  -1  15  -4  390.15   12.90
   1  15   4  408.05    9.53
   1  15   5   24.34    1.79
  -1  15  -5   23.28    2.84
   1  15   6   48.99    2.83
  -1  15  -6   44.25    3.89
  -1  15  -6   39.38    2.48
   1  15   7   46.33    3.03
  -1  15  -7   49.29    4.13
  -1  15  -7   45.16    2.90
   1  15   8  119.18    5.43
  -1  15  -8  130.33    5.52
   1  15   9   21.07    2.39
  -1  15  -9   19.82    2.29
   1  15  10    3.93    1.43
  -1  15 -10    3.29    1.24
  -1  15 -11   14.14    2.19
  -1  15 -12    5.77    1.67
  -1  15 -13   22.52    3.08
  -1  15 -14    8.63    1.91
  -1  15 -15    2.33    1.75
  -1  15 -16    2.04    1.82
  -1  15 -17    0.73    1.74
   1  16 -17    5.31    2.03
   1  16 -16   18.24    3.14
   1  16 -15   17.18    2.92
   1  16 -14    7.43    2.23
   1  16 -13    6.21    1.78
   1  16 -12   26.57    2.98
   1  16 -11    2.63    1.41
   1  16 -10    6.90    1.50
  -1  16  10    8.80    1.80
   1  16  -9   13.39    1.81
  -1  16   9   10.73    1.68
   1  16  -9   11.65    2.29
  -1  16   8   48.39    3.05
   1  16  -8   44.72    3.93
   1  16  -8   46.83    3.01
  -1  16   7   52.09    2.94
   1  16  -7   53.31    4.25
   1  16  -7   55.92    3.03
  -1  16   6   74.20    3.22
   1  16  -6   66.56    4.75
   1  16  -6   74.44    3.21
  -1  16   5   60.25    2.55
   1  16  -5   56.80    4.27
   1  16  -5   58.15    2.44
  -1  16   4   20.51    1.16
   1  16  -4   17.99    0.98
  -1  16  -2   39.35    3.56
   1  16   3  250.38    5.59
  -1  16  -3  250.81    9.74
   1  16   3  250.05    5.53
   1  16   4   84.72    2.95
   1  16   4   76.65    2.83
  -1  16  -4   72.65    4.99
   1  16   4   80.82    2.78
   1  16   5   55.61    2.67
   1  16   5   55.52    2.56
  -1  16  -5   57.08    4.37
   1  16   6  107.21    4.27
  -1  16  -6   98.66    5.97
  -1  16  -6   99.98    4.04
   1  16   7  248.95    7.96
  -1  16  -7  241.20   10.11
  -1  16  -7  255.52    7.83
   1  16   8   56.41    3.56
  -1  16  -8   64.16    3.65
   1  16   9  107.41    5.29
  -1  16  -9  110.37    5.31
   1  16  10   45.69    3.73
  -1  16 -10   50.65    3.67
  -1  16 -11   30.05    2.98
  -1  16 -12   38.51    3.57
  -1  16 -13   26.54    3.18
  -1  16 -14   13.64    2.59
  -1  16 -15   28.54    3.78
  -1  16 -16   16.37    3.07
   1  17 -14    5.92    1.72
   1  17 -13   32.94    3.43
   1  17 -12    4.99    1.67
   1  17 -11   46.99    3.65
   1  17 -10    5.70    1.37
   1  17 -10    7.71    2.00
   1  17  -9  110.88    6.59
   1  17  -9  126.34    5.43
   1  17  -8    8.56    1.40
  -1  17   8    6.67    1.29
   1  17  -8    9.28    2.19
  -1  17   7   76.34    3.52
   1  17  -7   75.43    5.18
   1  17  -7   76.52    3.49
   1  17  -6   10.87    1.15
  -1  17   6    9.43    1.16
   1  17  -6   12.08    2.27
  -1  17   5  136.60    4.07
   1  17  -5  134.44    6.93
   1  17  -5  133.37    3.82
  -1  17   4   54.00    1.72
  -1  17  -2    1.18    1.18
  -1  17  -3   33.85    3.45
   1  17   4   45.09    1.78
  -1  17  -4   44.29    3.96
   1  17   4   44.46    1.71
   1  17   5  115.60    3.92
  -1  17  -5  106.86    6.30
   1  17   5  109.57    3.70
   1  17   6   43.61    2.50
   1  17   6   43.12    2.48
   1  17   6   41.63    2.35
  -1  17  -6   38.65    3.85
   1  17   7  128.34    5.11
  -1  17  -7  130.38    7.21
  -1  17  -7  129.78    4.97
  -1  17  -8   14.39    1.71
  -1  17  -9   17.79    2.10
  -1  17 -10    1.53    1.04
  -1  17 -11    9.43    1.87
  -1  17 -12    5.44    1.72
  -1  17 -13    6.06    1.91
  -1  17 -14   -1.00    1.81
   1  18 -10   14.60    1.97
   1  18 -10   15.30    2.88
   1  18  -9   -0.16    0.93
   1  18  -9    0.67    1.64
   1  18  -8    9.03    1.32
   1  18  -8    8.38    2.23
   1  18  -7   25.68    3.22
   1  18  -7   23.34    1.78
   1  18  -6    1.79    0.59
   1  18  -6    3.50    1.64
   1  18  -5    9.39    2.08
  -1  18   5    8.56    0.75
  -1  18  -2   26.02    3.16
  -1  18  -3  108.55    6.38
  -1  18  -4   48.02    4.24
   1  18   5   42.57    1.95
   1  18   5   44.33    1.90
  -1  18  -5   43.95    4.15
   1  18   6  111.60    3.95
  -1  18  -6  113.48    6.77
  -1  18  -7   77.08    5.61
  -1  18  -8  100.55    6.62
  -1  18  -8  106.41    4.63
  -1  18  -9   15.59    1.91
  -1  18 -10   72.20    4.37
   1  19 -10   16.84    2.86
   1  19  -9   12.62    2.53
   1  19  -8   17.23    2.82
   1  19  -7   26.64    3.40
   1  19  -6  108.27    6.59
   1  19  -5   12.63    2.48
   1  19  -4   36.98    3.83
  -1  19  -2   22.37    3.12
  -1  19  -3   47.44    4.32
  -1  19  -4   35.87    3.86
  -1  19  -5   26.11    3.31
  -1  19  -6   54.43    4.80
  -1  19  -7   12.15    2.59
  -1  19  -8   31.00    3.91
   1  20 -10   -2.19    1.64
   1  20  -9    1.27    1.61
   1  20  -8    6.94    2.16
   1  20  -7    2.29    1.42
   1  20  -6    3.59    1.88
   1  20  -5    8.42    2.20
   1  20  -4    1.16    1.50
  -1  20  -1   36.60    3.92
  -1  20  -2    4.08    1.82
  -1  20  -3   19.83    2.97
  -1  20  -4    5.35    1.92
  -1  20  -5  118.17    7.23
  -1  20  -6    8.43    2.43
  -1  20  -7   38.89    4.32
  -1  20  -8    1.57    1.47
   1  21 -10   51.33    4.94
   1  21  -9    5.29    2.07
   1  21  -8   98.28    6.87
   1  21  -7   51.38    4.86
   1  21  -6   50.01    4.80
   1  21  -5   55.37    4.97
   1  21  -4   87.80    6.33
  -1  21  -1   10.50    2.42
  -1  21  -2   61.55    5.22
  -1  21  -3   16.16    2.95
  -1  21  -4   19.90    3.25
  -1  21  -5    4.47    1.94
  -1  21  -6   95.01    6.74
  -1  21  -7    3.66    1.90
  -1  21  -8   40.75    4.46
   1  22 -10    7.45    2.28
   1  22  -9    1.72    1.79
   1  22  -8   -0.59    1.79
   1  22  -7    6.19    2.03
   1  22  -6    1.11    1.56
   1  22  -5   -0.16    1.64
   1  22  -4    1.63    1.86
  -1  22  -1    2.76    1.71
  -1  22  -2   25.25    3.59
  -1  22  -3    9.07    2.43
  -1  22  -4    4.40    2.00
  -1  22  -5    9.13    2.46
  -1  22  -6   18.83    3.20
  -1  22  -7   22.42    3.50
  -1  22  -8   25.22    3.74
   1  23  -8   -0.49    1.82
   1  23  -7   70.32    6.02
   1  23  -6    4.67    2.18
   1  23  -5  128.44    8.03
   1  23  -4    9.39    2.44
  -1  23  -1  135.61    8.24
  -1  23  -2    4.73    2.10
  -1  23  -3   63.65    5.60
  -1  23  -4   24.89    3.82
  -1  23  -5   35.41    4.07
  -1  23  -6    5.68    1.95
   1  24  -5   -0.36    1.77
   1  24  -4    1.34    1.74
   1  24  -3    6.21    2.51
  -1  24   0   13.74    2.72
  -1  24  -1   29.28    3.93
  -1  24  -2    5.10    2.23
  -1  24  -3   12.61    2.88
  -2 -24   2   35.88    4.38
   2 -24  -2   39.81    4.78
  -2 -24   1   19.33    3.49
   2 -24  -1   19.56    3.37
   2 -24   0    8.16    2.48
  -2 -24   0   11.27    2.68
  -2 -24  -1    9.57    2.40
   2 -24   1   16.43    3.19
   2 -24   2   32.93    4.24
  -2 -24  -2   38.16    4.57
   2 -24   3   15.33    3.05
  -2 -24  -3   11.89    2.80
  -2 -23   6    0.61    1.77
  -2 -23   5   23.12    3.52
   2 -23  -5   19.39    3.41
  -2 -23   4   20.38    3.25
   2 -23  -4   18.95    3.33
  -2 -23   3   15.68    3.05
   2 -23  -3   25.00    3.63
  -2 -23   2    5.58    2.27
   2 -23  -2    2.17    1.87
  -2 -23   1   37.13    4.39
   2 -23  -1   26.90    3.67
   2 -23   0    4.55    2.21
  -2 -23   0   -2.30    1.60
   2 -23   1   47.90    5.03
  -2 -23  -1   50.53    5.02
  -2 -23  -2    3.54    2.07
   2 -23   2    4.49    2.00
   2 -23   3   32.96    4.11
  -2 -23  -3   30.03    3.98
   2 -23   4    2.89    1.97
  -2 -23  -4    3.92    1.88
   2 -23   5   47.10    4.98
  -2 -23  -5   46.44    4.80
   2 -23   6    5.17    2.20
  -2 -23  -6    9.25    2.59
  -2 -22   7    9.83    2.52
   2 -22  -7    6.94    2.19
  -2 -22   6   49.25    5.16
   2 -22  -6   50.59    4.95
  -2 -22   5   28.71    4.12
   2 -22  -5   38.32    4.46
  -2 -22   4   75.50    6.06
   2 -22  -4   79.12    6.16
  -2 -22   3    6.45    2.27
   2 -22  -3    3.25    1.62
  -2 -22   2  104.48    7.08
   2 -22  -2  101.20    6.95
  -2 -22   1    9.89    2.40
   2 -22  -1   16.80    3.10
  -2 -22   0   82.71    6.25
   2 -22   0   85.37    6.37
  -2 -22  -1   17.10    3.06
   2 -22   1    6.88    2.25
  -2 -22  -2   34.14    4.17
   2 -22   2   43.07    4.57
   2 -22   3    4.09    2.08
  -2 -22  -3    2.69    1.70
   2 -22   4   31.03    3.95
  -2 -22  -4   22.60    3.40
   2 -22   5    9.78    2.42
  -2 -22  -5   11.47    2.77
   2 -22   6   12.71    3.05
  -2 -22  -6    5.09    1.89
   2 -22   7    1.08    1.57
  -2 -22  -7    4.31    1.89
   2 -22   8    8.59    2.42
  -2 -22  -8    5.94    2.00
  -2 -21   9   -0.59    1.66
   2 -21  -9    0.57    1.58
  -2 -21   8    0.34    1.73
   2 -21  -8    3.82    1.67
  -2 -21   7    3.63    2.01
   2 -21  -7    4.68    2.07
  -2 -21   6    4.79    1.97
   2 -21  -6    4.39    1.78
  -2 -21   5    1.59    1.76
   2 -21  -5   -0.66    1.53
  -2 -21   4   12.48    2.54
   2 -21  -4   19.90    3.23
  -2 -21   3   19.27    3.10
   2 -21  -3   16.96    3.03
  -2 -21   2   32.00    3.88
   2 -21  -2   28.86    3.74
  -2 -21   1   17.71    3.06
   2 -21  -1   14.42    2.84
  -2 -21   0   78.96    6.02
   2 -21   0   88.08    6.30
   2 -21   1    4.61    1.93
  -2 -21  -1    8.74    2.19
  -2 -21  -2   42.49    4.39
   2 -21   2   35.94    4.08
   2 -21   3   17.87    3.05
  -2 -21  -3   16.34    2.88
   2 -21   4   36.81    4.10
  -2 -21  -4   32.52    3.79
   2 -21   5   27.56    3.66
  -2 -21  -5   30.93    3.78
   2 -21   6   67.77    5.68
  -2 -21  -6   65.24    5.46
   2 -21   7   15.50    3.07
  -2 -21  -7    6.65    1.98
   2 -21   8   36.63    4.41
  -2 -21  -8   32.23    4.04
   2 -21   9   11.80    2.83
  -2 -21  -9   12.68    2.76
   2 -21  10   21.57    3.54
  -2 -21 -10   22.68    3.54
  -2 -20  10    6.43    2.22
   2 -20 -10    1.23    1.54
  -2 -20   9  110.52    7.44
   2 -20  -9   99.84    6.93
  -2 -20   8    6.79    2.34
   2 -20  -8    3.12    1.97
  -2 -20   7   69.07    5.83
   2 -20  -7   73.75    5.72
  -2 -20   6   23.25    3.51
   2 -20  -6   17.03    2.96
  -2 -20   5   54.33    5.07
   2 -20  -5   49.11    4.79
  -2 -20   4   12.76    2.63
   2 -20  -4   10.56    2.48
  -2 -20   3  159.60    8.52
   2 -20  -3  167.91    8.63
  -2 -20   2    6.90    2.06
   2 -20  -2    4.15    1.80
  -2 -20   1   88.38    6.10
   2 -20  -1   89.98    6.12
  -2 -20   0    2.61    1.77
   2 -20   0    2.65    1.46
   2 -20   1   83.15    5.95
  -2 -20  -1   89.43    6.11
   2 -20   2    4.09    1.88
  -2 -20  -2    1.85    1.46
  -2 -20  -3  142.23    7.77
   2 -20   3  131.46    7.64
   2 -20   4    7.95    2.28
  -2 -20  -4    6.57    2.07
   2 -20   5   24.95    3.41
  -2 -20  -5   28.14    3.58
   2 -20   6    8.51    2.22
  -2 -20  -6    7.49    2.19
   2 -20   7   25.51    3.54
  -2 -20  -7   20.38    3.18
   2 -20   8    1.72    1.70
  -2 -20  -8    1.96    1.64
   2 -20   9   16.32    3.14
  -2 -20  -9    3.53    1.79
   2 -20  10    1.72    2.01
  -2 -20 -10    7.38    2.26
   2 -20  11    4.08    2.00
  -2 -20 -11    5.50    1.97
  -2 -19  11    2.00    1.90
   2 -19 -11   -0.26    1.73
  -2 -19  10   20.17    3.36
   2 -19 -10   20.21    3.29
  -2 -19   9    0.99    1.72
   2 -19  -9    0.65    1.49
  -2 -19   8   16.02    3.07
   2 -19  -8   18.68    3.10
  -2 -19   7   23.78    3.43
   2 -19  -7   28.75    3.63
  -2 -19   6   43.48    4.47
   2 -19  -6   43.89    4.33
  -2 -19   5   11.28    2.47
   2 -19  -5   11.39    2.45
  -2 -19   4   92.10    6.21
   2 -19  -4   87.76    6.02
  -2 -19   3   22.41    3.16
   2 -19  -3   20.42    2.93
   2 -19  -2  141.22    7.54
  -2 -19   2  137.87    7.55
   2 -19  -1   91.93    6.00
  -2 -19   1   86.53    5.86
   2 -19   0   88.50    5.90
  -2 -19   0   81.42    5.63
   2 -19   1   46.00    4.28
  -2 -19  -1   56.74    4.64
   2 -19   2   77.16    5.50
  -2 -19  -2   69.94    5.20
   2 -19   3   20.08    2.98
  -2 -19  -3   21.77    2.96
   2 -19   4   29.98    3.53
  -2 -19  -4   24.44    3.25
   2 -19   5    8.23    2.27
  -2 -19  -5    6.86    2.04
   2 -19   6   85.33    6.01
  -2 -19  -6   76.32    5.59
   2 -19   7    9.02    2.29
  -2 -19  -7    6.90    2.18
   2 -19   8   91.96    6.43
  -2 -19  -8   89.31    6.33
   2 -19   9   12.03    2.66
  -2 -19  -9   12.82    2.70
   2 -19  10   39.87    4.42
  -2 -19 -10   40.05    4.30
   2 -19  11    1.60    1.74
  -2 -19 -11    0.24    1.45
   2 -19  12   27.19    3.99
  -2 -19 -12   31.34    4.13
   2 -18 -12   20.99    2.82
  -2 -18  12   26.73    3.92
   2 -18 -12   20.91    3.43
   2 -18 -11   39.96    3.61
  -2 -18  11   43.67    4.69
   2 -18 -11   41.34    4.53
   2 -18 -10   58.36    4.19
  -2 -18  10   70.25    5.77
   2 -18 -10   65.27    5.46
   2 -18  -9   39.70    3.21
  -2 -18   9   35.40    4.29
   2 -18  -9   35.70    4.02
   2 -18  -8   65.14    3.89
  -2 -18   8   60.60    5.30
   2 -18  -8   62.65    5.15
   2 -18  -7    0.29    0.85
  -2 -18   7    3.80    2.01
   2 -18  -7    0.65    1.42
   2 -18  -6   47.00    2.84
  -2 -18   6   45.24    4.41
   2 -18  -6   40.54    4.08
   2 -18  -5    5.25    0.95
  -2 -18   5    4.70    1.84
   2 -18  -5    6.07    1.90
   2 -18  -4   41.95    2.23
  -2 -18   4   29.01    3.51
   2 -18  -4   40.17    3.92
   2 -18  -3    6.75    0.85
  -2 -18   3    3.24    1.34
   2 -18  -3    6.66    0.79
   2 -18  -3    6.86    2.03
   2 -18  -2   45.16    1.84
  -2 -18   2   35.45    3.94
   2 -18  -2   44.03    4.04
   2 -18  -2   44.32    1.81
   2 -18  -1   13.87    0.86
  -2 -18   1    9.91    2.07
   2 -18  -1   12.66    0.83
   2 -18  -1   10.76    2.27
   2 -18   0   52.10    1.81
   2 -18   0   52.22    1.78
  -2 -18   0   52.33    4.36
   2 -18   0   50.20    4.25
   2 -18   1    0.63    0.36
   2 -18   1    1.71    0.44
  -2 -18  -1    2.26    1.36
   2 -18   1    1.57    1.27
   2 -18   2    6.49    0.79
   2 -18   2    7.37    0.77
   2 -18   2    7.70    2.03
  -2 -18  -2    6.54    1.88
   2 -18   3    4.66    0.83
   2 -18   3    4.90    0.81
   2 -18   3    4.68    1.74
  -2 -18  -3    5.86    1.99
   2 -18   4   16.74    1.41
   2 -18   4   15.35    2.48
  -2 -18  -4   16.82    2.64
   2 -18   5    5.24    0.96
   2 -18   5    0.73    1.24
  -2 -18  -5    4.53    1.66
   2 -18   6    4.56    1.10
   2 -18   6    0.70    1.54
  -2 -18  -6    2.82    1.64
   2 -18   7    7.41    1.35
   2 -18   7    6.59    1.97
  -2 -18  -7    5.90    1.89
   2 -18   8   19.31    2.11
   2 -18   8   13.70    2.79
  -2 -18  -8   19.00    3.00
   2 -18   9   13.03    1.93
   2 -18   9    8.40    2.36
  -2 -18  -9   10.85    1.89
  -2 -18  -9    7.31    2.06
   2 -18  10    4.78    1.89
  -2 -18 -10    5.73    1.56
  -2 -18 -10    5.68    1.89
   2 -18  11    6.94    2.21
  -2 -18 -11    5.35    2.19
   2 -18  12   -1.98    2.15
  -2 -18 -12    0.12    1.48
   2 -18  13    6.53    2.43
   2 -17 -15    1.85    2.03
   2 -17 -14    2.74    1.59
   2 -17 -13    3.27    1.80
  -2 -17  13   -2.88    1.82
   2 -17 -12    2.70    1.33
  -2 -17  12    0.44    1.86
   2 -17 -12    1.04    1.49
   2 -17 -11    2.34    1.57
  -2 -17  11    4.15    2.09
   2 -17 -11    0.10    1.99
   2 -17 -10    1.04    1.08
  -2 -17  10    1.95    1.88
   2 -17 -10    0.49    1.60
   2 -17  -9   32.53    2.95
  -2 -17   9   32.76    3.88
   2 -17  -9   37.38    4.02
   2 -17  -8   12.38    1.88
  -2 -17   8   17.51    2.83
   2 -17  -8   16.02    2.75
   2 -17  -7    7.18    1.42
  -2 -17   7    8.90    1.29
  -2 -17   7   11.62    2.38
   2 -17  -7   10.21    2.26
   2 -17  -6    0.75    0.70
  -2 -17   6    1.18    0.70
  -2 -17   6   -0.06    1.40
   2 -17  -6    1.32    1.37
   2 -17  -5  140.42    5.07
  -2 -17   5  129.65    4.50
  -2 -17   5  138.15    7.35
   2 -17  -5  135.03    7.12
   2 -17  -4   38.67    2.29
  -2 -17   4   37.78    1.97
  -2 -17   4   38.60    3.88
   2 -17  -4   37.95    3.63
   2 -17  -3  354.27    8.76
  -2 -17   3  357.65   12.49
   2 -17  -3  323.53   11.94
   2 -17  -3  338.59    8.55
   2 -17  -2    3.81    0.69
  -2 -17   2    4.12    1.60
   2 -17  -2    2.83    1.48
   2 -17  -2    3.36    0.69
   2 -17  -1  290.61    7.13
  -2 -17   1  281.67   10.78
   2 -17  -1  277.28   10.70
   2 -17  -1  297.95    7.23
   2 -17   0   29.06    1.53
  -2 -17   0   31.76    3.25
   2 -17   0   26.98    1.50
   2 -17   0   22.84    2.95
   2 -17   1  582.66   12.76
   2 -17   1  572.66   12.89
  -2 -17  -1  576.30   17.17
   2 -17   1  555.80   16.97
   2 -17   2   18.04    1.39
   2 -17   2   17.73    1.31
   2 -17   2   16.99    2.54
  -2 -17  -2   12.25    2.20
   2 -17   3  153.87    5.05
  -2 -17  -3  150.88    7.41
   2 -17   3  149.22    7.36
   2 -17   3  151.52    4.82
   2 -17   4   91.03    3.95
   2 -17   4  103.20    3.92
  -2 -17  -4   95.15    5.73
   2 -17   4   91.52    5.72
   2 -17   5  228.74    7.44
   2 -17   5  240.68    7.22
   2 -17   5  229.05    9.64
  -2 -17  -5  236.14    9.66
   2 -17   6   28.34    2.45
   2 -17   6   25.80    2.21
   2 -17   6   30.86    3.54
  -2 -17  -6   28.29    3.27
   2 -17   7  306.14    9.25
   2 -17   7  279.80   11.29
  -2 -17  -7  281.62   11.07
   2 -17   8   18.18    2.12
   2 -17   8   17.90    2.82
  -2 -17  -8   16.36    2.66
   2 -17   9  110.18    6.78
  -2 -17  -9   98.33    6.22
  -2 -17  -9   97.29    5.20
   2 -17  10   17.81    3.01
  -2 -17 -10   18.71    2.44
  -2 -17 -10   14.45    2.91
   2 -17  11  101.77    6.91
  -2 -17 -11  115.81    6.28
  -2 -17 -11  100.52    6.65
   2 -17  12   12.83    2.89
  -2 -17 -12   12.56    2.48
  -2 -17 -12    9.99    2.43
   2 -17  13   43.51    4.70
  -2 -17 -13   43.10    4.22
   2 -17  14    2.03    1.85
  -2 -17 -14    4.55    2.26
   2 -16 -17    7.97    2.44
   2 -16 -16   18.49    3.24
   2 -16 -15    2.64    1.95
   2 -16 -14   12.56    2.70
   2 -16 -13   -0.49    1.38
   2 -16 -12   82.13    5.51
   2 -16 -11   30.41    3.14
  -2 -16  11   29.02    3.78
   2 -16 -11   23.89    3.40
   2 -16 -10   63.38    4.39
  -2 -16  10   57.71    3.98
  -2 -16  10   59.47    5.09
   2 -16 -10   62.64    5.06
   2 -16  -9    2.06    1.05
  -2 -16   9    2.16    1.15
  -2 -16   9    1.68    1.62
   2 -16  -9    4.18    1.80
   2 -16  -8  140.56    6.03
  -2 -16   8  131.45    5.51
  -2 -16   8  128.20    7.29
   2 -16  -8  125.93    7.06
   2 -16  -7   61.47    3.68
  -2 -16   7   62.99    3.37
  -2 -16   7   58.78    4.86
   2 -16  -7   57.38    4.61
   2 -16  -6   41.06    2.82
  -2 -16   6   40.78    2.53
  -2 -16   6   42.92    3.99
   2 -16  -6   39.80    3.69
   2 -16  -5  216.99    6.81
  -2 -16   5  197.61    6.15
  -2 -16   5  203.16    8.93
   2 -16  -5  200.24    8.69
   2 -16  -4  202.87    6.30
  -2 -16   4  202.04    5.85
  -2 -16   4  215.84    9.02
   2 -16  -4  188.06    8.42
   2 -16  -3   89.89    3.49
  -2 -16   3   79.00    5.20
   2 -16  -3   82.14    5.21
   2 -16  -2  245.18    6.52
  -2 -16   2  229.24    9.29
   2 -16  -2  236.04    9.34
   2 -16  -2  231.38    6.40
   2 -16  -1  116.40    3.83
  -2 -16   1  106.18    5.95
   2 -16  -1  110.00    6.06
   2 -16  -1  120.24    3.88
   2 -16   0   94.23    3.29
   2 -16   0   87.04    5.30
  -2 -16   0   95.55    5.52
   2 -16   0   95.37    3.39
   2 -16   1   39.02    1.97
   2 -16   1   35.00    3.33
  -2 -16  -1   38.77    3.50
   2 -16   1   36.31    2.02
   2 -16   2  143.86    4.78
   2 -16   2  147.30    4.61
  -2 -16  -2  140.96    6.90
   2 -16   2  137.74    6.83
   2 -16   3   17.31    1.58
   2 -16   3   16.90    1.46
   2 -16   3   18.49    2.49
  -2 -16  -3   19.35    2.61
   2 -16   4   63.47    3.26
   2 -16   4   62.43    3.05
  -2 -16  -4   55.79    4.25
   2 -16   4   66.32    4.64
   2 -16   5  194.16    6.73
   2 -16   5  192.52    6.41
   2 -16   5  188.30    8.34
  -2 -16  -5  186.88    8.20
   2 -16   6    4.96    1.31
   2 -16   6    7.09    1.29
   2 -16   6    6.94    1.86
  -2 -16  -6    6.35    1.82
   2 -16   7    7.18    1.58
   2 -16   7    5.10    1.19
   2 -16   7    6.42    1.83
  -2 -16  -7    7.24    1.88
   2 -16   8   17.32    2.29
   2 -16   8   17.16    2.04
   2 -16   8   18.51    2.78
  -2 -16  -8   13.61    2.37
  -2 -16  -8   17.32    2.14
   2 -16   9    8.72    2.02
   2 -16   9   15.26    2.65
  -2 -16  -9    9.80    2.16
  -2 -16  -9   11.04    2.00
   2 -16  10    2.01    1.54
  -2 -16 -10    2.21    1.72
  -2 -16 -10    1.62    1.34
   2 -16  11    4.65    1.98
  -2 -16 -11    1.91    1.48
  -2 -16 -11    2.20    1.62
   2 -16  12    8.15    2.25
  -2 -16 -12   12.95    2.47
  -2 -16 -12   11.74    2.71
   2 -16  13   -0.87    1.66
  -2 -16 -13    2.45    1.46
   2 -16  14    2.48    2.00
  -2 -16 -14    3.14    1.74
   2 -16  15    0.88    1.56
  -2 -16 -15    0.11    1.78
  -2 -16 -16    0.23    1.91
   2 -15 -17    6.14    2.71
   2 -15 -16   -1.69    1.72
   2 -15 -15    0.65    1.89
   2 -15 -14    2.77    1.60
   2 -15 -13   14.18    2.68
   2 -15 -12   13.20    2.39
   2 -15 -11   15.62    2.48
   2 -15 -11   10.34    2.33
   2 -15 -10    3.16    1.23
  -2 -15  10    1.74    1.09
  -2 -15  10    3.75    1.73
   2 -15 -10    4.09    1.68
   2 -15  -9   25.86    2.65
  -2 -15   9   28.64    2.65
  -2 -15   9   28.38    3.48
   2 -15  -9   23.96    3.08
   2 -15  -8   14.19    2.01
  -2 -15   8   14.85    1.84
  -2 -15   8   18.89    2.90
   2 -15  -8   16.18    2.61
   2 -15  -7    5.53    1.35
  -2 -15   7    5.66    1.18
  -2 -15   7    2.30    1.44
   2 -15  -7    4.76    1.64
   2 -15  -6   36.24    2.65
  -2 -15   6   33.78    2.31
  -2 -15   6   29.62    3.22
   2 -15  -6   36.84    3.54
   2 -15  -5    6.20    1.16
  -2 -15   5    8.09    1.12
  -2 -15   5   11.48    2.15
   2 -15  -5   11.22    2.08
   2 -15  -4   35.32    2.27
  -2 -15   4   31.29    1.96
  -2 -15   4   35.85    3.37
   2 -15  -4   32.90    3.23
   2 -15  -3   65.33    3.01
  -2 -15   3   72.32    2.89
   2 -15  -3   65.29    4.48
  -2 -15   3   65.30    4.57
   2 -15  -2  297.53    7.75
  -2 -15   2  275.46   10.20
   2 -15  -2  281.98   10.22
   2 -15  -2  285.83    7.59
   2 -15  -1   80.20    3.10
  -2 -15   1   76.54    4.78
   2 -15  -1   73.32    4.71
   2 -15  -1   80.20    3.15
   2 -15   0  182.96    5.30
   2 -15   0  178.66    7.68
  -2 -15   0  180.57    7.67
   2 -15   0  180.46    5.39
   2 -15   1    7.61    1.02
   2 -15   1    9.45    0.99
   2 -15   1    8.57    1.82
  -2 -15  -1    8.43    1.82
   2 -15   2  117.76    4.12
  -2 -15  -2  117.54    6.03
   2 -15   2  112.36    5.91
   2 -15   2  123.75    4.40
   2 -15   3   29.24    2.07
  -2 -15  -3   33.94    3.20
   2 -15   3   26.08    2.79
   2 -15   3   27.30    1.90
   2 -15   4  305.78    8.99
   2 -15   4  320.93    8.80
   2 -15   4  305.09   10.85
  -2 -15  -4  311.69   10.79
   2 -15   5    9.63    1.39
   2 -15   5   10.38    1.40
   2 -15   5   13.26    2.21
  -2 -15  -5   13.40    2.16
   2 -15   6  120.17    5.35
   2 -15   6  121.73    5.06
   2 -15   6  112.42    6.20
  -2 -15  -6  119.10    6.21
   2 -15   7   17.24    2.21
   2 -15   7   14.52    1.81
   2 -15   7   21.49    2.86
  -2 -15  -7   17.62    2.07
  -2 -15  -7   18.87    2.57
   2 -15   8  171.67    7.24
   2 -15   8  179.49    8.23
  -2 -15  -8  169.46    6.98
  -2 -15  -8  174.78    7.95
   2 -15   9   62.29    4.31
   2 -15   9   61.03    4.73
  -2 -15  -9   54.88    4.34
  -2 -15  -9   63.01    4.21
   2 -15  10   86.01    5.77
  -2 -15 -10   83.01    5.11
  -2 -15 -10   82.80    5.53
   2 -15  11    6.54    2.02
  -2 -15 -11    4.45    1.63
  -2 -15 -11    9.62    2.30
   2 -15  12   68.88    5.49
  -2 -15 -12   67.08    5.13
   2 -15  13    7.77    2.33
  -2 -15 -13   10.29    2.48
   2 -15  14   39.42    4.54
  -2 -15 -14   38.32    4.15
   2 -15  15    4.74    1.95
  -2 -15 -15    3.77    1.96
  -2 -15 -16   14.36    3.17
   2 -14 -18    8.41    2.81
   2 -14 -17   12.58    2.92
   2 -14 -16    7.02    2.52
   2 -14 -15   21.40    3.38
   2 -14 -14   15.53    2.79
   2 -14 -13  136.68    7.51
   2 -14 -12   57.74    4.63
   2 -14 -11  166.92    7.81
   2 -14 -11  172.93    8.56
  -2 -14  10    1.96    1.17
   2 -14 -10    1.05    1.12
   2 -14 -10    1.47    1.44
  -2 -14   9  265.53    9.10
   2 -14  -9  274.26    9.62
   2 -14  -9  264.86   10.52
   2 -14  -8   99.61    5.05
  -2 -14   8   96.21    4.69
  -2 -14   8   96.39    5.94
   2 -14  -8  101.66    5.90
   2 -14  -7  258.28    8.48
  -2 -14   7  252.77    8.02
  -2 -14   7  229.35    9.63
   2 -14  -7  248.94    9.70
   2 -14  -6   32.75    2.49
  -2 -14   6   27.14    2.14
  -2 -14   6   30.10    3.27
   2 -14  -6   29.21    3.05
   2 -14  -5  322.85    9.23
  -2 -14   5  316.86    8.79
  -2 -14   5  326.56   11.33
   2 -14  -5  312.17   10.90
   2 -14  -4   16.54    1.60
  -2 -14   4   16.46    1.44
  -2 -14   4   17.09    2.49
   2 -14  -4   14.83    2.25
   2 -14  -3  661.25   15.28
   2 -14  -3  684.14   15.27
  -2 -14   3  626.81   17.77
   2 -14  -3  636.22   17.67
  -2 -14   3  635.43   14.75
   2 -14  -2   35.52    2.09
  -2 -14   2   34.14    3.10
   2 -14  -2   36.21    3.17
   2 -14  -1  195.68    5.62
  -2 -14   1  177.30    7.46
   2 -14  -1  189.26    7.67
   2 -14  -1  181.32    5.51
   2 -14   0   45.03    2.23
  -2 -14   0   37.12    3.21
   2 -14   0   44.16    3.42
   2 -14   0   43.34    2.26
   2 -14   1   36.99    2.05
  -2 -14  -1   36.42    3.12
   2 -14   1   36.14    3.11
   2 -14   1   33.76    2.06
   2 -14   2    5.16    0.94
   2 -14   2    7.18    1.02
   2 -14   2    6.64    1.50
  -2 -14  -2    6.42    1.57
   2 -14   3  111.43    4.20
  -2 -14  -3  103.41    5.45
   2 -14   3  117.61    5.77
   2 -14   3  111.22    4.40
   2 -14   4    7.53    1.22
   2 -14   4    3.90    0.97
   2 -14   4    5.12    1.48
  -2 -14  -4    9.09    1.70
   2 -14   5   81.20    4.06
   2 -14   5   79.00    3.78
   2 -14   5   73.58    4.68
  -2 -14  -5   80.04    4.78
   2 -14   6    7.96    1.49
   2 -14   6    7.85    1.41
   2 -14   6    7.71    1.78
  -2 -14  -6    6.63    1.75
  -2 -14  -6    7.19    1.37
   2 -14   7   32.76    2.90
   2 -14   7   36.44    3.46
  -2 -14  -7   31.88    3.11
  -2 -14  -7   29.10    2.62
   2 -14   8    7.90    1.69
   2 -14   8   11.49    2.05
  -2 -14  -8    8.31    1.81
  -2 -14  -8    8.49    1.67
   2 -14   9    0.38    0.91
   2 -14   9   -1.58    1.41
  -2 -14  -9    0.64    0.95
  -2 -14  -9    1.43    1.49
   2 -14  10   32.12    3.46
  -2 -14 -10   27.43    2.90
  -2 -14 -10   27.62    3.16
   2 -14  11    2.68    1.90
  -2 -14 -11    2.15    1.32
  -2 -14 -11    3.08    1.41
   2 -14  12   13.62    2.48
  -2 -14 -12   13.96    2.37
   2 -14  13    1.25    1.60
  -2 -14 -13    2.29    1.90
   2 -14  14    3.94    2.29
  -2 -14 -14    2.50    1.61
   2 -14  15    3.10    2.13
  -2 -14 -15   -0.65    1.64
   2 -14  16    4.85    2.28
  -2 -14 -16    1.29    1.53
  -2 -14 -17   -1.59    2.17
   2 -13 -18    8.57    2.71
   2 -13 -17    1.80    2.08
   2 -13 -16   14.85    3.19
   2 -13 -15    3.29    2.08
   2 -13 -14    6.63    2.14
   2 -13 -13   22.25    3.19
   2 -13 -12   49.84    4.32
   2 -13 -11    4.14    1.68
  -2 -13  10    4.11    1.23
   2 -13 -10    7.89    1.95
   2 -13 -10    2.85    1.53
  -2 -13   9  151.91    6.45
   2 -13  -9  154.30    6.82
   2 -13  -9  157.00    7.54
  -2 -13   8   35.44    2.85
   2 -13  -8   38.36    3.07
   2 -13  -8   38.47    3.54
   2 -13  -7   95.11    4.75
  -2 -13   7  108.80    4.80
  -2 -13   7  108.66    5.97
   2 -13  -7  113.31    5.92
   2 -13  -6   11.90    1.61
  -2 -13   6   15.67    1.64
  -2 -13   6   13.64    2.23
   2 -13  -6   12.81    2.09
   2 -13  -5    6.67    1.19
  -2 -13   5    8.83    1.20
  -2 -13   5    5.80    1.64
   2 -13  -5    6.73    1.61
   2 -13  -4  245.10    7.30
  -2 -13   4  237.49    6.93
  -2 -13   4  230.02    8.88
   2 -13  -4  247.73    8.94
   2 -13  -3    5.57    1.01
  -2 -13   3    5.17    0.85
  -2 -13   3    6.14    1.59
   2 -13  -3    3.98    1.42
   2 -13  -2   93.17    3.62
  -2 -13   2   91.84    3.42
   2 -13  -2   87.26    4.81
  -2 -13   2   87.71    4.87
   2 -13  -1  105.37    3.76
  -2 -13   1   92.51    4.96
   2 -13  -1   98.78    5.09
   2 -13  -1   98.16    3.69
   2 -13   0   41.77    2.20
  -2 -13   0   41.81    3.23
   2 -13   0   39.46    3.13
   2 -13   0   43.24    2.29
   2 -13   1   19.90    1.51
   2 -13   1   19.46    2.21
  -2 -13  -1   13.45    1.86
   2 -13   1   16.93    1.46
   2 -13   2   98.72    3.83
  -2 -13  -2   99.02    5.07
   2 -13   2  101.29    5.14
   2 -13   2  103.05    4.06
   2 -13   3   84.92    3.61
  -2 -13  -3   84.51    4.65
   2 -13   3   81.81    4.62
   2 -13   3   82.03    3.72
   2 -13   4   11.38    1.48
   2 -13   4   12.57    1.43
   2 -13   4   14.43    2.05
  -2 -13  -4   14.11    2.01
   2 -13   5  118.05    5.04
   2 -13   5  113.86    4.74
   2 -13   5  115.45    5.75
  -2 -13  -5  109.83    5.51
   2 -13   6  119.18    5.33
   2 -13   6  110.87    5.78
  -2 -13  -6  116.69    5.71
  -2 -13  -6  114.85    5.03
   2 -13   7   74.52    4.30
   2 -13   7   73.97    4.70
  -2 -13  -7   74.25    4.15
  -2 -13  -7   76.83    4.64
   2 -13   8   29.83    2.94
   2 -13   8   35.04    3.30
  -2 -13  -8   38.88    3.37
  -2 -13  -8   37.57    3.07
   2 -13   9    2.88    1.15
   2 -13   9    5.71    1.87
  -2 -13  -9    4.92    1.60
  -2 -13  -9    3.99    1.40
   2 -13  10  103.39    6.07
  -2 -13 -10   98.21    5.68
  -2 -13 -10  110.56    6.09
   2 -13  11   31.79    3.49
  -2 -13 -11   25.71    3.08
  -2 -13 -11   25.92    3.08
   2 -13  12   41.14    4.14
  -2 -13 -12   38.38    3.85
   2 -13  13    6.85    2.20
  -2 -13 -13    6.79    2.16
  -2 -13 -14   34.04    4.01
  -2 -13 -15    6.00    2.27
  -2 -13 -16   21.60    3.55
  -2 -13 -17   -0.75    2.23
   2 -12 -18   29.96    4.43
   2 -12 -17    2.80    1.83
   2 -12 -16   47.37    5.11
   2 -12 -15    2.07    1.64
   2 -12 -14   47.22    4.58
   2 -12 -13   41.66    4.27
   2 -12 -12  284.42   11.04
   2 -12 -11   47.95    4.00
  -2 -12  10  129.68    6.13
   2 -12 -10  131.71    6.48
   2 -12 -10  133.69    6.96
  -2 -12   9   76.94    4.40
   2 -12  -9   78.10    4.66
   2 -12  -9   81.60    5.17
  -2 -12   8  157.56    6.30
   2 -12  -8  161.19    6.63
   2 -12  -8  165.26    7.39
  -2 -12   7    7.99    1.38
   2 -12  -7    8.92    1.48
   2 -12  -7    6.87    1.67
   2 -12  -6  472.04   12.85
  -2 -12   6  484.37   12.53
  -2 -12   6  487.06   14.42
   2 -12  -6  478.44   14.10
   2 -12  -5   69.56    3.51
  -2 -12   5   67.74    3.29
  -2 -12   5   71.54    4.42
   2 -12  -5   62.05    4.04
   2 -12  -4  520.13   12.91
  -2 -12   4  517.19   12.52
  -2 -12   4  501.71   14.55
   2 -12  -4  498.41   14.33
   2 -12  -3   83.99    3.56
  -2 -12   3   84.44    3.40
  -2 -12   3   80.50    4.54
   2 -12  -3   85.40    4.58
   2 -12  -2  450.00   11.05
  -2 -12   2  440.35   10.77
  -2 -12   2  475.12   13.19
   2 -12  -2  435.32   12.77
   2 -12  -1   79.56    3.22
  -2 -12   1   84.43    4.47
   2 -12  -1   75.43    4.22
   2 -12  -1   76.97    3.22
   2 -12   0  552.88   12.80
   2 -12   0  510.86   14.57
  -2 -12   0  562.49   14.86
   2 -12   0  550.48   12.91
   2 -12   1    2.78    0.70
   2 -12   1    3.01    1.06
  -2 -12  -1    2.52    1.04
   2 -12   1    3.20    0.79
   2 -12   2  113.90    4.18
   2 -12   2  104.21    5.11
  -2 -12  -2  115.31    5.29
   2 -12   2  115.42    4.36
   2 -12   3    8.49    1.24
   2 -12   3    7.08    1.06
   2 -12   3    8.41    1.54
  -2 -12  -3    9.06    1.61
   2 -12   4  361.76    9.79
   2 -12   4  366.80   11.15
  -2 -12  -4  337.89   10.76
   2 -12   4  353.18   10.03
   2 -12   5   15.30    1.78
   2 -12   5   16.27    1.75
   2 -12   5   12.93    1.87
  -2 -12  -5   13.48    1.60
  -2 -12  -5   15.09    2.05
   2 -12   6  189.32    7.11
   2 -12   6  192.67    7.60
  -2 -12  -6  195.81    6.97
  -2 -12  -6  184.06    7.31
   2 -12   7    1.98    0.97
   2 -12   7    3.42    1.29
  -2 -12  -7    2.33    1.03
  -2 -12  -7    2.33    1.20
   2 -12   8    4.02    1.30
   2 -12   8    7.43    1.68
  -2 -12  -8    3.34    1.12
  -2 -12  -8    2.64    1.20
   2 -12   9    3.25    1.25
   2 -12   9    4.01    1.53
  -2 -12  -9    4.76    1.36
  -2 -12  -9    6.41    1.61
   2 -12  10    5.38    1.47
  -2 -12 -10    9.66    1.95
  -2 -12 -10    6.72    1.62
   2 -12  11    2.29    1.65
  -2 -12 -11    1.07    1.15
  -2 -12 -12   11.00    2.31
  -2 -12 -13    4.66    1.81
  -2 -12 -14    5.48    2.15
  -2 -12 -15    0.10    1.66
  -2 -12 -16    5.38    2.08
  -2 -12 -17   -0.87    1.59
   2 -11 -18    9.01    2.62
   2 -11 -17    3.31    2.06
   2 -11 -16   14.18    2.93
   2 -11 -15    0.70    1.53
   2 -11 -14    8.94    2.37
   2 -11 -13    8.71    2.12
   2 -11 -12   38.67    3.78
   2 -11 -11    4.27    1.28
  -2 -11  10   11.05    1.81
   2 -11 -10   12.21    2.08
  -2 -11   9   35.68    2.90
   2 -11  -9   36.80    3.11
   2 -11  -9   34.05    3.22
  -2 -11   8   11.04    1.65
   2 -11  -8    9.52    1.64
   2 -11  -8    8.29    1.68
  -2 -11   7   48.08    3.07
   2 -11  -7   50.59    3.31
   2 -11  -7   46.01    3.57
  -2 -11   6    6.07    1.05
   2 -11  -6    6.49    1.28
   2 -11  -6    7.17    1.55
   2 -11  -5   13.53    1.57
  -2 -11   5   13.03    1.48
  -2 -11   5   10.63    1.75
   2 -11  -5   11.69    1.89
   2 -11  -4  149.11    5.34
  -2 -11   4  144.25    5.06
  -2 -11   4  163.94    6.59
   2 -11  -4  154.00    6.29
   2 -11  -3  227.61    6.84
  -2 -11   3  229.89    6.62
  -2 -11   3  241.06    8.27
   2 -11  -3  227.50    7.98
  -2 -11   2   56.42    2.63
   2 -11  -2   54.92    2.69
  -2 -11   2   52.78    3.49
   2 -11  -2   60.98    3.62
   2 -11  -1  187.51    5.65
  -2 -11   1  185.63    5.53
  -2 -11   1  190.08    6.97
   2 -11  -1  182.07    6.82
   2 -11   0    6.75    0.95
  -2 -11   0    4.99    1.21
   2 -11   0    5.29    0.88
   2 -11   0    6.15    1.33
   2 -11   1   74.12    3.11
  -2 -11  -1   68.63    3.81
   2 -11   1   69.95    3.87
   2 -11   1   68.26    3.12
   2 -11   2   13.37    1.38
   2 -11   2   14.88    1.40
   2 -11   2   13.29    1.74
  -2 -11  -2   11.25    1.65
   2 -11   3  180.00    5.83
  -2 -11  -3  177.18    6.66
   2 -11   3  176.91    6.67
   2 -11   3  174.74    6.00
   2 -11   4   18.93    1.80
   2 -11   4   19.74    1.78
   2 -11   4   21.33    2.21
  -2 -11  -4   18.68    2.04
   2 -11   5  394.93   11.17
   2 -11   5  395.09   11.72
  -2 -11  -5  386.78   10.89
  -2 -11  -5  401.63   11.57
   2 -11   6  129.35    5.69
   2 -11   6  132.81    6.00
  -2 -11  -6  141.10    5.95
  -2 -11  -6  145.45    5.79
   2 -11   7  150.34    6.42
   2 -11   7  151.85    6.58
  -2 -11  -7  147.39    6.20
  -2 -11  -7  143.50    6.20
   2 -11   8    3.11    1.19
   2 -11   8    2.03    1.18
  -2 -11  -8    4.38    1.40
  -2 -11  -8    2.11    0.98
   2 -11   9   86.22    5.12
   2 -11   9   74.83    4.71
  -2 -11  -9   76.59    4.72
  -2 -11  -9   69.31    4.41
  -2 -11 -10   25.77    2.89
  -2 -11 -10   22.39    2.63
  -2 -11 -11   90.03    5.58
  -2 -11 -12   15.82    2.57
  -2 -11 -13   13.74    2.67
  -2 -11 -14    3.67    1.94
  -2 -11 -15   23.05    3.49
  -2 -11 -16    4.59    1.97
  -2 -11 -17    8.93    2.25
   2 -10 -18   27.89    4.05
   2 -10 -17   34.45    4.48
   2 -10 -16    5.30    3.45
   2 -10 -15   33.91    4.07
   2 -10 -14  104.89    6.76
   2 -10 -13  112.50    6.74
   2 -10 -12  161.76    7.88
   2 -10 -11  114.50    6.23
  -2 -10  10  107.95    5.54
   2 -10 -10  110.47    5.82
  -2 -10   9  249.05    8.85
   2 -10  -9  257.75    9.20
   2 -10  -9  259.19    9.61
  -2 -10   8  119.37    5.39
   2 -10  -8  126.03    5.69
   2 -10  -8  128.68    6.09
  -2 -10   7  251.38    8.17
   2 -10  -7  247.92    8.38
   2 -10  -7  260.56    9.07
  -2 -10   6   97.10    4.32
   2 -10  -6   96.94    4.48
   2 -10  -6  100.99    5.03
  -2 -10   5  309.47    8.87
   2 -10  -5  322.52    9.27
   2 -10  -5  322.47    9.17
   2 -10  -5  312.60    9.93
   2 -10  -4  265.15    7.90
  -2 -10   4  277.01    7.74
  -2 -10   4  272.52    8.97
   2 -10  -4  264.82    8.73
   2 -10  -3  488.42   12.02
  -2 -10   3  462.80   11.66
  -2 -10   3  504.65   13.38
   2 -10  -3  488.69   13.13
   2 -10  -2  329.88    8.68
  -2 -10   2  325.85    8.51
   2 -10  -2  333.32    9.80
  -2 -10   2  324.49    9.82
   2 -10  -1   93.49    3.59
  -2 -10   1   96.71    3.54
  -2 -10   1   83.12    4.20
   2 -10  -1   88.10    4.25
   2 -10   0  163.79    5.15
   2 -10   0  160.59    6.02
  -2 -10   0  164.37    6.09
   2 -10   0  162.81    5.19
   2 -10   1  148.26    4.89
  -2 -10  -1  147.89    5.67
   2 -10   1  153.65    5.78
   2 -10   1  148.22    5.04
   2 -10   2   31.82    2.06
   2 -10   2   33.77    2.52
  -2 -10  -2   35.57    2.58
   2 -10   2   30.60    2.09
   2 -10   3  230.48    6.89
   2 -10   3  221.87    7.50
  -2 -10  -3  225.51    7.49
   2 -10   3  222.27    7.01
   2 -10   4   41.10    2.56
   2 -10   4   36.18    2.76
  -2 -10  -4   36.80    2.69
  -2 -10  -4   36.92    2.46
   2 -10   4   36.50    2.53
   2 -10   5   31.27    2.56
  -2 -10  -5   30.48    2.51
  -2 -10  -5   29.56    2.34
   2 -10   5   32.82    2.53
   2 -10   6   16.92    1.97
   2 -10   6   14.25    1.87
   2 -10   6   15.17    2.08
  -2 -10  -6   18.74    1.98
  -2 -10  -6   15.33    1.92
   2 -10   7   63.33    3.98
   2 -10   7   58.99    3.80
  -2 -10  -7   62.68    3.81
  -2 -10  -7   63.94    3.82
   2 -10   8    3.52    1.32
   2 -10   8    1.22    0.94
  -2 -10  -8    3.14    1.17
  -2 -10  -8    0.15    0.83
   2 -10   9    6.34    1.51
  -2 -10  -9    1.59    1.08
  -2 -10  -9    5.02    1.38
  -2 -10 -10    9.31    1.87
  -2 -10 -11    5.83    1.81
  -2 -10 -12    5.09    1.66
  -2 -10 -13   11.02    2.25
  -2 -10 -14   -2.31    2.01
  -2 -10 -15    6.87    2.20
  -2 -10 -16    1.72    1.82
  -2 -10 -17    5.94    2.02
   2  -9 -18    1.54    1.95
   2  -9 -17    4.42    1.86
   2  -9 -16    2.54    1.82
   2  -9 -15    4.57    1.95
   2  -9 -14   31.28    3.82
   2  -9 -13   12.58    2.43
   2  -9 -12   20.08    2.71
  -2  -9  11    5.08    1.51
   2  -9 -11    4.18    1.50
  -2  -9  10   42.83    3.38
   2  -9 -10   44.79    3.62
  -2  -9   9   34.78    2.94
   2  -9  -9   27.26    2.74
  -2  -9   8  115.48    5.23
   2  -9  -8  110.15    5.31
   2  -9  -8  112.10    5.55
  -2  -9   7   20.82    2.03
   2  -9  -7   23.43    2.20
   2  -9  -7   19.09    2.20
  -2  -9   6   43.78    2.81
   2  -9  -6   42.65    2.84
   2  -9  -6   44.38    3.14
  -2  -9   5  157.06    5.55
   2  -9  -5  159.12    5.80
   2  -9  -5  161.58    6.26
   2  -9  -4   18.19    1.68
  -2  -9   4   14.33    1.44
  -2  -9   4   14.20    1.75
   2  -9  -4   15.29    1.81
   2  -9  -3  563.87   13.40
  -2  -9   3  553.75   13.15
  -2  -9   3  542.46   14.24
   2  -9  -3  544.29   14.13
  -2  -9   2  124.56    4.30
   2  -9  -2  132.01    4.50
  -2  -9   2  129.59    5.16
   2  -9  -2  112.44    4.85
   2  -9  -1   14.80    1.35
  -2  -9   1   10.99    1.11
  -2  -9   1   10.09    1.41
   2  -9  -1   10.93    1.55
   2  -9   0  260.44    7.16
  -2  -9   0  262.88    7.96
   2  -9   0  252.79    7.89
   2  -9   0  262.65    7.26
   2  -9   1  172.34    5.42
  -2  -9  -1  175.49    6.04
   2  -9   1  167.18    5.97
   2  -9   1  180.08    5.63
   2  -9   2   87.79    3.64
  -2  -9  -2   91.94    4.08
   2  -9   2   86.78    4.01
   2  -9   2   95.12    3.88
   2  -9   3  156.54    5.37
  -2  -9  -3  156.90    5.70
   2  -9   3  152.63    5.71
   2  -9   3  162.43    5.61
   2  -9   4  411.86   10.99
   2  -9   4  403.05   11.27
  -2  -9  -4  420.63   11.07
  -2  -9  -4  403.22   11.10
   2  -9   4  417.14   11.25
   2  -9   5   54.33    3.64
   2  -9   5   56.11    3.34
  -2  -9  -5   57.87    3.28
  -2  -9  -5   56.53    3.25
   2  -9   5   60.34    3.48
   2  -9   6  489.77   13.57
   2  -9   6  528.09   14.39
   2  -9   6  490.17   13.33
  -2  -9  -6  485.18   13.08
  -2  -9  -6  479.40   13.27
   2  -9   7   22.47    2.37
   2  -9   7   27.36    2.74
   2  -9   7   23.75    2.34
  -2  -9  -7   20.84    2.25
  -2  -9  -7   19.93    2.09
   2  -9   8  279.95    9.70
  -2  -9  -8  255.48    9.20
  -2  -9  -8  265.25    8.85
   2  -9   9   45.38    3.71
  -2  -9  -9   43.07    3.48
  -2  -9  -9   40.12    3.11
  -2  -9 -10   48.42    3.94
  -2  -9 -11   58.58    4.51
  -2  -9 -12   46.94    4.13
  -2  -9 -13    2.71    1.78
  -2  -9 -14   90.63    6.32
  -2  -9 -15    2.03    1.70
  -2  -9 -16   24.48    3.64
  -2  -9 -17    2.49    1.57
   2  -8 -18   13.90    3.17
   2  -8 -17   22.41    3.66
   2  -8 -16    4.11    2.26
   2  -8 -15   69.42    5.67
   2  -8 -14    0.50    1.46
   2  -8 -13  113.35    6.69
   2  -8 -12    0.91    1.38
  -2  -8  11  312.40   10.86
   2  -8 -11  301.68   11.00
  -2  -8  10   21.59    2.40
   2  -8 -10   17.38    2.33
  -2  -8   9  171.40    6.98
   2  -8  -9  175.10    7.20
  -2  -8   8   39.27    2.95
   2  -8  -8   38.21    2.99
  -2  -8   7   68.26    3.70
   2  -8  -7   66.81    3.78
   2  -8  -7   59.49    3.75
  -2  -8   6   11.29    1.46
   2  -8  -6   11.53    1.59
   2  -8  -6   12.70    1.76
   2  -8  -6   11.27    1.64
  -2  -8   5  223.43    7.05
   2  -8  -5  233.96    7.35
   2  -8  -5  224.00    7.54
  -2  -8   4   61.10    3.00
   2  -8  -4   55.90    2.98
   2  -8  -4   59.02    3.29
   2  -8  -3  258.82    7.44
  -2  -8   3  271.55    7.36
  -2  -8   3  237.35    7.80
   2  -8  -3  254.55    7.83
   2  -8  -2   58.17    2.81
  -2  -8   2   61.00    2.79
  -2  -8   2   59.25    3.21
   2  -8  -2   61.24    3.17
   2  -8  -1   66.00    2.93
  -2  -8   1   66.34    2.87
   2  -8  -1   64.03    3.21
  -2  -8   1   61.44    3.21
   2  -8   0   29.93    1.86
  -2  -8   0   30.65    2.13
   2  -8   0   26.08    2.00
   2  -8   1  739.14   16.69
  -2  -8  -1  737.02   17.13
   2  -8   1  724.72   17.13
   2  -8   1  749.85   16.85
   2  -8   2   36.76    2.22
   2  -8   2   39.67    2.41
  -2  -8  -2   37.57    2.38
   2  -8   2   38.85    2.35
   2  -8   3   37.76    2.36
   2  -8   3   40.71    2.79
  -2  -8  -3   41.27    2.52
   2  -8   3   40.23    2.51
   2  -8   3   39.56    2.52
   2  -8   4   10.59    1.38
   2  -8   4    8.75    1.38
   2  -8   4    9.47    1.28
  -2  -8  -4   13.16    1.53
  -2  -8  -4    9.22    1.32
   2  -8   5  375.72   10.98
   2  -8   5  345.47   10.02
   2  -8   5  355.80   10.41
  -2  -8  -5  349.66    9.83
  -2  -8  -5  364.75   10.30
   2  -8   6   18.75    2.05
   2  -8   6   14.99    1.72
   2  -8   6   16.27    2.04
  -2  -8  -6   17.14    1.81
  -2  -8  -6   15.38    1.86
   2  -8   7   24.60    2.43
   2  -8   7   20.63    2.39
  -2  -8  -7   21.04    2.10
  -2  -8  -7   22.70    2.38
   2  -8   8   48.39    3.64
   2  -8   8   49.06    3.69
  -2  -8  -8   46.71    3.47
  -2  -8  -8   46.07    3.14
   2  -8   9   59.75    4.23
  -2  -8  -9   54.75    3.95
  -2  -8 -10   14.56    2.28
  -2  -8 -11    8.67    1.91
  -2  -8 -12    1.71    1.22
  -2  -8 -13    0.78    1.36
  -2  -8 -14    8.37    2.20
  -2  -8 -15    0.44    1.61
  -2  -8 -16    1.31    1.79
  -2  -8 -17   -2.21    1.98
   2  -7 -18    2.86    2.07
   2  -7 -17   11.79    2.85
   2  -7 -16    4.73    2.24
   2  -7 -15    2.91    1.94
   2  -7 -14    6.35    2.15
  -2  -7  14    6.53    1.57
   2  -7 -13    3.19    1.44
  -2  -7  13    1.79    1.11
   2  -7 -12   23.33    2.96
  -2  -7  11   27.63    2.89
   2  -7 -11   28.69    3.06
  -2  -7  10   80.31    4.74
   2  -7 -10   86.41    5.04
  -2  -7   9  274.26    9.37
   2  -7  -9  278.22    9.60
  -2  -7   8  102.70    4.94
   2  -7  -8  101.06    5.00
  -2  -7   7  163.92    6.24
   2  -7  -7  174.34    6.53
   2  -7  -7  169.79    6.58
  -2  -7   6   20.81    1.92
   2  -7  -6   20.14    2.01
   2  -7  -6   19.82    1.96
   2  -7  -6   18.93    1.98
  -2  -7   5  283.11    8.29
   2  -7  -5  285.38    8.48
   2  -7  -5  280.80    8.58
  -2  -7   4  629.52   15.22
   2  -7  -4  663.81   15.56
   2  -7  -4  652.49   15.71
   2  -7  -3  504.15   12.49
  -2  -7   3  518.01   12.38
   2  -7  -3  512.88   12.76
   2  -7  -2   84.46    3.46
  -2  -7   2   80.63    3.31
  -2  -7   2   90.34    3.81
   2  -7  -2   81.92    3.59
   2  -7  -1 1414.81   29.16
  -2  -7   1 1326.71   28.92
  -2  -7   1 1408.36   29.53
   2  -7  -1 1398.14   29.43
  -2  -7   0  303.39    7.66
   2  -7   0  274.76    7.52
   2  -7   0  278.67    7.74
  -2  -7   0  254.23    7.57
   2  -7   1 2091.98   42.88
  -2  -7  -1 2131.50   43.01
   2  -7   1 2107.96   42.99
   2  -7   1 2056.49   42.97
   2  -7   2  112.08    4.17
  -2  -7  -2  107.89    4.08
   2  -7   2  108.02    4.08
   2  -7   2  109.44    4.24
   2  -7   3  492.26   12.25
   2  -7   3  491.03   12.84
   2  -7   3  477.34   12.09
  -2  -7  -3  490.93   12.00
   2  -7   3  496.27   12.50
   2  -7   4  336.69    9.81
   2  -7   4  324.66    8.98
  -2  -7  -4  310.54    9.16
   2  -7   4  341.26    9.55
  -2  -7  -4  318.57    8.79
   2  -7   5 2267.43   47.17
   2  -7   5 2361.63   48.41
  -2  -7  -5 2253.68   46.94
  -2  -7  -5 2261.09   47.74
   2  -7   5 2277.27   48.03
   2  -7   6  658.62   16.77
  -2  -7  -6  613.10   16.19
   2  -7   6  633.77   16.48
  -2  -7  -6  643.84   15.50
   2  -7   7 1078.84   25.42
   2  -7   7 1082.16   25.50
  -2  -7  -7 1032.01   25.04
  -2  -7  -7 1061.97   24.09
   2  -7   8  163.54    7.00
   2  -7   8  161.46    6.92
  -2  -7  -8  148.33    6.58
   2  -7   9  201.47    8.30
  -2  -7  -9  194.86    7.99
  -2  -7 -10  163.55    7.44
  -2  -7 -11  140.99    7.09
  -2  -7 -12   50.43    4.25
  -2  -7 -13   63.26    5.06
  -2  -7 -14   54.32    4.81
  -2  -7 -15   74.95    5.96
  -2  -7 -16   46.57    4.84
  -2  -7 -17   20.86    3.54
   2  -6 -18   55.37    5.59
   2  -6 -17    1.64    1.74
   2  -6 -16   36.17    4.20
   2  -6 -15    5.34    1.91
   2  -6 -14  100.70    6.48
  -2  -6  14   89.13    4.92
   2  -6 -13   68.44    5.11
  -2  -6  13   63.80    3.94
   2  -6 -12  232.08    9.62
  -2  -6  12  229.78    8.01
   2  -6 -11   18.57    2.49
  -2  -6  11   15.27    1.83
  -2  -6  11   18.34    2.34
  -2  -6  10  500.56   14.51
   2  -6 -10  490.95   14.62
   2  -6  -9   86.71    4.80
  -2  -6   9   89.73    4.78
  -2  -6   8  236.65    8.20
   2  -6  -8  239.44    8.36
  -2  -6   7    2.89    0.93
   2  -6  -7    7.25    1.43
  -2  -6   6  716.31   17.64
   2  -6  -6  752.13   18.09
   2  -6  -6  748.18   17.94
  -2  -6   5   21.92    1.88
   2  -6  -5   18.59    1.79
   2  -6  -5   19.20    1.85
  -2  -6   4  973.74   22.05
   2  -6  -4 1008.23   22.33
   2  -6  -4 1014.30   22.30
  -2  -6   3   21.27    1.66
   2  -6  -3   21.70    1.72
   2  -6  -3   17.77    1.59
   2  -6  -2  274.17    7.44
  -2  -6   2  262.62    7.25
  -2  -6   2  250.39    7.31
   2  -6  -2  262.98    7.32
   2  -6  -1   52.47    2.59
  -2  -6   1   57.81    2.64
  -2  -6   1   55.16    2.67
   2  -6  -1   53.07    2.59
  -2  -6   0  563.68   13.72
   2  -6   0  629.10   14.02
   2  -6   0  618.54   13.84
  -2  -6   0  591.71   13.76
   2  -6   1  268.43    7.52
  -2  -6  -1  274.00    7.31
   2  -6   1  274.13    7.32
   2  -6   1  281.76    7.66
   2  -6   2  218.96    6.53
   2  -6   2  215.92    6.74
  -2  -6  -2  220.04    6.21
   2  -6   2  217.05    6.19
   2  -6   2  219.80    6.69
   2  -6   3  140.98    5.01
   2  -6   3  136.81    5.16
   2  -6   3  131.23    4.55
  -2  -6  -3  140.82    4.56
  -2  -6  -3  129.03    4.88
   2  -6   3  137.74    5.06
   2  -6   4   28.91    2.25
   2  -6   4   31.51    2.04
  -2  -6  -4   30.29    1.94
  -2  -6  -4   25.23    2.12
   2  -6   4   28.45    2.27
   2  -6   5   98.70    4.63
  -2  -6  -5  107.62    4.65
  -2  -6  -5   98.25    3.93
   2  -6   5  105.54    4.73
   2  -6   6   17.06    1.92
   2  -6   6   11.29    1.75
  -2  -6  -6   12.74    1.69
  -2  -6  -6   12.35    1.47
   2  -6   7  112.73    5.44
   2  -6   7  108.45    5.30
  -2  -6  -7  106.73    5.18
   2  -6   8    7.34    1.58
   2  -6   8    8.56    1.54
  -2  -6  -8    5.65    1.35
   2  -6   9    1.82    1.09
  -2  -6  -9    4.49    1.51
  -2  -6 -10    2.85    1.37
  -2  -6 -11    6.59    1.70
  -2  -6 -12   24.39    3.10
  -2  -6 -13    4.36    1.63
  -2  -6 -14    1.39    1.51
  -2  -6 -15    4.55    1.96
  -2  -6 -16   19.50    3.25
  -2  -6 -17    2.93    2.00
   2  -5 -19    0.73    2.06
   2  -5 -18    2.47    1.78
   2  -5 -17    3.63    2.08
   2  -5 -16   -0.93    1.78
   2  -5 -15   36.76    4.17
  -2  -5  15   31.72    3.04
   2  -5 -14    8.64    2.14
  -2  -5  14    8.96    1.66
   2  -5 -13    3.24    1.59
  -2  -5  13    5.13    1.31
   2  -5 -12   19.01    2.72
  -2  -5  12   22.14    2.19
   2  -5 -11   80.72    5.08
  -2  -5  11   73.20    4.71
  -2  -5  11   83.99    4.04
   2  -5 -10    4.13    1.38
  -2  -5  10    6.93    1.20
  -2  -5  10    4.85    1.47
   2  -5  -9   63.49    4.07
  -2  -5   9   71.93    4.28
  -2  -5   9   74.84    3.44
  -2  -5   8   36.25    2.79
   2  -5  -8   33.63    2.79
  -2  -5   7   59.91    3.48
   2  -5  -7   57.17    3.48
  -2  -5   6   39.24    2.65
   2  -5  -6   41.43    2.81
  -2  -5   5  138.41    5.12
   2  -5  -5  133.24    5.15
   2  -5  -5  135.92    5.07
  -2  -5   4   52.02    2.77
   2  -5  -4   51.77    2.88
   2  -5  -4   52.39    2.76
   2  -5  -3  486.09   11.94
  -2  -5   3  458.30   11.69
   2  -5  -3  507.98   11.80
   2  -5  -2  210.63    6.16
  -2  -5   2  197.35    5.97
   2  -5  -2  200.37    5.82
  -2  -5   1  736.93   16.72
   2  -5  -1  739.68   16.79
  -2  -5   1  750.96   16.52
   2  -5  -1  766.08   16.45
   2  -5   0  154.54    4.98
  -2  -5   0  157.79    4.95
   2  -5   0  152.45    4.58
  -2  -5   0  151.18    4.59
   2  -5   1  653.62   15.04
   2  -5   1  665.06   15.04
  -2  -5  -1  632.83   14.32
   2  -5   1  653.05   14.39
   2  -5   1  660.92   15.11
   2  -5   2   99.83    3.96
   2  -5   2  107.17    3.59
  -2  -5  -2  105.71    3.55
   2  -5   2  113.14    4.18
   2  -5   2  104.34    4.14
   2  -5   3  547.43   13.52
   2  -5   3  543.14   12.60
  -2  -5  -3  539.36   12.46
  -2  -5  -3  573.53   13.59
   2  -5   3  548.26   13.66
   2  -5   4  155.92    4.93
   2  -5   4  160.24    5.74
  -2  -5  -4  154.45    5.61
   2  -5   4  155.75    5.76
  -2  -5  -4  153.52    4.81
   2  -5   5 1591.43   34.32
   2  -5   5 1620.25   34.50
  -2  -5  -5 1548.86   34.14
  -2  -5  -5 1557.39   32.81
   2  -5   6  319.28    9.89
  -2  -5  -6  341.91   10.12
   2  -5   6  334.09   10.16
  -2  -5  -6  320.64    8.83
   2  -5   7  834.53   20.54
  -2  -5  -7  797.81   20.20
   2  -5   8  185.30    7.54
  -2  -5  -8  179.47    7.29
   2  -5   9  281.04   10.07
  -2  -5  -9  262.64    9.63
  -2  -5 -10   42.08    3.60
  -2  -5 -11   19.92    2.72
  -2  -5 -12   56.59    4.54
  -2  -5 -13   39.44    4.00
  -2  -5 -14   35.99    3.98
  -2  -5 -15   48.41    4.90
  -2  -5 -16   17.61    3.23
  -2  -5 -17    7.51    2.54
   2  -4 -19   41.68    5.04
   2  -4 -18    3.37    1.87
   2  -4 -17   47.02    5.10
   2  -4 -16   24.21    3.68
   2  -4 -15    1.87    1.65
  -2  -4  15    0.93    1.12
   2  -4 -14   12.81    2.50
  -2  -4  14   18.96    2.16
   2  -4 -13  290.91   11.36
  -2  -4  13  280.07    9.15
   2  -4 -12   45.44    3.95
  -2  -4  12   45.53    3.03
  -2  -4  11  125.99    6.32
   2  -4 -11  127.36    6.46
  -2  -4  11  127.40    5.08
  -2  -4  10  195.90    7.91
   2  -4 -10  201.15    8.12
  -2  -4  10  205.00    6.56
   2  -4  -9  275.69    9.35
  -2  -4   9  254.32    9.02
  -2  -4   9  254.81    7.45
  -2  -4   8   68.25    3.97
   2  -4  -8   66.08    3.94
  -2  -4   8   72.65    3.09
  -2  -4   7  627.60   15.89
   2  -4  -7  607.00   15.94
   2  -4  -7  633.54   16.01
  -2  -4   6   60.65    3.32
   2  -4  -6   53.93    3.28
  -2  -4   5 1037.40   23.01
   2  -4  -5 1013.20   23.11
  -2  -4   4  118.79    4.51
   2  -4  -4  120.71    4.60
   2  -4  -4  118.78    4.33
  -2  -4   3 1360.63   28.25
   2  -4  -3 1323.54   28.29
   2  -4  -3 1299.17   27.75
   2  -4  -2  163.03    5.19
  -2  -4   2  153.80    5.04
   2  -4  -2  161.85    4.75
  -2  -4   1   66.09    2.92
   2  -4  -1   68.12    2.98
  -2  -4   1   67.92    2.63
   2  -4  -1   69.63    2.59
   2  -4   0  526.07   12.44
  -2  -4   0  549.48   12.47
   2  -4   0  520.08   11.97
   2  -4   0  526.03   11.58
  -2  -4   0  508.93   11.59
   2  -4   1  109.42    4.05
  -2  -4  -1  110.12    3.37
   2  -4   1  111.17    3.36
   2  -4   1  105.97    3.81
   2  -4   1  112.88    4.13
   2  -4   2  353.36    9.20
   2  -4   2  348.33    9.04
   2  -4   2  342.39    8.14
  -2  -4  -2  344.78    8.11
   2  -4   2  351.81    9.33
   2  -4   3  215.85    5.74
   2  -4   3  214.66    6.60
  -2  -4  -3  207.52    6.62
   2  -4   3  211.67    6.83
  -2  -4  -3  219.45    5.65
  -2  -4  -4   74.91    3.65
  -2  -4  -4   74.85    2.87
   2  -4   4   81.55    3.84
  -2  -4  -5   54.78    2.56
  -2  -4  -5   54.24    3.25
   2  -4   5   58.40    3.42
  -2  -4  -6  190.04    7.01
   2  -4   6  195.01    7.14
   2  -4   7  634.10   16.51
  -2  -4  -7  593.60   16.13
   2  -4   8   43.87    3.38
  -2  -4  -8   39.37    3.20
   2  -4   9    3.20    1.05
  -2  -4  -9    3.85    1.37
   2  -4  10   22.90    2.76
  -2  -4 -10   24.50    2.79
  -2  -4 -11    2.09    1.37
  -2  -4 -12   55.64    4.55
  -2  -4 -13   10.43    2.22
  -2  -4 -14   12.59    2.70
  -2  -4 -15   14.77    2.90
  -2  -4 -16   12.73    2.99
  -2  -4 -17    7.55    2.39
   2  -3 -19    1.16    1.97
   2  -3 -18    7.44    2.51
   2  -3 -17    0.96    1.64
   2  -3 -16   60.93    5.45
   2  -3 -15   22.39    3.27
  -2  -3  15   18.54    2.27
   2  -3 -14    0.71    1.41
  -2  -3  14    0.01    0.87
   2  -3 -13    6.36    1.87
  -2  -3  13    5.26    1.25
   2  -3 -12   28.20    3.09
  -2  -3  12   25.57    2.24
   2  -3 -11   19.22    2.54
  -2  -3  11   20.65    1.90
  -2  -3  11   20.24    2.46
   2  -3 -10   16.23    2.26
  -2  -3  10   20.82    1.77
  -2  -3  10   16.51    2.13
   2  -3  -9   13.04    1.89
  -2  -3   9   11.13    1.24
  -2  -3   9   11.15    1.72
   2  -3  -8  124.00    5.58
  -2  -3   8  121.82    5.45
  -2  -3   8  124.33    4.19
   2  -3  -7  681.08   16.88
   2  -3  -7  647.31   16.62
  -2  -3   7  648.15   14.56
  -2  -3   7  680.47   16.70
   2  -3  -6    1.17    0.82
  -2  -3   6    4.70    1.05
  -2  -3   5   24.13    1.97
   2  -3  -5   30.35    2.29
  -2  -3   4  488.17   12.14
   2  -3  -4  487.13   12.27
  -2  -3   3  207.66    6.24
   2  -3  -3  203.94    6.29
   2  -3  -2 1103.17   23.71
  -2  -3   2 1107.41   23.69
   2  -3  -2 1094.50   22.86
   2  -3  -1  238.06    6.67
  -2  -3   1  231.07    6.59
   2  -3  -1  234.92    5.80
  -2  -3   0  445.56   10.76
   2  -3   0  439.67   10.80
   2  -3   0  443.32   10.12
  -2  -3   0  443.84    9.69
   2  -3   0  436.17    9.61
   2  -3   1   29.43    1.96
   2  -3   1   30.08    1.74
  -2  -3  -1   27.48    1.28
   2  -3   1   28.61    1.30
   2  -3   1   28.20    1.92
   2  -3   2  626.41   14.71
   2  -3   2  624.58   13.23
  -2  -3  -2  629.42   13.19
   2  -3   2  628.88   14.84
   2  -3   3   40.34    1.76
  -2  -3  -3   42.35    1.74
   2  -3   3   41.82    2.61
  -2  -3  -3   45.33    2.61
   2  -3   4  431.49   11.48
  -2  -3  -4  424.78   11.35
   2  -3   5    7.93    1.39
  -2  -3  -5    0.98    0.78
  -2  -3  -6 1830.02   40.24
   2  -3   6 1905.55   40.61
   2  -3   7  786.81   19.65
  -2  -3  -7  762.48   19.40
   2  -3   8  179.04    7.29
  -2  -3  -8  160.37    6.85
   2  -3   9    3.86    1.39
  -2  -3  -9    4.04    1.45
   2  -3  10  311.83   11.09
  -2  -3 -10  283.95   10.52
  -2  -3 -11   63.44    4.60
  -2  -3 -12  210.95    9.25
  -2  -3 -13    2.88    1.78
  -2  -3 -14   95.20    6.45
  -2  -3 -15    8.37    2.22
  -2  -3 -16  126.26    8.05
  -2  -3 -17    1.02    1.60
  -2  -3 -18   37.41    4.75
   2  -2 -19   18.53    3.55
   2  -2 -18   17.79    3.44
   2  -2 -17   44.59    4.94
   2  -2 -16    4.96    1.92
   2  -2 -15   20.41    3.11
  -2  -2  15   19.24    2.33
   2  -2 -14   44.45    4.29
  -2  -2  14   38.61    3.05
   2  -2 -13  303.86   11.53
  -2  -2  13  277.32    9.00
   2  -2 -12   75.54    5.15
  -2  -2  12   81.64    3.99
  -2  -2  11  467.76   14.39
   2  -2 -11  476.94   14.62
  -2  -2  11  474.29   12.23
  -2  -2  10  153.12    6.70
   2  -2 -10  156.35    6.88
  -2  -2  10  141.69    5.08
   2  -2  -9  271.63    9.24
  -2  -2   9  254.28    8.97
  -2  -2   9  253.97    7.18
   2  -2  -8   23.64    2.37
  -2  -2   8   27.58    2.55
  -2  -2   8   27.33    1.70
   2  -2  -7  863.06   20.67
   2  -2  -7  873.75   20.51
  -2  -2   7  831.97   18.02
  -2  -2   7  863.11   20.42
   2  -2  -6 1469.39   32.15
  -2  -2   6 1461.27   29.51
  -2  -2   6 1472.15   31.89
  -2  -2   5 1709.76   36.17
   2  -2  -5 1706.53   36.29
  -2  -2   4  588.92   14.24
   2  -2  -4  596.98   14.36
  -2  -2   3  882.45   19.43
   2  -2  -3  857.86   19.44
   2  -2  -2  119.01    4.32
  -2  -2   2  131.97    4.45
   2  -2  -1  449.72   11.04
  -2  -2   1  466.32   11.08
   2  -2  -1  443.43    9.83
   2  -2  -1  466.03    9.89
  -2  -2   0  212.09    6.20
   2  -2   0  210.07    6.21
   2  -2   0  215.78    5.50
  -2  -2   0  215.52    4.99
   2  -2   0  218.10    4.93
   2  -2   1  464.95   11.14
  -2  -2  -1  441.04    9.32
   2  -2   1  452.81    9.31
   2  -2   1  450.69   11.09
   2  -2   2  220.25    6.61
   2  -2   2  218.19    5.06
  -2  -2  -2  227.19    5.03
   2  -2   2  223.61    6.76
  -2  -2  -3   80.32    3.64
   2  -2   3   89.30    3.89
  -2  -2  -4   41.93    2.67
   2  -2   4   40.37    2.63
  -2  -2  -5  227.03    7.59
   2  -2   5  239.57    7.85
   2  -2   6  341.62   10.45
  -2  -2  -6  353.98   10.49
   2  -2   7  331.42   10.59
  -2  -2  -7  331.54   10.42
   2  -2   8   39.01    3.22
  -2  -2  -8   29.59    2.82
   2  -2   9   88.99    5.17
  -2  -2  -9   81.30    4.84
   2  -2  10   27.43    3.00
  -2  -2 -10   25.58    2.87
  -2  -2 -11   43.41    3.83
  -2  -2 -12   12.09    2.30
  -2  -2 -13    4.97    1.78
  -2  -2 -14   -0.47    1.28
  -2  -2 -15   -0.84    1.42
  -2  -2 -16   10.11    2.68
  -2  -2 -17   -0.67    1.42
  -2  -2 -18    1.32    2.00
   2  -1 -19    5.09    1.93
   2  -1 -18    7.88    2.33
   2  -1 -17    1.79    1.64
   2  -1 -16   18.84    3.37
   2  -1 -15    3.82    1.83
   2  -1 -14   11.48    2.38
   2  -1 -13   11.24    2.24
   2  -1 -12   20.21    2.77
   2  -1 -11    9.86    1.97
  -2  -1  11    6.82    1.57
   2  -1 -10    6.92    1.58
  -2  -1  10    6.04    1.43
   2  -1  -9  147.94    6.43
  -2  -1   9  146.41    6.34
   2  -1  -8  192.08    7.15
  -2  -1   8  176.51    6.94
   2  -1  -7   50.16    3.40
   2  -1  -7   57.26    3.46
  -2  -1   7   56.77    2.25
  -2  -1   7   61.27    3.50
  -2  -1   6   20.32    1.11
   2  -1  -6   20.77    2.10
  -2  -1   6   23.09    2.11
   2  -1  -5   63.83    3.34
  -2  -1   5   59.72    3.15
  -2  -1   4  207.39    6.40
   2  -1  -4  196.56    6.38
  -2  -1   3  245.44    7.05
   2  -1  -3  241.28    7.07
   2  -1  -2  830.34   18.26
  -2  -1   2  805.22   18.15
  -2  -1   1  143.48    4.63
   2  -1  -1  138.60    4.60
   2  -1  -1  134.73    3.47
   2  -1   0  129.09    4.46
  -2  -1   0  135.90    4.49
   2  -1   1   88.89    3.56
   2  -1   1   86.70    3.54
   2  -1   2   13.01    1.40
   2  -1   2   14.41    1.45
  -2  -1  -3  103.34    4.23
   2  -1   3  106.87    4.35
   2  -1   4  338.77    9.50
  -2  -1  -4  319.29    9.29
  -2  -1  -5  693.48   17.11
   2  -1   5  698.93   17.27
  -2  -1  -6   30.67    2.61
   2  -1   6   31.36    2.60
   2  -1   7  177.51    6.98
  -2  -1  -7  163.66    6.69
   2  -1   8   26.16    2.64
  -2  -1  -8   24.46    2.53
   2  -1   9   86.85    5.11
  -2  -1  -9   84.13    4.92
  -2  -1 -10   12.90    2.08
   2  -1  10   10.92    2.06
  -2  -1 -11   90.52    5.59
  -2  -1 -12    7.84    2.03
  -2  -1 -13   31.80    3.56
  -2  -1 -14   10.04    2.35
  -2  -1 -15   35.72    4.12
  -2  -1 -16   18.27    3.27
  -2  -1 -17   15.74    3.28
  -2  -1 -18   -1.23    1.68
   2   0 -19    1.89    1.97
   2   0 -18  153.56    9.40
   2   0 -17   16.02    3.28
   2   0 -16   26.36    3.71
   2   0 -15   17.95    3.05
   2   0 -14  301.45   12.01
   2   0 -13    0.81    1.14
   2   0 -12  458.68   14.73
   2   0 -11   20.30    2.59
  -2   0  11   23.39    2.65
  -2   0  10  288.72   10.02
   2   0 -10  291.30   10.18
   2   0  -9   14.97    2.02
  -2   0   9   14.20    1.99
  -2   0   8  307.82    9.97
   2   0  -8  344.18   10.38
   2   0  -7    0.06    0.89
   2   0  -7   -0.72    0.93
  -2   0   7    0.32    0.71
   2   0  -6 1551.92   34.32
  -2   0   6 1622.04   34.33
   2   0  -5    1.12    0.83
  -2   0   5    2.83    0.89
  -2   0   5    0.94    0.28
   2   0  -4 1464.49   30.97
  -2   0   4 1434.84   30.86
  -2   0   3    5.33    0.91
   2   0  -3    5.18    1.01
  -2   0   2 1125.61   23.88
   2   0  -2 1093.84   23.83
  -2   0   1    3.07    0.76
   2   0  -1    4.08    0.91
   2   0   0   54.17    2.62
  -2   0   0   51.02    2.51
   2   0   1    0.67    0.71
   2   0   1    0.35    0.58
   2   0   2   28.13    1.98
   2   0   2   28.65    2.03
   2   0   3    4.94    1.07
  -2   0  -3    4.35    0.99
   2   0   3    5.54    0.51
   2   0   4  186.42    6.31
   2   0   4  172.79    4.53
  -2   0  -4  187.44    6.28
   2   0   5    5.20    1.14
  -2   0  -5    5.59    1.25
   2   0   6   42.42    3.04
  -2   0  -6   36.22    2.81
   2   0   7    0.88    0.87
  -2   0  -7    0.60    1.01
   2   0   8  176.14    7.20
  -2   0  -8  159.08    6.82
   2   0   9    4.10    1.28
  -2   0  -9    2.76    1.26
   2   0  10   34.91    3.37
  -2   0 -10   28.13    3.02
  -2   0 -11    4.20    1.57
   2   0  11    0.55    0.90
  -2   0 -12    0.82    1.23
   2   0  12    1.49    0.81
  -2   0 -13    0.07    1.10
   2   0  13   -1.91    1.34
  -2   0 -14    2.46    1.57
  -2   0 -15    1.50    1.66
  -2   0 -16   29.04    3.92
  -2   0 -17   -0.66    1.44
  -2   0 -18   -1.87    1.90
   2   1 -19    3.01    2.20
   2   1 -18   14.36    3.15
   2   1 -17    3.36    1.87
   2   1 -16   16.39    3.07
   2   1 -15    3.38    1.44
   2   1 -14   12.66    2.50
   2   1 -13   10.98    2.33
   2   1 -12   19.35    2.79
  -2   1  11    8.98    1.82
   2   1 -11    8.16    1.93
  -2   1  10    6.25    1.44
   2   1 -10    7.06    1.72
   2   1  -9  150.81    6.52
  -2   1   9  155.39    6.56
   2   1  -8  176.68    6.83
  -2   1   8  172.76    6.81
  -2   1   7   56.00    3.35
   2   1  -7   51.00    3.38
   2   1  -7   59.09    3.49
  -2   1   6   24.83    2.17
   2   1  -6   23.46    2.16
  -2   1   5   53.67    2.98
   2   1  -5   59.46    3.16
  -2   1   4  203.35    6.34
   2   1  -4  194.39    6.34
   2   1  -3  246.16    7.09
  -2   1   3  242.63    7.04
  -2   1   3  244.12    6.34
   2   1  -2  852.86   18.74
  -2   1   2  856.77   18.71
  -2   1   2  829.32   17.54
  -2   1   1  129.89    4.45
   2   1  -1  135.17    4.56
  -2   1   1  135.88    3.45
  -2   1   0  128.09    4.36
   2   1   0  126.34    4.36
   2   1   1   84.17    3.47
   2   1   1   93.32    3.65
   2   1   2   13.76    1.41
   2   1   2   12.00    1.35
  -2   1  -3  102.36    4.17
   2   1   3  101.87    2.74
   2   1   3  104.20    4.28
   2   1   4  319.46    9.07
  -2   1  -4  297.27    8.89
   2   1   4  309.83    7.17
  -2   1  -5  688.65   17.12
   2   1   5  699.42   15.14
   2   1   5  709.59   17.37
   2   1   6   30.42    2.57
  -2   1  -6   26.35    2.41
   2   1   6   26.13    1.67
   2   1   7  164.79    6.71
   2   1   7  151.73    5.11
  -2   1  -7  166.00    6.61
   2   1   8   25.21    2.62
  -2   1  -8   25.74    2.60
   2   1   8   24.07    1.93
   2   1   9   89.60    5.17
   2   1   9   86.08    4.03
  -2   1  -9   85.88    4.97
   2   1  10   10.95    2.08
  -2   1 -10   11.20    1.97
   2   1  10    9.60    1.51
  -2   1 -11   99.19    5.84
   2   1  11  102.70    4.94
  -2   1 -12    5.57    1.68
   2   1  12    3.24    1.01
  -2   1 -13   35.62    3.77
   2   1  13   34.04    3.11
  -2   1 -14    7.35    2.05
  -2   1 -15   44.20    4.49
  -2   1 -16   23.67    3.59
  -2   1 -17    9.76    2.44
  -2   1 -18    2.78    2.00
   2   2 -19   16.27    3.31
   2   2 -18   22.40    3.86
   2   2 -17   49.93    5.18
   2   2 -16    5.64    2.17
   2   2 -15   21.67    3.25
   2   2 -14   45.62    4.35
   2   2 -13  295.65   11.48
   2   2 -12   74.43    5.10
  -2   2  11  485.07   14.78
   2   2 -11  491.64   14.99
  -2   2  11  501.60   14.47
  -2   2  10  155.08    6.90
   2   2 -10  157.07    6.96
  -2   2  10  160.41    6.68
   2   2  -9  266.83    9.30
  -2   2   9  276.09    9.35
  -2   2   9  267.60    8.92
  -2   2   8   25.39    2.41
   2   2  -8   30.70    2.65
  -2   2   8   26.93    2.36
  -2   2   7  846.39   20.39
   2   2  -7  855.97   20.55
   2   2  -7  865.06   20.51
  -2   2   7  846.14   19.96
  -2   2   6 1472.40   32.25
   2   2  -6 1508.68   32.46
  -2   2   6 1475.97   31.72
  -2   2   5 1708.57   35.52
   2   2  -5 1647.87   35.52
  -2   2   5 1652.41   34.83
  -2   2   4  588.17   14.11
   2   2  -4  587.64   14.15
  -2   2   4  577.94   13.46
   2   2  -3  853.91   19.52
  -2   2   3  856.43   19.51
  -2   2   3  892.08   17.51
  -2   2   3  870.34   18.76
   2   2  -2  113.56    4.16
  -2   2   2  123.18    4.27
  -2   2   2  116.70    3.52
  -2   2   1  465.21   11.05
   2   2  -1  452.32   11.03
  -2   2   1  449.08    9.84
   2   2   0  237.26    6.47
  -2   2   0  227.48    6.37
  -2   2   0  211.13    5.00
   2   2   1  439.08   11.03
   2   2   1  461.35   11.15
   2   2   2  208.18    6.47
   2   2   2  223.14    5.05
   2   2   2  230.52    6.78
   2   2   3   83.47    2.56
  -2   2  -3   86.76    3.78
   2   2   3   89.03    3.89
   2   2   4   39.55    2.57
  -2   2  -4   36.63    2.51
   2   2   4   37.36    1.70
   2   2   5  222.41    6.02
  -2   2  -5  230.00    7.58
   2   2   5  242.02    7.77
   2   2   6  328.45    8.41
  -2   2  -6  326.63   10.04
   2   2   6  336.15   10.22
   2   2   7  356.29   10.82
   2   2   7  323.63    8.83
  -2   2  -7  340.62   10.55
   2   2   8   35.20    3.05
   2   2   8   29.41    2.16
  -2   2  -8   31.59    2.87
   2   2   9   95.17    5.28
   2   2   9   79.12    3.86
  -2   2  -9   73.15    4.59
   2   2  10   34.31    3.36
   2   2  10   30.80    2.49
  -2   2 -10   25.13    2.87
   2   2  11   45.89    3.23
  -2   2 -11   45.56    3.91
  -2   2 -12    4.57    1.60
   2   2  12    6.55    1.46
  -2   2 -13    4.89    1.86
   2   2  13    4.77    1.50
  -2   2 -14    2.09    1.43
  -2   2 -15   -0.02    1.81
  -2   2 -16    8.96    2.38
  -2   2 -17    4.86    2.17
  -2   2 -18    3.25    2.10
   2   3 -19    2.81    2.54
   2   3 -18    9.04    2.66
   2   3 -17    1.04    1.79
   2   3 -16   59.28    5.38
   2   3 -15   25.80    3.41
   2   3 -14    2.45    1.54
   2   3 -13    8.00    2.05
   2   3 -12   26.62    3.11
  -2   3  11   18.34    2.36
   2   3 -11   21.55    2.68
  -2   3  11   18.05    2.32
  -2   3  10   17.52    2.19
   2   3 -10   15.14    2.17
  -2   3  10   18.23    2.20
  -2   3   9   10.69    1.71
   2   3  -9   11.60    1.88
  -2   3   9   11.83    1.70
  -2   3   8  124.87    5.59
   2   3  -8  126.43    5.60
  -2   3   8  128.09    5.40
  -2   3   7  681.46   16.76
   2   3  -7  666.70   16.80
   2   3  -7  648.88   16.61
  -2   3   7  652.33   16.26
  -2   3   6    3.08    0.96
   2   3  -6    2.74    1.06
  -2   3   6    3.04    0.93
  -2   3   5   29.74    2.17
   2   3  -5   26.23    2.12
  -2   3   5   22.24    1.78
   2   3  -4  485.22   12.13
  -2   3   4  472.56   12.01
   2   3  -4  487.94   10.38
  -2   3   4  475.57   11.57
  -2   3   3  207.34    6.32
   2   3  -3  221.90    6.46
  -2   3   3  203.50    5.81
  -2   3   2 1079.66   23.39
   2   3  -2 1127.88   23.48
  -2   3   2 1081.39   22.01
  -2   3   2 1069.91   22.59
   2   3  -1  256.71    6.90
  -2   3   1  241.53    6.78
  -2   3   1  242.19    5.96
  -2   3   1  236.74    5.98
  -2   3   0  435.56   10.55
   2   3   0  436.54   10.56
  -2   3   0  420.98    9.39
   2   3   1   25.70    1.82
   2   3   1   27.75    1.29
  -2   3  -1   26.96    1.26
   2   3   1   29.07    1.90
   2   3   2  636.55   14.91
   2   3   2  630.87   13.45
   2   3   2  658.23   15.13
   2   3   3   43.48    1.83
  -2   3  -3   44.89    2.64
   2   3   3   45.29    2.69
   2   3   4  426.80    9.85
  -2   3  -4  426.39   11.34
   2   3   4  426.12   11.42
   2   3   5    1.21    0.87
   2   3   5    0.14    0.45
  -2   3  -5    0.59    0.84
   2   3   6 1857.03   38.54
   2   3   6 1927.29   40.77
  -2   3  -6 1873.17   40.54
   2   3   7  788.35   19.29
   2   3   7  728.51   17.06
  -2   3  -7  739.67   18.87
   2   3   8  166.15    7.08
   2   3   8  168.54    5.82
  -2   3  -8  170.34    7.01
   2   3   9    3.71    1.21
  -2   3  -9    6.80    1.65
   2   3   9    2.97    0.90
   2   3  10  318.23   11.17
   2   3  10  293.58    9.23
  -2   3 -10  289.28   10.57
  -2   3 -11   60.68    4.56
   2   3  11   63.33    3.82
   2   3  12  217.29    8.13
  -2   3 -12  219.22    9.51
  -2   3 -13    3.22    1.71
  -2   3 -14   89.11    6.18
  -2   3 -15    7.10    2.21
  -2   3 -16  134.29    8.30
  -2   3 -17    4.34    1.91
  -2   3 -18   32.82    4.54
   2   4 -19   47.18    5.40
   2   4 -18   10.10    2.71
   2   4 -17   38.07    4.51
   2   4 -16   23.69    3.50
   2   4 -15    2.72    1.82
   2   4 -14   17.00    2.76
   2   4 -13  273.07   10.97
   2   4 -12   39.02    3.69
  -2   4  11  120.46    6.19
   2   4 -11  124.09    6.36
  -2   4  10  210.89    8.19
   2   4 -10  204.50    8.18
  -2   4  10  205.65    7.88
   2   4  -9  267.19    9.27
  -2   4   9  265.47    9.21
  -2   4   9  268.43    8.99
   2   4  -8   69.19    3.96
  -2   4   8   63.66    3.82
  -2   4   8   63.82    3.70
  -2   4   7  608.74   15.77
   2   4  -7  610.71   15.81
  -2   4   7  642.23   15.68
  -2   4   6   57.12    3.24
   2   4  -6   55.77    3.30
  -2   4   6   62.54    3.25
   2   4  -5 1087.66   23.37
  -2   4   5 1021.76   23.13
   2   4  -5 1011.84   21.48
  -2   4   5 1039.85   22.88
   2   4  -4  117.43    4.51
  -2   4   4  117.44    4.47
   2   4  -4  117.91    3.52
  -2   4   4  113.51    4.20
   2   4  -3 1348.60   27.87
  -2   4   3 1285.68   27.74
  -2   4   3 1276.32   27.30
   2   4  -2  153.02    5.00
  -2   4   2  154.19    5.02
  -2   4   2  156.57    4.67
  -2   4   2  152.78    4.29
  -2   4   1   67.10    2.91
   2   4  -1   66.39    2.90
  -2   4   1   61.97    2.44
  -2   4   1   63.11    2.52
   2   4   0  525.27   12.39
  -2   4   0  526.61   12.39
  -2   4   0  513.71   11.58
  -2   4   0  530.86   11.97
   2   4   1  103.33    3.88
  -2   4  -1  103.47    3.24
   2   4   1   99.66    3.22
   2   4   1  112.48    4.03
   2   4   2  354.46    9.21
   2   4   2  343.99    8.19
   2   4   2  350.50    9.34
   2   4   3  209.60    5.67
  -2   4  -3  225.96    6.81
   2   4   3  213.64    6.81
   2   4   4   78.22    2.97
  -2   4  -4   74.70    3.65
   2   4   4   74.69    3.73
   2   4   5   60.61    2.70
  -2   4  -5   55.87    3.31
   2   4   5   60.83    3.48
  -2   4  -6  190.13    7.03
   2   4   6  205.31    7.28
   2   4   6  187.86    5.88
   2   4   7  638.11   16.73
  -2   4  -7  625.03   16.51
   2   4   7  621.83   14.96
   2   4   8   44.10    3.50
   2   4   8   37.87    2.55
  -2   4  -8   39.95    3.23
   2   4   9    5.07    1.39
   2   4   9    4.26    1.10
  -2   4  -9    4.40    1.27
   2   4  10   22.75    2.81
   2   4  10   21.35    2.13
  -2   4 -10   22.52    2.68
  -2   4 -11    0.51    1.16
   2   4  11    0.40    0.84
  -2   4 -12   48.61    4.23
   2   4  12   53.08    3.70
  -2   4 -13    9.12    2.14
  -2   4 -14    9.69    2.32
  -2   4 -15   23.25    3.20
  -2   4 -16   11.40    2.89
  -2   4 -17   11.71    2.66
  -2   4 -18    7.85    2.63
   2   5 -19    2.69    2.25
   2   5 -18    3.88    2.22
   2   5 -17    1.42    1.58
   2   5 -16    0.68    1.64
   2   5 -15   24.28    3.40
   2   5 -14    6.93    1.98
   2   5 -13    2.96    1.52
   2   5 -12   20.58    2.83
   2   5 -11   79.17    5.00
  -2   5  11   83.18    5.03
  -2   5  10    5.57    1.41
   2   5 -10    8.06    1.74
  -2   5  10    8.83    1.67
   2   5  -9   65.17    4.12
  -2   5   9   66.13    4.09
  -2   5   9   74.55    4.22
  -2   5   8   42.11    3.07
   2   5  -8   42.86    3.13
  -2   5   8   39.73    2.95
  -2   5   7   56.52    3.39
   2   5  -7   59.39    3.50
  -2   5   7   58.09    3.39
   2   5  -6   38.41    2.69
  -2   5   6   43.24    2.78
   2   5  -6   41.21    2.14
  -2   5   6   37.69    2.55
   2   5  -5  142.34    5.28
  -2   5   5  139.51    5.20
   2   5  -5  140.55    4.35
  -2   5   5  140.41    5.15
  -2   5   4   54.96    2.84
   2   5  -4   54.95    2.95
  -2   5   4   53.39    2.80
  -2   5   3  475.44   11.78
   2   5  -3  487.84   11.84
  -2   5   3  476.07   11.65
   2   5  -2  208.98    6.10
  -2   5   2  197.17    6.00
  -2   5   2  200.27    5.87
  -2   5   1  735.59   16.56
   2   5  -1  763.70   16.59
  -2   5   1  733.47   16.17
  -2   5   1  718.63   16.18
  -2   5   0  147.96    4.86
   2   5   0  152.53    4.90
  -2   5   0  159.70    4.84
  -2   5   0  148.81    4.56
   2   5   1  647.20   15.02
   2   5   1  661.91   14.51
  -2   5  -1  655.36   14.46
   2   5   1  650.63   15.10
   2   5   2  103.34    3.97
   2   5   2   97.92    3.47
   2   5   2  113.16    4.23
   2   5   3  535.54   12.70
  -2   5  -3  557.58   13.67
   2   5   3  595.98   13.92
   2   5   4  156.88    4.96
  -2   5  -4  156.55    5.67
   2   5   4  163.36    5.86
   2   5   5 1581.31   32.82
   2   5   5 1612.19   34.38
  -2   5  -5 1510.69   33.92
   2   5   6  312.49    8.66
   2   5   6  320.82    9.90
  -2   5  -6  320.22    9.80
   2   5   7  806.62   20.35
   2   5   7  821.29   18.82
  -2   5  -7  798.86   20.14
   2   5   8  180.74    7.42
   2   5   8  175.82    6.22
  -2   5  -8  165.78    6.99
   2   5   9  287.33   10.22
   2   5   9  277.25    8.72
  -2   5  -9  260.42    9.64
   2   5  10   37.78    3.55
   2   5  10   41.20    3.00
  -2   5 -10   36.31    3.32
   2   5  11   22.48    2.37
  -2   5 -11   24.12    2.88
   2   5  12   63.49    4.08
  -2   5 -12   59.43    4.68
  -2   5 -13   52.07    4.55
  -2   5 -14   32.65    3.77
  -2   5 -15   56.26    5.17
  -2   5 -16   16.73    3.05
  -2   5 -17    5.10    2.00
   2   6 -19    4.06    2.20
   2   6 -18   55.40    5.59
   2   6 -17    0.77    1.67
   2   6 -16   32.75    4.17
   2   6 -15    0.55    1.56
   2   6 -14   92.02    6.22
   2   6 -13   74.46    5.29
   2   6 -12  207.14    8.96
  -2   6  11   20.12    2.51
   2   6 -11   20.55    2.60
  -2   6  10  481.81   14.29
   2   6 -10  488.97   14.41
  -2   6  10  475.29   14.11
  -2   6   9   81.89    4.60
   2   6  -9   87.73    4.76
  -2   6   9   87.27    4.68
  -2   6   8  234.17    8.18
   2   6  -8  238.61    8.29
  -2   6   8  233.44    8.14
  -2   6   7    3.27    0.89
   2   6  -7    4.50    1.19
  -2   6   7    2.30    0.97
   2   6  -6  728.98   17.76
  -2   6   6  728.34   17.66
   2   6  -6  733.99   16.55
  -2   6   6  731.33   17.77
   2   6  -5   18.93    1.82
  -2   6   5   22.10    1.89
   2   6  -5   18.04    1.47
  -2   6   5   21.80    1.93
   2   6  -4 1014.96   22.55
  -2   6   4 1012.42   22.48
  -2   6   4 1016.71   22.67
   2   6  -3   21.14    1.70
  -2   6   3   19.05    1.61
  -2   6   3   21.30    1.75
  -2   6   2  259.93    7.27
   2   6  -2  264.92    7.30
  -2   6   2  259.94    7.36
   2   6  -1   56.56    2.67
  -2   6   1   55.76    2.65
  -2   6   1   55.00    2.64
  -2   6   1   56.84    2.65
  -2   6   0  617.46   14.00
   2   6   0  595.13   13.89
  -2   6   0  611.06   14.06
  -2   6   0  585.02   13.78
   2   6   1  277.65    7.47
   2   6   1  280.45    7.36
  -2   6  -1  267.68    7.26
  -2   6  -1  271.00    7.64
   2   6   1  251.78    7.37
   2   6   2  214.07    6.52
   2   6   2  226.46    6.36
   2   6   2  228.37    6.80
   2   6   3  144.30    4.99
   2   6   3  123.66    4.40
   2   6   3  137.15    5.04
   2   6   4   26.62    1.86
  -2   6  -4   24.25    2.05
   2   6   4   26.42    2.18
   2   6   5  100.92    4.07
  -2   6  -5  103.18    4.60
   2   6   5  103.02    4.70
   2   6   6   15.85    1.90
   2   6   6   14.42    1.52
  -2   6  -6   15.81    1.93
   2   6   7  119.37    5.53
   2   6   7  107.03    4.54
  -2   6  -7  107.02    5.19
   2   6   8    7.14    1.53
   2   6   8    5.26    1.08
  -2   6  -8    5.49    1.29
   2   6   9    1.49    0.89
  -2   6  -9    0.32    0.95
   2   6   9    2.91    1.63
   2   6  10    1.36    0.94
  -2   6 -10    3.11    1.29
   2   6  11    9.83    1.72
  -2   6 -11    8.33    1.81
   2   6  12   23.11    2.64
  -2   6 -12   20.81    2.87
  -2   6 -13   14.10    2.57
  -2   6 -14    4.65    1.90
  -2   6 -15    2.49    1.79
  -2   6 -16   13.27    2.72
  -2   6 -17   -0.63    1.85
   2   7 -18    0.73    1.80
   2   7 -17   10.09    2.62
   2   7 -16    3.36    1.89
   2   7 -15    2.60    1.49
   2   7 -14    7.45    1.97
   2   7 -13    2.55    1.64
   2   7 -12   21.46    2.79
  -2   7  11   29.30    3.01
   2   7 -11   29.50    3.17
  -2   7  10   73.01    4.54
   2   7 -10   84.40    4.89
  -2   7   9  267.95    9.41
   2   7  -9  289.46    9.70
  -2   7   9  285.44    9.70
  -2   7   8   95.40    4.82
   2   7  -8  104.35    5.03
  -2   7   8  112.15    5.25
   2   7  -7  168.64    6.38
  -2   7   7  163.68    6.26
   2   7  -7  159.70    5.54
  -2   7   7  170.73    6.58
   2   7  -6   15.94    1.77
   2   7  -6   15.52    1.70
  -2   7   6   17.16    1.78
   2   7  -6   16.37    1.54
  -2   7   6   19.85    1.99
   2   7  -5  290.78    8.50
   2   7  -5  282.25    7.92
  -2   7   5  284.56    8.70
  -2   7   5  289.49    8.43
   2   7  -4  636.61   15.23
  -2   7   4  637.83   15.21
  -2   7   4  646.60   15.67
  -2   7   3  485.96   12.20
   2   7  -3  518.77   12.35
  -2   7   3  505.80   12.71
   2   7  -2   85.89    3.43
  -2   7   2   82.42    3.38
  -2   7   2   80.33    3.61
   2   7  -1 1399.17   29.39
  -2   7   1 1422.68   29.50
  -2   7   1 1425.53   29.78
  -2   7   1 1367.13   29.76
   2   7   0  266.47    7.36
  -2   7   0  276.38    7.49
  -2   7   0  277.98    7.83
  -2   7   0  276.00    7.68
   2   7   1 2062.71   42.63
  -2   7  -1 2105.57   43.34
   2   7   1 2064.03   42.87
  -2   7  -1 2058.41   42.84
   2   7   1 2152.39   42.87
   2   7   2  110.19    4.13
   2   7   2  107.25    4.14
  -2   7  -2  114.07    4.64
   2   7   2  114.96    4.33
   2   7   3  522.94   12.46
   2   7   3  473.65   12.08
   2   7   3  489.25   12.50
   2   7   4  327.71    8.92
  -2   7  -4  322.48    9.20
   2   7   4  315.48    9.34
   2   7   5 2266.85   46.61
   2   7   5 2240.96   47.38
  -2   7  -5 2240.44   47.16
   2   7   6  647.27   16.46
   2   7   6  626.11   15.49
  -2   7  -6  622.07   16.14
   2   7   7 1083.27   25.17
   2   7   7 1027.26   23.83
  -2   7  -7 1027.12   24.70
   2   7   8  167.89    7.10
   2   7   8  157.28    6.10
  -2   7  -8  147.50    6.57
   2   7   9  213.07    8.44
   2   7   9  193.70    7.23
  -2   7  -9  187.62    7.85
   2   7  10  171.72    6.87
  -2   7 -10  160.05    7.39
  -2   7 -11  133.93    6.93
   2   7  11  148.20    6.51
  -2   7 -12   46.82    4.15
  -2   7 -13   59.65    4.89
  -2   7 -14   50.00    4.66
  -2   7 -15   67.73    5.59
  -2   7 -16   45.47    4.90
  -2   7 -17   22.02    3.41
   2   8 -18   16.17    3.33
   2   8 -17   19.37    3.33
   2   8 -16    1.77    1.78
   2   8 -15   77.14    5.93
   2   8 -14    2.56    1.48
   2   8 -13  110.18    6.56
   2   8 -12    1.16    1.07
   2   8 -11  306.05   10.97
  -2   8  10   18.68    2.35
   2   8 -10   17.06    2.18
  -2   8   9  179.07    7.22
   2   8  -9  178.40    7.27
  -2   8   9  181.51    7.45
  -2   8   8   40.78    3.02
   2   8  -8   40.96    3.07
  -2   8   8   39.89    3.14
   2   8  -7   63.42    3.65
  -2   8   7   63.30    3.61
   2   8  -7   61.08    3.25
  -2   8   7   64.34    3.89
   2   8  -6   10.73    1.47
  -2   8   6   12.60    1.59
   2   8  -6   11.01    1.38
  -2   8   6   15.45    1.88
   2   8  -5  235.70    7.33
  -2   8   5  226.76    7.69
   2   8  -5  224.76    6.98
  -2   8   5  230.63    7.21
   2   8  -4   58.88    2.98
  -2   8   4   56.57    2.93
  -2   8   4   51.54    3.15
  -2   8   3  248.79    7.25
   2   8  -3  266.46    7.41
  -2   8   3  253.65    7.95
   2   8  -2   58.06    2.77
  -2   8   2   60.90    2.83
  -2   8   2   64.10    3.29
  -2   8   1   71.02    3.02
   2   8  -1   64.07    2.87
  -2   8   1   63.94    3.23
  -2   8   1   70.86    3.35
  -2   8   0   25.98    1.77
   2   8   0   27.90    1.82
  -2   8   0   30.34    2.20
  -2   8   0   27.97    2.05
   2   8   0   28.56    1.85
   2   8   1  756.99   16.78
   2   8   1  734.26   17.32
  -2   8  -1  733.91   17.29
  -2   8  -1  748.48   17.62
   2   8   1  745.30   16.90
   2   8   2   38.13    2.26
   2   8   2   38.11    2.41
  -2   8  -2   37.92    2.61
   2   8   2   39.24    2.38
   2   8   3   38.86    2.39
  -2   8  -3   42.53    2.85
   2   8   3   35.85    2.42
   2   8   3   39.18    2.48
   2   8   4   11.54    1.46
   2   8   4   10.22    1.34
  -2   8  -4   10.16    1.40
   2   8   5  354.63   10.07
  -2   8  -5  353.53   10.22
   2   8   5  370.46   10.54
   2   8   6   15.43    1.92
   2   8   6   15.10    1.74
  -2   8  -6   16.78    1.93
   2   8   7   25.25    2.58
  -2   8  -7   21.05    2.27
   2   8   7   22.39    2.15
   2   8   8   43.86    3.47
   2   8   8   46.04    3.18
  -2   8  -8   39.57    3.19
   2   8   9   58.73    4.23
   2   8   9   62.22    3.87
  -2   8  -9   58.44    4.19
   2   8  10   14.95    2.04
  -2   8 -10   13.35    2.15
  -2   8 -11    9.49    2.17
   2   8  11   11.19    1.90
  -2   8 -12    6.79    1.70
  -2   8 -13    1.48    1.31
  -2   8 -14   10.52    2.51
  -2   8 -15    0.17    1.45
  -2   8 -16    4.01    2.07
  -2   8 -17    1.65    1.57
   2   9 -18   -0.61    1.56
   2   9 -17    2.59    1.89
   2   9 -16    2.61    1.82
   2   9 -15    8.46    2.36
   2   9 -14   32.05    3.70
   2   9 -13   15.09    2.56
   2   9 -12   22.87    3.00
   2   9 -11    5.70    1.64
   2   9 -10   47.14    3.65
  -2   9  10   50.25    3.73
   2   9  -9   34.29    3.02
  -2   9   9   34.04    2.93
   2   9  -8  114.20    5.33
  -2   9   8  116.31    5.34
  -2   9   8  123.11    5.84
   2   9  -8  113.26    4.94
   2   9  -7   23.44    2.20
  -2   9   7   20.58    2.03
   2   9  -7   19.20    1.90
  -2   9   7   22.69    2.36
   2   9  -6   43.36    2.83
   2   9  -6   46.05    2.86
  -2   9   6   45.08    3.21
  -2   9   6   43.10    2.83
   2   9  -5  168.11    5.93
  -2   9   5  159.17    5.71
   2   9  -5  162.63    5.85
  -2   9   5  174.90    6.59
  -2   9   4   17.67    1.61
   2   9  -4   19.23    1.69
  -2   9   4   18.87    1.98
   2   9  -3  564.94   13.33
  -2   9   3  546.95   13.25
  -2   9   3  550.27   14.30
   2   9  -2  129.43    4.41
  -2   9   2  124.43    4.36
  -2   9   2  117.45    4.94
  -2   9   1   11.16    1.16
   2   9  -1   10.72    1.14
  -2   9   1   11.98    1.53
   2   9   0  261.00    7.07
  -2   9   0  253.93    7.94
  -2   9   0  253.55    7.88
   2   9   0  260.27    7.15
   2   9   1  175.89    5.36
  -2   9  -1  162.88    6.05
   2   9   1  172.26    6.03
  -2   9  -1  168.58    5.96
   2   9   1  167.62    5.41
   2   9   2   95.44    3.75
  -2   9  -2   91.84    4.36
   2   9   2   86.87    4.05
   2   9   2   95.29    3.87
   2   9   3  158.66    5.37
  -2   9  -3  156.55    6.17
   2   9   3  155.42    5.77
   2   9   3  161.58    5.60
   2   9   4  390.18   10.92
  -2   9  -4  405.83   10.80
   2   9   4  393.80   10.88
   2   9   5   56.38    3.31
  -2   9  -5   58.76    3.31
   2   9   5   56.27    3.36
   2   9   6  502.10   13.60
   2   9   6  499.78   13.31
  -2   9  -6  468.32   13.14
   2   9   7   19.97    2.30
   2   9   7   24.55    2.36
  -2   9  -7   21.90    2.27
   2   9   8  263.36    9.43
   2   9   8  262.58    8.92
  -2   9  -8  253.93    9.09
   2   9   9   39.80    3.43
   2   9   9   40.42    3.16
  -2   9  -9   39.39    3.35
   2   9  10   59.26    4.00
  -2   9 -10   54.99    4.13
  -2   9 -11   60.53    4.54
  -2   9 -12   50.41    4.34
  -2   9 -13    4.54    1.82
  -2   9 -14   92.58    6.44
  -2   9 -15    0.14    1.69
  -2   9 -16   34.20    4.19
  -2   9 -17    7.07    2.43
   2  10 -18   30.22    4.23
   2  10 -17   35.83    4.44
   2  10 -16    5.17    2.01
   2  10 -15   42.59    4.54
   2  10 -14   90.36    6.22
   2  10 -13  121.69    6.94
   2  10 -12  172.37    8.10
   2  10 -11  107.15    5.97
   2  10 -10  100.27    5.47
  -2  10  10  100.18    5.38
   2  10  -9  242.87    8.79
  -2  10   9  240.47    8.68
   2  10  -8  123.07    5.57
   2  10  -8  119.60    5.32
  -2  10   8  127.39    6.13
  -2  10   8  125.17    5.56
   2  10  -7  251.33    8.32
   2  10  -7  264.96    8.36
  -2  10   7  252.36    9.06
  -2  10   7  243.20    8.19
   2  10  -6   98.15    4.42
   2  10  -6   98.78    4.51
  -2  10   6   97.67    5.02
  -2  10   6   92.30    4.31
   2  10  -5  314.85    9.18
   2  10  -5  327.89    9.19
  -2  10   5  326.01   10.29
   2  10  -5  310.71    9.44
  -2  10   5  330.87    9.20
   2  10  -4  278.60    8.08
  -2  10   4  287.87    9.24
  -2  10   4  283.12    8.05
   2  10  -3  489.52   11.97
  -2  10   3  478.49   11.90
  -2  10   3  494.82   13.33
   2  10  -2  326.95    8.58
  -2  10   2  330.31    8.63
  -2  10   2  326.04    9.80
   2  10  -1   89.62    3.48
  -2  10   1   93.39    3.56
  -2  10   1   91.44    4.38
   2  10   0  160.92    5.08
  -2  10   0  170.16    6.23
  -2  10   0  156.91    6.03
   2  10   0  172.74    5.25
   2  10   1  155.86    4.92
  -2  10  -1  145.60    5.72
  -2  10  -1  144.86    5.85
   2  10   1  147.21    5.74
   2  10   1  151.54    4.99
   2  10   2   29.39    1.96
  -2  10  -2   32.32    2.63
   2  10   2   25.57    2.22
   2  10   2   31.02    2.06
   2  10   3  234.00    7.02
   2  10   3  242.35    7.88
  -2  10  -3  227.22    8.06
   2  10   3  240.10    7.32
   2  10   4   33.53    2.34
   2  10   4   36.66    2.69
  -2  10  -4   36.62    2.92
   2  10   4   34.31    2.43
   2  10   5   33.72    2.63
   2  10   5   28.68    2.44
  -2  10  -5   28.15    2.30
   2  10   6   17.03    1.98
   2  10   6   18.81    2.09
  -2  10  -6   10.54    1.61
   2  10   7   63.71    3.99
   2  10   7   63.94    3.88
  -2  10  -7   61.52    3.77
   2  10   8    2.54    1.31
   2  10   8    3.71    1.29
  -2  10  -8    3.03    1.28
   2  10   9    3.68    1.30
  -2  10  -9    3.32    1.31
   2  10   9    4.31    1.41
  -2  10 -10   13.57    2.12
  -2  10 -11    5.07    1.61
  -2  10 -12    4.38    1.58
  -2  10 -13   10.78    2.35
  -2  10 -14    0.14    1.47
  -2  10 -15    5.39    2.17
  -2  10 -16    2.07    2.10
  -2  10 -17    0.83    1.55
   2  11 -18    5.70    2.82
   2  11 -17    0.25    1.95
   2  11 -16   11.22    2.65
   2  11 -15    1.17    1.37
   2  11 -14   13.82    2.61
   2  11 -13    7.01    2.03
   2  11 -12   40.26    3.74
   2  11 -11    3.58    1.28
   2  11 -10   11.23    1.97
  -2  11  10    8.90    1.76
   2  11  -9   37.57    3.14
   2  11  -9   34.13    2.85
  -2  11   9   37.66    3.04
   2  11  -8   11.44    1.76
   2  11  -8    9.90    1.63
  -2  11   8   11.31    1.65
   2  11  -7   46.88    3.12
  -2  11   7   47.60    3.09
  -2  11   7   44.95    3.54
   2  11  -7   46.39    3.24
   2  11  -6    7.42    1.30
  -2  11   6    5.45    1.13
   2  11  -6    8.24    1.52
  -2  11   6    5.40    1.30
   2  11  -5   10.73    1.37
  -2  11   5   10.96    1.73
  -2  11   5   12.04    1.39
   2  11  -4  157.19    5.43
  -2  11   4  162.12    6.57
  -2  11   4  151.17    5.27
   2  11  -3  233.91    6.76
  -2  11   3  222.46    6.65
  -2  11   3  232.01    8.12
  -2  11   2   56.91    2.68
   2  11  -2   55.48    2.64
  -2  11   2   50.96    3.36
  -2  11   1  186.03    5.60
   2  11  -1  189.14    5.55
  -2  11   1  181.46    6.85
   2  11  -1  179.00    5.48
   2  11   0    5.11    0.86
  -2  11   0    5.98    1.32
  -2  11   0    6.14    1.25
   2  11   0    6.28    0.90
   2  11   1   69.49    3.02
  -2  11  -1   68.77    3.93
   2  11   1   77.93    4.11
  -2  11  -1   71.75    3.94
   2  11   1   74.55    3.18
   2  11   2   13.16    1.36
   2  11   2   12.14    1.27
   2  11   2   14.45    1.84
  -2  11  -2   11.55    1.73
   2  11   3  173.17    5.72
  -2  11  -3  180.50    7.06
   2  11   3  178.76    6.77
   2  11   3  179.71    6.01
   2  11   4   17.27    1.77
   2  11   4   16.74    1.63
  -2  11  -4   17.02    2.14
   2  11   4   19.87    2.09
   2  11   5  412.08   11.43
   2  11   5  396.02   11.81
  -2  11  -5  401.52   11.15
   2  11   6  132.41    5.77
   2  11   6  142.18    6.11
  -2  11  -6  137.68    5.64
   2  11   7  153.74    6.53
   2  11   7  150.12    6.48
  -2  11  -7  147.38    6.17
   2  11   8    1.14    0.92
   2  11   8    0.25    0.93
  -2  11  -8    1.40    0.99
   2  11   9   78.77    4.94
   2  11   9   74.93    4.68
  -2  11  -9   78.37    4.72
  -2  11 -10   23.74    2.79
  -2  11 -11   82.94    5.35
  -2  11 -12   13.80    2.34
  -2  11 -13    7.81    1.95
  -2  11 -14    3.27    1.51
  -2  11 -15   24.37    3.50
  -2  11 -16    4.22    2.21
  -2  11 -17    1.59    1.50
   2  12 -18   31.39    4.37
   2  12 -17    0.09    1.72
   2  12 -16   54.26    5.26
   2  12 -15    3.04    1.98
   2  12 -14   36.70    3.93
   2  12 -13   46.36    4.29
   2  12 -12  284.06   10.94
   2  12 -11   50.23    4.00
   2  12 -10  125.81    6.22
  -2  12  10  125.64    6.12
   2  12  -9   77.23    4.60
   2  12  -9   84.17    4.73
  -2  12   9   81.99    4.58
   2  12  -8  163.48    6.58
   2  12  -8  158.51    6.67
  -2  12   8  158.44    6.42
   2  12  -7    7.25    1.40
   2  12  -7    7.89    1.54
  -2  12   7    7.74    1.33
   2  12  -6  483.37   12.71
   2  12  -6  465.85   13.37
  -2  12   6  491.78   14.40
  -2  12   6  472.44   12.56
   2  12  -5   60.71    3.21
  -2  12   5   73.12    4.41
  -2  12   5   60.31    3.16
   2  12  -4  513.40   12.70
   2  12  -4  505.18   12.58
  -2  12   4  532.68   14.72
  -2  12   4  504.08   12.58
   2  12  -3   83.31    3.46
  -2  12   3   83.67    4.56
  -2  12   3   82.01    3.44
   2  12  -2  453.94   10.97
  -2  12   2  444.47   10.96
  -2  12   2  453.46   13.06
   2  12  -1   76.93    3.09
  -2  12   1   77.35    4.29
   2  12  -1   73.28    3.04
   2  12   0  554.27   12.73
  -2  12   0  541.14   14.84
  -2  12   0  544.10   14.91
   2  12   0  548.87   12.83
   2  12   1    2.05    0.64
  -2  12  -1    1.58    1.01
  -2  12  -1    1.86    0.91
   2  12   1    2.16    0.97
   2  12   1    1.55    0.58
   2  12   2  110.35    4.05
   2  12   2  112.01    5.32
  -2  12  -2  109.07    5.34
   2  12   2  112.19    4.28
   2  12   3    8.30    1.21
   2  12   3    9.39    1.67
  -2  12  -3    7.48    1.55
   2  12   3    7.27    1.09
   2  12   4  343.06    9.85
  -2  12  -4  350.36   11.33
   2  12   4  365.27   11.12
   2  12   4  350.83    9.61
   2  12   5   16.22    1.84
   2  12   5   14.71    1.65
   2  12   5   17.84    2.17
   2  12   6  198.55    7.26
   2  12   6  194.92    7.64
  -2  12  -6  189.93    6.93
   2  12   7    3.57    1.12
   2  12   7    3.29    1.22
  -2  12  -7    4.88    1.27
   2  12   8    3.39    1.17
   2  12   8    4.93    1.43
  -2  12  -8    6.20    1.44
   2  12   9    4.31    1.32
  -2  12  -9    4.46    1.34
  -2  12 -10    7.11    1.73
  -2  12 -11    1.83    1.07
  -2  12 -12    8.92    2.16
  -2  12 -13    1.98    1.65
  -2  12 -14    3.01    1.82
  -2  12 -15    2.93    1.95
  -2  12 -16    0.27    1.78
  -2  12 -17    5.71    1.78
   2  13 -18    9.46    2.74
   2  13 -17   -3.91    1.98
   2  13 -16   12.22    2.85
   2  13 -15    1.89    1.73
   2  13 -14    4.06    1.86
   2  13 -13   24.76    3.16
   2  13 -12   44.61    4.02
   2  13 -11    1.06    1.01
   2  13 -10    4.49    1.34
  -2  13  10    2.51    0.99
   2  13  -9  157.88    6.71
   2  13  -9  146.19    6.70
  -2  13   9  148.59    6.45
   2  13  -8   36.72    2.93
   2  13  -8   31.17    2.91
  -2  13   8   37.41    2.93
   2  13  -7  102.79    4.83
   2  13  -7  105.56    5.35
  -2  13   7  105.10    4.76
   2  13  -6   14.04    1.70
   2  13  -6   10.81    1.84
  -2  13   6   12.60    1.55
   2  13  -5    6.74    1.18
  -2  13   5    6.13    1.52
  -2  13   5    6.89    1.09
   2  13  -4  250.93    7.26
  -2  13   4  248.29    9.09
  -2  13   4  239.61    7.16
   2  13  -3    5.01    0.90
  -2  13   3    4.26    1.18
  -2  13   3    4.66    0.85
   2  13  -2   91.17    3.42
  -2  13   2   82.54    3.33
  -2  13   2   85.41    4.79
   2  13  -1  104.68    3.71
  -2  13   1  104.12    5.28
   2  13  -1  106.07    3.73
   2  13   0   40.70    2.12
  -2  13   0   37.13    3.07
  -2  13   0   42.32    3.27
   2  13   0   37.91    2.08
   2  13   1   20.83    1.54
  -2  13  -1   16.83    2.20
   2  13   1   17.38    2.17
  -2  13  -1   20.11    2.27
   2  13   1   20.27    1.59
   2  13   2  100.64    3.81
   2  13   2   98.14    5.11
  -2  13  -2   99.59    5.24
   2  13   2  104.40    4.01
   2  13   3   78.65    3.46
  -2  13  -3   83.71    4.82
   2  13   3   88.01    4.80
   2  13   3   83.99    3.70
   2  13   4   11.88    1.45
  -2  13  -4   11.86    1.86
   2  13   4   11.58    1.82
   2  13   4   12.40    1.41
   2  13   5  102.53    4.76
   2  13   5  113.04    4.66
   2  13   5  111.04    5.61
  -2  13  -5  114.49    5.95
   2  13   6  120.79    5.36
   2  13   6  116.45    5.84
  -2  13  -6  115.96    5.09
   2  13   7   67.39    4.16
  -2  13  -7   77.08    4.18
   2  13   8   32.83    3.07
  -2  13  -8   34.98    3.00
   2  13   9    2.70    1.21
  -2  13  -9    1.57    1.07
  -2  13 -10  109.70    5.91
  -2  13 -11   29.34    3.21
  -2  13 -12   37.44    3.69
  -2  13 -13    6.36    1.79
  -2  13 -14   33.04    3.86
  -2  13 -15   11.34    2.65
  -2  13 -16   19.65    3.33
  -2  13 -17   -3.86    1.93
   2  14 -18    4.98    1.80
   2  14 -17   13.59    3.29
   2  14 -16    5.79    1.89
   2  14 -15   24.24    3.51
   2  14 -14   16.42    2.78
   2  14 -13  139.95    7.45
   2  14 -12   51.44    4.24
   2  14 -11  157.06    7.39
   2  14 -10    1.30    1.06
  -2  14  10    1.71    0.95
   2  14  -9  252.10    9.05
   2  14  -9  255.41    9.53
  -2  14   9  243.61    8.76
   2  14  -8   94.81    4.84
   2  14  -8   83.59    4.98
  -2  14   8   95.69    4.72
   2  14  -7  265.93    8.58
   2  14  -7  260.46    9.49
  -2  14   7  259.98    8.39
   2  14  -6   31.17    2.37
   2  14  -6   27.52    2.74
  -2  14   6   26.57    2.17
   2  14  -5  328.10    9.08
  -2  14   5  311.98    8.92
   2  14  -4   15.98    1.47
  -2  14   4   16.52    1.51
   2  14  -3  653.38   14.99
  -2  14   3  649.01   15.06
  -2  14   3  676.33   18.17
   2  14  -2   31.01    1.88
  -2  14   2   35.88    2.02
  -2  14   2   35.09    3.15
   2  14  -2   35.20    1.94
   2  14  -1  188.17    5.45
  -2  14   1  185.07    7.67
   2  14  -1  195.81    5.55
   2  14   0   42.74    2.14
  -2  14   0   46.10    3.56
  -2  14   0   41.04    3.38
   2  14   0   46.22    2.26
   2  14   1   37.75    2.02
  -2  14  -1   35.65    3.12
   2  14   1   32.36    2.97
  -2  14  -1   40.35    4.03
   2  14   1   35.96    2.09
   2  14   2    7.14    1.05
  -2  14  -2    9.96    1.85
   2  14   2    7.07    1.54
   2  14   2    5.47    0.86
   2  14   3  112.34    4.39
   2  14   3  108.56    5.65
  -2  14  -3  110.00    5.86
   2  14   3  112.95    4.20
   2  14   4    6.11    1.07
  -2  14  -4    6.36    1.69
   2  14   4    8.53    1.73
   2  14   4    4.90    1.00
   2  14   5   75.24    3.91
   2  14   5   82.49    4.95
  -2  14  -5   77.75    5.01
   2  14   5   73.59    3.63
   2  14   6    9.48    1.43
   2  14   6    6.93    1.44
   2  14   7   37.60    3.08
  -2  14  -7   31.49    2.66
   2  14   8    9.41    1.84
  -2  14  -8    9.86    1.77
   2  14   9    2.27    1.06
  -2  14  -9    0.64    0.99
  -2  14 -10   28.98    3.02
  -2  14 -11    1.80    1.26
  -2  14 -12   17.73    2.60
  -2  14 -13    2.15    2.31
  -2  14 -14    0.42    1.54
  -2  14 -15    2.56    1.58
  -2  14 -16   -1.84    1.96
  -2  14 -17    1.92    1.94
   2  15 -17   10.00    2.65
   2  15 -16   -1.11    1.71
   2  15 -15    0.09    1.84
   2  15 -14    2.95    1.40
   2  15 -13   14.01    2.75
   2  15 -12    9.69    2.09
   2  15 -11   15.28    2.34
   2  15 -10    5.24    1.58
   2  15 -10    4.20    1.61
  -2  15  10    4.09    1.33
   2  15  -9   29.68    2.77
   2  15  -9   27.60    3.07
  -2  15   9   25.91    2.64
   2  15  -8   12.59    1.84
   2  15  -8   12.38    2.07
  -2  15   8   13.15    1.75
   2  15  -7    3.24    1.04
   2  15  -7    5.76    1.79
  -2  15   7    5.21    1.19
   2  15  -6   39.96    2.67
   2  15  -6   35.00    3.29
  -2  15   6   38.47    2.60
  -2  15   5    8.66    1.25
   2  15  -5    9.26    1.29
  -2  15   4   31.64    2.05
   2  15  -4   31.72    2.05
  -2  15   3   63.99    2.83
   2  15  -3   63.35    2.79
   2  15  -2  291.62    7.54
   2  15  -2  288.80    7.46
   2  15  -2  296.60    7.48
   2  15  -1   81.74    3.00
   2  15  -1   82.54    3.04
   2  15   0  178.34    5.15
  -2  15   0  176.10    7.66
   2  15   0  193.93    5.37
   2  15   1    8.80    0.98
  -2  15  -1    7.90    1.66
   2  15   1    8.97    0.98
   2  15   2  116.09    4.22
  -2  15  -2  118.21    6.13
   2  15   2  121.73    4.08
   2  15   3   30.76    2.10
  -2  15  -3   27.17    2.96
   2  15   3   27.55    1.88
   2  15   4  313.88    9.06
  -2  15  -4  311.76   11.26
   2  15   4  316.14    8.71
   2  15   5   11.64    1.50
  -2  15  -5    8.17    1.91
   2  15   5    7.95    1.26
   2  15   6  107.21    4.73
   2  15   6  117.24    5.22
   2  15   7   16.54    2.17
   2  15   8  166.98    7.18
  -2  15  -8  179.87    7.12
   2  15   9   64.71    4.44
  -2  15  -9   61.38    4.13
  -2  15 -10   81.72    5.01
  -2  15 -11    6.01    1.72
  -2  15 -12   69.10    5.04
  -2  15 -13    5.49    1.77
  -2  15 -14   35.68    4.10
  -2  15 -15    4.12    2.10
  -2  15 -16   10.34    2.87
   2  16 -16   17.06    3.18
   2  16 -15    5.65    2.10
   2  16 -14   12.52    2.38
   2  16 -13    0.58    1.20
   2  16 -12   82.62    5.35
   2  16 -11   32.42    3.24
   2  16 -10   57.95    4.05
   2  16 -10   55.97    4.50
   2  16  -9    3.50    1.13
   2  16  -9    4.01    1.61
  -2  16   9    4.07    2.06
   2  16  -8  132.70    5.75
   2  16  -8  127.65    6.63
  -2  16   8  131.75    5.61
   2  16  -7   62.92    3.54
   2  16  -7   61.28    4.45
  -2  16   7   56.60    3.31
   2  16  -6   41.12    2.65
   2  16  -6   37.05    3.43
  -2  16   6   37.02    2.54
  -2  16   5  204.35    6.46
   2  16  -5  212.77    6.57
  -2  16   4  196.12    6.04
   2  16  -4  209.10    6.11
  -2  16   3   89.75    3.37
   2  16  -3   87.94    3.23
   2  16  -3   85.02    3.15
   2  16  -2  251.73    6.39
   2  16  -2  243.44    6.36
   2  16  -1  118.23    3.63
   2  16  -1  111.27    3.54
   2  16   0  101.42    3.23
  -2  16   0   86.81    5.34
   2  16   0   95.10    3.21
   2  16   1   36.09    2.03
  -2  16  -1   30.82    3.23
   2  16   1   34.54    1.77
   2  16   2  145.28    4.68
  -2  16  -2  134.12    6.89
   2  16   2  144.55    4.47
   2  16   3   16.40    1.56
  -2  16  -3   12.12    2.12
   2  16   3   15.00    1.33
   2  16   4   63.93    3.25
  -2  16  -4   61.41    4.61
   2  16   4   61.50    3.00
   2  16   5  191.78    6.66
  -2  16  -5  199.92    8.85
   2  16   5  190.22    6.35
   2  16   6    6.11    1.36
  -2  16  -6    6.41    1.66
   2  16   6    6.45    1.28
   2  16   7    6.35    1.34
   2  16   7    7.06    1.58
   2  16   8   17.38    2.29
  -2  16  -8   14.81    2.02
  -2  16  -9    8.08    1.60
  -2  16 -10    1.54    1.17
  -2  16 -11    1.05    1.18
  -2  16 -12    9.47    2.13
  -2  16 -13    4.48    2.00
  -2  16 -14    1.59    1.68
  -2  16 -15    1.29    1.88
   2  17 -13   -0.42    1.35
   2  17 -12    2.85    1.66
   2  17 -11   -0.70    1.07
   2  17 -10    1.91    0.92
   2  17 -10    3.02    1.76
   2  17  -9   36.30    3.04
   2  17  -9   32.53    3.45
   2  17  -8   13.56    1.77
   2  17  -8   11.15    2.38
   2  17  -7   10.19    1.50
   2  17  -7   10.83    2.17
  -2  17   7    6.64    1.26
   2  17  -6    1.18    0.71
   2  17  -6    1.52    1.04
  -2  17   6    1.44    0.75
  -2  17   5  141.02    4.89
   2  17  -5  140.02    4.89
  -2  17   4   39.91    2.15
   2  17  -4   35.67    1.99
   2  17  -3  367.45    8.62
   2  17  -3  354.43    8.47
   2  17  -2    2.63    0.53
   2  17  -2    3.09    0.53
   2  17  -1  290.29    6.55
   2  17  -1  281.63    6.56
   2  17   0   26.94    1.31
   2  17   0   30.31    1.36
  -2  17   0   26.07    3.09
   2  17   1  567.15   12.41
   2  17   1  571.31   12.31
  -2  17  -1  545.63   16.84
   2  17   2   19.94    1.37
  -2  17  -2   18.20    2.65
   2  17   2   15.83    1.19
   2  17   3  154.89    4.98
  -2  17  -3  152.69    7.64
   2  17   3  153.67    4.75
   2  17   4   94.54    3.93
  -2  17  -4   89.51    5.78
   2  17   4   95.15    3.72
   2  17   5  241.42    7.65
  -2  17  -5  255.97   10.47
   2  17   5  242.99    7.33
   2  17   6   28.07    2.42
   2  17   6   24.44    2.13
  -2  17  -6   22.54    3.15
   2  17   7  315.87    9.59
   2  17   8   16.97    2.03
  -2  17  -9  102.24    5.33
  -2  17 -10   14.17    2.13
  -2  17 -11   97.69    5.72
  -2  17 -12   10.82    2.19
  -2  17 -13   42.27    4.10
   2  18 -10   63.20    5.07
   2  18  -9   35.31    2.91
   2  18  -9   35.58    3.85
   2  18  -8   62.42    3.65
   2  18  -8   57.87    4.72
   2  18  -7    1.27    0.96
   2  18  -7    0.91    1.31
   2  18  -6   49.60    2.73
   2  18  -6   37.49    3.76
   2  18  -5    5.98    0.93
   2  18  -5    5.23    1.64
   2  18  -4   40.12    1.89
   2  18  -3    5.19    0.55
   2  18  -3    5.85    0.55
  -2  18   0   41.03    3.87
  -2  18  -1    1.80    1.47
   2  18   2    6.60    0.69
   2  18   2    6.39    0.67
  -2  18  -2    3.47    1.67
   2  18   3    4.82    0.73
  -2  18  -3    5.16    1.75
   2  18   4   17.42    1.42
  -2  18  -4   13.79    2.32
   2  18   5    3.85    0.87
  -2  18  -5   10.42    2.26
   2  18   6    0.60    0.66
  -2  18  -6    4.19    1.76
   2  18   7    8.15    1.37
   2  18   8   18.60    2.08
   2  18   9    7.22    1.41
   2  19 -10   16.95    2.91
   2  19  -9   -0.49    1.38
   2  19  -8   14.00    2.54
   2  19  -7   23.81    3.21
   2  19  -6   39.52    4.01
   2  19  -5   11.45    2.26
  -2  19   1   76.97    5.44
  -2  19   0   92.62    6.06
  -2  19  -1   57.50    4.84
  -2  19  -2   63.62    5.04
  -2  19  -3   19.33    3.12
  -2  19  -4   23.74    3.22
  -2  19  -5   10.23    2.52
  -2  19  -6   86.55    6.28
   2  20 -10    4.02    2.02
   2  20  -9  106.31    6.95
   2  20  -8    7.02    2.39
   2  20  -7   71.51    5.65
   2  20  -6   20.57    3.18
   2  20  -5   46.88    4.42
  -2  20   1   83.00    5.88
  -2  20   0    1.89    1.57
  -2  20  -1   80.15    5.83
  -2  20  -2    4.55    1.81
  -2  20  -3  139.89    7.88
  -2  20  -4    4.41    2.01
  -2  20  -5   23.12    3.24
  -2  20  -6    8.87    2.42
   2  21 -10    3.95    1.69
   2  21  -9   -2.09    1.80
   2  21  -8    3.71    2.04
   2  21  -7    0.61    1.54
   2  21  -6    4.63    2.15
   2  21  -5    2.73    1.71
  -2  21   1   15.46    2.93
  -2  21   0   78.89    5.95
  -2  21  -1    8.85    2.29
  -2  21  -2   37.11    4.14
  -2  21  -3   20.29    3.16
  -2  21  -4   33.76    4.05
  -2  21  -5   27.05    3.71
  -2  21  -6   60.23    5.47
   2  22 -10   82.82    6.43
   2  22  -9   13.49    3.02
   2  22  -8   54.00    5.15
   2  22  -7    8.40    2.31
   2  22  -6   50.90    4.90
   2  22  -5   32.91    4.08
  -2  22   1   16.23    2.94
  -2  22   0   88.74    6.43
  -2  22  -1   14.63    2.89
  -2  22  -2   38.97    4.37
  -2  22  -3    4.26    1.85
  -2  22  -4   26.17    3.67
  -2  22  -5   12.36    2.82
  -2  22  -6   11.40    2.69
   2  23  -8    3.93    1.87
   2  23  -7    0.11    1.44
   2  23  -6    1.16    1.67
   2  23  -5   20.13    3.25
   2  23  -4   24.72    3.77
  -2  23   2    0.79    1.75
  -2  23   1   33.66    4.08
  -2  23   0    2.90    1.58
  -2  23  -1   40.58    4.43
  -2  23  -2    7.95    2.45
  -2  23  -3   30.14    4.00
  -2  23  -4   -0.03    1.60
   2  24  -5    2.04    1.64
   2  24  -4   43.42    4.85
  -2  24   2   37.09    4.36
  -2  24   1   15.29    2.88
  -2  24   0   10.15    2.70
  -2  24  -1   13.53    3.00
  -3 -23   4    0.68    1.86
   3 -23  -4    2.15    1.72
  -3 -23   3   14.10    2.75
   3 -23  -3   11.17    2.71
  -3 -23   2    2.33    1.80
   3 -23  -2    5.39    2.13
  -3 -23   1    5.73    2.28
   3 -23  -1    5.94    2.00
   3 -23   0    4.06    2.20
  -3 -23   0   -1.59    1.66
  -3 -23  -1    6.62    2.08
   3 -23   1    9.13    2.34
   3 -23   2    5.88    2.55
  -3 -23  -2    3.89    2.10
  -3 -23  -3    7.93    2.48
   3 -23   3    2.44    2.13
  -3 -23  -4    5.38    2.00
   3 -23   4   -1.03    2.10
   3 -23   5    2.01    1.75
  -3 -23  -5    2.20    1.48
   3 -23   6    2.87    2.54
  -3 -23  -6    4.15    2.22
  -3 -22   6   34.07    4.24
   3 -22  -6   29.47    3.85
  -3 -22   5   34.63    4.37
   3 -22  -5   30.79    3.99
  -3 -22   4   28.64    3.82
   3 -22  -4   30.98    3.97
  -3 -22   3   22.76    3.53
   3 -22  -3   23.87    3.56
  -3 -22   2   34.75    4.20
   3 -22  -2   38.46    4.39
  -3 -22   1   26.02    3.78
   3 -22  -1   26.63    3.63
  -3 -22   0   57.61    5.30
   3 -22   0   68.52    5.66
  -3 -22  -1   11.54    2.67
   3 -22   1    9.17    2.51
  -3 -22  -2   22.00    3.48
   3 -22   2   21.26    3.38
   3 -22   3   12.14    2.75
  -3 -22  -3   12.25    2.73
   3 -22   4   61.02    5.40
  -3 -22  -4   70.38    5.79
   3 -22   5    9.29    2.41
  -3 -22  -5   12.47    2.78
   3 -22   6   33.82    4.15
  -3 -22  -6   29.15    3.87
   3 -22   7    1.05    1.83
  -3 -22  -7   -1.08    1.58
   3 -22   8   25.46    3.65
  -3 -22  -8   33.80    4.20
  -3 -21   8   18.78    3.59
   3 -21  -8   26.35    3.74
  -3 -21   7   20.91    3.36
   3 -21  -7   16.71    3.12
  -3 -21   6   44.65    4.71
   3 -21  -6   51.74    4.93
  -3 -21   5   20.90    3.33
   3 -21  -5   16.82    3.00
  -3 -21   4   18.41    3.07
   3 -21  -4   21.53    3.31
  -3 -21   3    2.67    1.84
   3 -21  -3    0.49    1.63
  -3 -21   2   12.64    2.66
   3 -21  -2   10.40    2.47
  -3 -21   1    6.36    2.34
   3 -21  -1    8.15    2.35
  -3 -21   0   -0.80    1.77
   3 -21   0    3.15    1.95
  -3 -21  -1    7.51    2.22
   3 -21   1   10.44    2.67
   3 -21   2    7.38    2.32
  -3 -21  -2    8.01    2.24
  -3 -21  -3    3.36    1.52
   3 -21   3    1.79    1.82
   3 -21   4   -0.64    1.85
  -3 -21  -4    0.37    1.56
   3 -21   5    6.96    2.30
  -3 -21  -5    6.07    2.26
   3 -21   6    1.30    1.79
  -3 -21  -6    5.01    2.19
   3 -21   7    4.09    1.74
  -3 -21  -7    2.15    1.56
   3 -21   8    1.55    1.57
  -3 -21  -8   -0.60    1.72
   3 -21   9   -0.16    1.78
  -3 -21  -9   -2.01    1.65
   3 -21  10   -0.36    2.04
  -3 -21 -10    2.82    1.69
  -3 -20   9   35.53    4.38
   3 -20  -9   42.63    4.64
  -3 -20   8    8.17    2.53
   3 -20  -8   10.04    2.57
  -3 -20   7   68.13    5.84
   3 -20  -7   67.04    5.63
  -3 -20   6   -1.26    1.92
   3 -20  -6    1.77    1.66
  -3 -20   5   52.88    5.02
   3 -20  -5   56.16    5.00
  -3 -20   4    2.13    1.60
   3 -20  -4    0.92    1.57
  -3 -20   3  166.83    8.77
   3 -20  -3  170.08    8.75
  -3 -20   2    1.01    1.53
   3 -20  -2    0.78    1.52
  -3 -20   1  115.69    7.17
   3 -20  -1  127.62    7.44
  -3 -20   0    0.11    1.49
   3 -20   0    0.42    1.39
  -3 -20  -1  158.44    8.28
   3 -20   1  144.93    8.06
   3 -20   2    6.95    2.14
  -3 -20  -2    5.58    2.13
   3 -20   3  108.15    6.78
  -3 -20  -3   99.48    6.51
   3 -20   4   17.62    2.98
  -3 -20  -4   18.85    3.01
   3 -20   5   65.69    5.45
  -3 -20  -5   70.83    5.42
   3 -20   6   -1.34    1.60
  -3 -20  -6    1.72    1.72
   3 -20   7   16.53    3.05
  -3 -20  -7   17.57    2.96
   3 -20   8   -0.10    2.04
  -3 -20  -8    2.19    1.63
   3 -20   9   20.63    3.30
  -3 -20  -9   16.03    3.02
   3 -20  10    0.19    1.64
  -3 -20 -10   -0.94    1.78
   3 -20  11    7.29    2.03
  -3 -20 -11    4.93    2.09
  -3 -19  11    5.87    2.38
   3 -19 -11    6.53    2.42
  -3 -19  10   28.34    3.97
   3 -19 -10   28.13    3.72
  -3 -19   9    2.56    1.56
   3 -19  -9    7.79    2.45
  -3 -19   8   35.44    4.15
   3 -19  -8   34.85    4.09
  -3 -19   7    2.16    1.69
   3 -19  -7    0.81    1.60
  -3 -19   6   96.89    6.65
   3 -19  -6   96.39    6.45
  -3 -19   5   22.35    3.37
   3 -19  -5   19.39    3.01
  -3 -19   4   34.19    3.87
   3 -19  -4   38.08    4.01
  -3 -19   3   16.97    2.80
   3 -19  -3   12.97    2.50
  -3 -19   2    6.47    1.99
   3 -19  -2    3.56    1.92
  -3 -19   1   20.19    2.98
   3 -19  -1   17.92    2.87
  -3 -19   0    1.57    1.61
   3 -19   0    2.68    1.66
   3 -19   1   15.82    2.66
  -3 -19  -1   19.32    2.96
  -3 -19  -2   10.11    2.21
   3 -19   2    9.45    2.23
  -3 -19  -3    3.58    1.97
   3 -19   3   -1.30    1.64
   3 -19   4    6.69    2.03
  -3 -19  -4   10.33    2.34
   3 -19   5    3.30    1.82
  -3 -19  -5   -0.88    1.66
   3 -19   6    3.11    1.80
  -3 -19  -6    0.41    1.47
   3 -19   7    8.75    2.33
  -3 -19  -7    5.87    1.96
   3 -19   8   31.15    3.88
  -3 -19  -8   30.59    3.67
   3 -19   9    3.71    1.81
  -3 -19  -9    3.27    1.76
   3 -19  10   10.92    2.57
  -3 -19 -10    9.67    2.39
   3 -19  11    0.42    1.99
  -3 -19 -11   -0.81    1.82
   3 -19  12    5.38    2.22
  -3 -19 -12    9.72    2.46
  -3 -18  12   10.75    2.64
   3 -18 -11    5.79    1.89
  -3 -18  11   11.92    2.73
   3 -18 -11    5.88    2.13
   3 -18 -10   48.30    3.99
  -3 -18  10   49.62    5.10
   3 -18 -10   45.85    4.66
   3 -18  -9   19.60    2.57
  -3 -18   9   13.28    2.92
   3 -18  -9   16.05    2.98
   3 -18  -8   38.17    3.31
  -3 -18   8   42.15    4.45
   3 -18  -8   37.79    4.25
   3 -18  -7    7.38    1.48
  -3 -18   7    6.23    2.12
   3 -18  -7   10.65    2.46
   3 -18  -6   52.36    3.50
  -3 -18   6   49.90    4.73
   3 -18  -6   49.93    4.57
   3 -18  -5   11.75    1.73
  -3 -18   5   12.18    2.48
   3 -18  -5   11.04    2.19
   3 -18  -4  139.04    5.45
  -3 -18   4  133.05    7.45
   3 -18  -4  122.72    7.06
   3 -18  -3    1.66    0.82
   3 -18  -3    0.67    0.84
  -3 -18   3    4.50    1.85
   3 -18  -3    3.88    1.70
   3 -18  -2  192.95    6.46
  -3 -18   2  190.48    8.88
   3 -18  -2  196.83    8.91
   3 -18  -1   84.16    3.81
   3 -18  -1   88.45    5.70
  -3 -18   1   78.56    5.47
   3 -18   0  162.83    5.68
   3 -18   0  167.22    8.05
  -3 -18   0  164.69    8.03
   3 -18   1   74.79    3.54
  -3 -18  -1   67.78    5.03
   3 -18   1   71.76    5.12
   3 -18   2  244.10    7.52
   3 -18   2  223.88    9.77
  -3 -18  -2  232.22    9.82
   3 -18   3   45.61    2.86
   3 -18   3   39.18    3.98
  -3 -18  -3   42.33    3.93
   3 -18   4  322.97    9.60
  -3 -18  -4  304.65   11.70
   3 -18   4  323.63   12.11
   3 -18   5   57.62    3.55
   3 -18   5   50.94    4.37
  -3 -18  -5   57.25    4.62
   3 -18   6  163.25    6.56
   3 -18   6  162.56    8.20
  -3 -18  -6  159.86    8.01
   3 -18   7    1.70    1.17
   3 -18   7    2.71    1.64
  -3 -18  -7    2.03    1.63
   3 -18   8  105.40    5.49
   3 -18   8  104.81    6.72
  -3 -18  -8   98.03    6.27
   3 -18   9   20.89    3.33
  -3 -18  -9   17.46    3.05
   3 -18  10   70.85    5.76
  -3 -18 -10   86.67    6.07
   3 -18  11   12.86    2.72
  -3 -18 -11   11.26    2.65
   3 -18  12   51.44    5.06
   3 -18  13    5.21    2.41
   3 -17 -14    1.45    1.86
   3 -17 -13   47.20    4.69
   3 -17 -12    4.54    1.86
  -3 -17  12    9.17    2.77
   3 -17 -11   39.49    3.86
  -3 -17  11   32.09    4.10
   3 -17 -11   30.00    3.96
   3 -17 -10   15.27    2.40
  -3 -17  10   13.46    2.77
   3 -17 -10   11.44    2.68
   3 -17  -9   13.10    2.10
  -3 -17   9   10.46    2.75
   3 -17  -9   10.45    2.46
   3 -17  -8    1.08    0.92
  -3 -17   8    1.38    1.93
   3 -17  -8    1.76    1.44
   3 -17  -7   80.49    4.58
  -3 -17   7   88.91    6.09
   3 -17  -7   80.57    5.69
   3 -17  -6   14.40    1.97
  -3 -17   6   12.95    2.47
   3 -17  -6   10.95    2.30
   3 -17  -5   55.09    3.41
  -3 -17   5   52.14    3.12
  -3 -17   5   50.11    4.49
   3 -17  -5   57.63    4.61
   3 -17  -4    6.74    1.33
   3 -17  -4    9.02    1.44
  -3 -17   4    9.21    1.37
  -3 -17   4    6.03    1.75
   3 -17  -4    7.67    1.96
   3 -17  -3   15.76    1.76
  -3 -17   3   18.26    2.62
   3 -17  -3   18.69    2.71
   3 -17  -3   14.68    1.69
   3 -17  -2   16.62    1.72
  -3 -17   2   12.40    2.15
   3 -17  -2   17.75    2.62
   3 -17  -2   15.32    1.72
   3 -17  -1   23.93    2.05
  -3 -17   1   21.82    2.81
   3 -17  -1   25.82    3.03
   3 -17  -1   24.64    2.13
   3 -17   0    0.92    0.74
  -3 -17   0    1.73    1.30
   3 -17   0    0.97    1.28
   3 -17   0    2.14    0.93
   3 -17   1   12.75    1.49
   3 -17   1   11.89    1.56
   3 -17   1   16.11    2.55
  -3 -17  -1   10.34    2.32
   3 -17   2    3.67    0.93
   3 -17   2    6.70    1.36
  -3 -17  -2    3.37    1.26
   3 -17   2    5.86    1.71
   3 -17   3   18.02    2.05
   3 -17   3   19.96    2.00
   3 -17   3   14.07    2.40
  -3 -17  -3   15.15    2.43
   3 -17   4    9.52    1.52
   3 -17   4   14.29    2.43
  -3 -17  -4   12.71    2.27
   3 -17   5    0.35    0.91
   3 -17   5    0.91    1.36
  -3 -17  -5    2.06    1.33
   3 -17   6   34.41    2.92
   3 -17   6   34.36    3.60
  -3 -17  -6   27.15    3.24
   3 -17   7    6.77    1.55
   3 -17   7    7.00    2.01
  -3 -17  -7    5.73    1.92
   3 -17   8    3.07    1.24
   3 -17   8    3.76    1.68
  -3 -17  -8    4.19    1.91
   3 -17   9   -0.37    1.12
   3 -17   9   -1.05    2.15
  -3 -17  -9    0.18    1.35
   3 -17  10    7.62    1.78
   3 -17  10    7.94    2.54
  -3 -17 -10    3.70    1.97
   3 -17  11    6.74    1.83
   3 -17  11    7.21    2.17
  -3 -17 -11    5.28    2.36
   3 -17  12    5.31    1.87
   3 -17  12    3.60    1.84
  -3 -17 -12    1.75    1.60
   3 -17  13    5.62    2.32
   3 -17  14   -0.13    1.95
   3 -16 -16    0.71    2.17
   3 -16 -15    5.47    2.28
   3 -16 -14    5.74    2.29
   3 -16 -13    1.55    1.62
   3 -16 -12   19.96    2.93
  -3 -16  12   16.16    3.24
   3 -16 -11   31.28    3.47
  -3 -16  11   32.34    4.05
   3 -16 -11   33.97    4.04
   3 -16 -10   25.83    3.03
  -3 -16  10   35.63    4.14
   3 -16 -10   30.18    3.73
   3 -16  -9    4.91    1.57
  -3 -16   9    6.67    2.08
   3 -16  -9    4.75    1.65
   3 -16  -8   69.51    4.43
  -3 -16   8   66.85    4.12
  -3 -16   8   73.76    5.51
   3 -16  -8   78.01    5.48
   3 -16  -7    1.18    0.89
  -3 -16   7    1.95    1.14
  -3 -16   7    1.42    1.44
   3 -16  -7    5.00    1.65
   3 -16  -6   39.84    3.07
  -3 -16   6   36.79    2.80
  -3 -16   6   36.72    3.77
   3 -16  -6   37.47    3.71
   3 -16  -5  140.18    5.79
  -3 -16   5  135.49    5.44
  -3 -16   5  133.02    7.15
   3 -16  -5  132.64    6.95
   3 -16  -4   63.82    3.69
  -3 -16   4   61.34    3.33
  -3 -16   4   65.84    4.83
   3 -16  -4   62.44    4.61
   3 -16  -3   60.59    3.39
  -3 -16   3   57.08    4.42
   3 -16  -3   53.69    4.20
   3 -16  -2  128.11    5.13
  -3 -16   2  131.33    6.68
   3 -16  -2  128.68    5.16
   3 -16  -2  125.38    6.54
   3 -16  -1   26.33    2.22
  -3 -16   1   26.72    3.00
   3 -16  -1   26.72    2.98
   3 -16  -1   21.43    2.03
   3 -16   0  227.55    7.33
   3 -16   0  228.46    9.16
  -3 -16   0  231.29    9.23
   3 -16   0  232.62    7.55
   3 -16   1   31.24    2.33
  -3 -16  -1   33.02    3.24
   3 -16   1   32.09    2.47
   3 -16   1   31.24    3.25
   3 -16   2  146.90    5.72
   3 -16   2  146.46    7.15
  -3 -16  -2  164.33    7.44
   3 -16   2  165.95    6.20
   3 -16   3   14.76    1.91
   3 -16   3   13.78    1.73
   3 -16   3   16.10    2.37
  -3 -16  -3   13.66    2.16
   3 -16   4  135.49    5.58
  -3 -16  -4  124.91    6.48
   3 -16   4  125.31    6.58
   3 -16   4  131.58    5.82
   3 -16   5  110.26    5.46
   3 -16   5  116.24    5.31
   3 -16   5  116.33    6.34
  -3 -16  -5  117.69    6.23
   3 -16   6   36.72    3.23
   3 -16   6   41.74    3.15
   3 -16   6   39.29    3.70
  -3 -16  -6   34.76    3.41
   3 -16   7   10.90    1.89
   3 -16   7   11.75    2.34
  -3 -16  -7   11.54    2.16
   3 -16   8   18.31    2.37
   3 -16   8   12.60    2.39
  -3 -16  -8   17.12    2.66
   3 -16   9   14.47    2.23
   3 -16   9   11.42    2.37
  -3 -16  -9   10.21    2.24
   3 -16  10   17.82    2.55
   3 -16  10   10.37    2.26
  -3 -16 -10   16.09    2.55
   3 -16  11    9.70    2.13
   3 -16  11   14.24    2.81
  -3 -16 -11   11.52    2.28
  -3 -16 -11    7.05    2.04
   3 -16  12   26.04    3.73
  -3 -16 -12   20.50    3.10
   3 -16  13    3.46    2.08
  -3 -16 -13    1.72    1.75
   3 -16  14    2.44    1.64
  -3 -16 -14    3.23    2.00
   3 -15 -17   -0.90    2.20
   3 -15 -16   19.99    3.49
   3 -15 -15    6.34    2.35
   3 -15 -14   57.14    5.22
   3 -15 -13    8.15    2.31
   3 -15 -12   48.81    4.46
   3 -15 -11    8.29    2.19
   3 -15 -10   61.94    4.59
  -3 -15  10   60.25    5.16
   3 -15 -10   59.67    4.97
   3 -15  -9   20.06    2.66
  -3 -15   9   20.43    2.46
  -3 -15   9   27.24    3.49
   3 -15  -9   24.30    3.17
   3 -15  -8   56.21    4.07
  -3 -15   8   59.48    3.88
  -3 -15   8   61.66    4.95
   3 -15  -8   58.84    4.68
   3 -15  -7   40.92    3.25
  -3 -15   7   45.39    3.19
  -3 -15   7   36.72    3.77
   3 -15  -7   35.01    3.53
   3 -15  -6   18.60    2.17
  -3 -15   6   17.27    1.94
  -3 -15   6   18.64    2.70
   3 -15  -6   14.61    2.37
   3 -15  -5   56.76    3.56
  -3 -15   5   45.50    3.04
  -3 -15   5   45.62    3.97
   3 -15  -5   51.55    4.10
   3 -15  -4  188.13    6.74
  -3 -15   4  169.28    6.19
  -3 -15   4  174.63    7.91
   3 -15  -4  169.08    7.66
   3 -15  -3    2.42    0.95
  -3 -15   3    6.05    1.12
  -3 -15   3    5.60    1.63
   3 -15  -3    6.83    1.73
   3 -15  -2   42.02    2.80
  -3 -15   2   40.04    3.51
   3 -15  -2   42.10    2.83
   3 -15  -2   45.77    3.67
   3 -15  -1   11.92    1.49
  -3 -15   1   11.10    2.00
   3 -15  -1   10.84    2.03
   3 -15  -1    7.20    1.25
   3 -15   0   51.64    3.06
   3 -15   0   50.24    3.87
  -3 -15   0   54.83    4.00
   3 -15   0   48.42    3.08
   3 -15   1   26.03    2.13
  -3 -15  -1   25.44    2.78
   3 -15   1   26.57    2.81
   3 -15   1   24.11    2.23
   3 -15   2   54.95    3.20
   3 -15   2   47.19    3.76
  -3 -15  -2   50.63    3.86
   3 -15   2   51.81    3.31
   3 -15   3    0.55    0.81
   3 -15   3    1.32    0.80
   3 -15   3    0.81    1.06
  -3 -15  -3    0.04    1.11
   3 -15   4    4.81    1.32
   3 -15   4    5.66    1.23
   3 -15   4    1.93    1.07
  -3 -15  -4    4.36    1.45
   3 -15   5    4.03    1.24
   3 -15   5    4.25    1.28
   3 -15   5    3.03    1.24
  -3 -15  -5    4.57    1.55
   3 -15   6    0.90    0.97
   3 -15   6    0.57    1.02
   3 -15   6    0.93    1.26
  -3 -15  -6   -0.64    1.17
   3 -15   7    0.17    1.19
   3 -15   7    0.03    0.95
   3 -15   7   -0.49    1.24
  -3 -15  -7   -0.80    1.14
   3 -15   8    2.92    1.18
   3 -15   8    1.99    1.29
  -3 -15  -8    3.98    1.55
   3 -15   9   15.66    2.36
   3 -15   9   17.72    2.66
  -3 -15  -9   18.92    2.72
   3 -15  10    0.08    1.07
   3 -15  10    3.29    1.68
  -3 -15 -10    2.17    1.50
  -3 -15 -10    0.11    1.22
   3 -15  11    0.07    1.32
  -3 -15 -11    2.05    2.01
  -3 -15 -11   -1.39    1.52
   3 -15  12    0.39    1.67
  -3 -15 -12    0.85    1.69
   3 -15  13    3.11    2.06
  -3 -15 -13    4.29    1.80
   3 -15  14    4.04    1.85
  -3 -15 -14    7.96    3.01
   3 -15  15    0.19    1.70
  -3 -15 -15    2.06    2.07
   3 -14 -17   -0.74    1.84
   3 -14 -16    0.25    1.68
   3 -14 -15    1.82    1.93
   3 -14 -14    3.25    1.88
   3 -14 -13   52.58    4.75
   3 -14 -12    4.16    1.66
   3 -14 -11   53.70    4.41
   3 -14 -10    5.68    1.67
   3 -14 -10    3.68    1.59
   3 -14  -9  121.77    6.21
  -3 -14   9  113.18    5.73
  -3 -14   9  114.46    6.77
   3 -14  -9  116.92    6.66
   3 -14  -8   25.28    2.75
  -3 -14   8   21.32    2.38
  -3 -14   8   18.68    2.75
   3 -14  -8   19.82    2.82
   3 -14  -7   21.91    2.50
  -3 -14   7   22.81    2.36
  -3 -14   7   26.10    3.14
   3 -14  -7   17.42    2.54
   3 -14  -6   12.55    1.85
   3 -14  -6   10.05    1.81
  -3 -14   6   10.18    1.65
  -3 -14   6    9.44    1.95
   3 -14  -6   13.51    2.24
   3 -14  -5  129.66    5.63
  -3 -14   5  121.05    5.22
  -3 -14   5  126.06    6.53
   3 -14  -5  123.17    6.27
   3 -14  -4   88.41    4.37
  -3 -14   4   85.02    4.13
  -3 -14   4   87.81    5.25
   3 -14  -4   86.34    5.05
   3 -14  -3  180.06    6.52
  -3 -14   3  168.20    6.12
  -3 -14   3  186.44    7.81
   3 -14  -3  182.96    7.64
   3 -14  -2    5.07    1.15
  -3 -14   2    3.89    1.25
   3 -14  -2    5.00    1.50
   3 -14  -1  163.19    5.93
   3 -14  -1  162.42    6.96
  -3 -14   1  149.44    6.80
   3 -14  -1  160.55    5.97
   3 -14   0   47.05    2.88
   3 -14   0   41.88    3.42
  -3 -14   0   40.01    3.35
   3 -14   0   40.56    2.83
   3 -14   1  216.22    7.18
   3 -14   1  207.91    8.18
  -3 -14  -1  211.01    8.21
   3 -14   1  214.45    7.34
   3 -14   2   21.28    2.04
   3 -14   2   28.54    2.78
   3 -14   2   27.63    2.35
  -3 -14  -2   20.57    2.37
   3 -14   3  300.67    9.27
  -3 -14  -3  302.38   10.25
   3 -14   3  294.63   10.21
   3 -14   3  294.93    9.50
   3 -14   4    4.42    1.33
   3 -14   4    2.65    1.06
   3 -14   4    0.79    1.12
  -3 -14  -4    2.97    1.18
   3 -14   5  211.94    7.66
   3 -14   5  189.16    7.98
  -3 -14  -5  208.96    8.16
   3 -14   5  208.42    7.93
   3 -14   6   12.12    1.94
   3 -14   6   11.50    1.74
   3 -14   6   10.21    1.96
  -3 -14  -6    8.54    1.76
   3 -14   7  165.42    7.39
   3 -14   7  169.09    7.09
   3 -14   7  168.21    7.56
  -3 -14  -7  161.77    7.24
   3 -14   8   19.31    2.47
   3 -14   8   19.39    2.64
  -3 -14  -8   18.30    2.49
   3 -14   9   48.49    4.03
   3 -14   9   49.81    4.15
  -3 -14  -9   39.01    3.63
  -3 -14  -9   48.33    3.96
   3 -14  10    1.56    1.22
  -3 -14 -10    0.23    1.09
  -3 -14 -10    4.42    1.80
   3 -14  11   75.12    5.38
  -3 -14 -11   77.88    5.49
   3 -14  12   -0.59    1.49
  -3 -14 -12    1.54    1.86
   3 -14  13   34.22    3.80
  -3 -14 -13   32.15    3.90
   3 -14  14    3.41    1.95
  -3 -14 -14   -0.40    1.71
   3 -14  15   14.20    3.05
  -3 -14 -15   14.54    2.94
   3 -14  16   -1.43    2.31
   3 -13 -17   12.51    2.92
   3 -13 -16    5.75    2.20
   3 -13 -15   46.00    4.97
   3 -13 -14    1.18    1.65
   3 -13 -13   55.63    4.94
   3 -13 -12    8.47    2.07
   3 -13 -11  122.22    6.72
   3 -13 -10    8.80    1.88
  -3 -13   9  191.33    7.81
   3 -13  -9  200.27    8.27
   3 -13  -9  194.47    8.68
  -3 -13   8    8.79    1.67
   3 -13  -8    8.33    1.72
   3 -13  -8    7.47    1.81
   3 -13  -7   68.95    4.26
  -3 -13   7   61.40    3.84
  -3 -13   7   64.06    4.65
   3 -13  -7   64.09    4.51
   3 -13  -6   12.04    1.77
  -3 -13   6    9.72    1.54
  -3 -13   6   11.20    2.06
   3 -13  -6   13.70    2.12
   3 -13  -5  260.97    8.81
  -3 -13   5  263.06    8.47
  -3 -13   5  273.08    9.98
   3 -13  -5  265.94    9.65
   3 -13  -4    4.52    1.16
  -3 -13   4    6.38    1.41
  -3 -13   4    3.79    1.40
   3 -13  -4    4.20    1.38
   3 -13  -3  140.16    5.60
  -3 -13   3  137.60    5.36
  -3 -13   3  135.68    6.34
   3 -13  -3  133.97    6.22
  -3 -13   2    8.46    1.34
   3 -13  -2    8.33    1.37
  -3 -13   2    7.88    1.70
   3 -13  -2   10.83    1.77
   3 -13  -1   55.88    3.24
  -3 -13   1   59.62    3.92
   3 -13  -1   54.35    3.73
   3 -13  -1   54.97    3.25
   3 -13   0    6.13    1.17
  -3 -13   0    3.89    1.26
   3 -13   0    6.22    1.57
   3 -13   0    5.22    1.14
   3 -13   1   47.11    2.96
   3 -13   1   49.41    3.51
  -3 -13  -1   44.61    3.33
   3 -13   1   49.20    3.15
   3 -13   2    5.98    1.22
   3 -13   2    6.34    1.50
  -3 -13  -2    7.28    1.52
   3 -13   2    7.35    1.31
   3 -13   3   12.98    1.79
   3 -13   3   14.56    1.80
   3 -13   3   13.26    1.94
  -3 -13  -3   16.00    2.09
   3 -13   4    6.26    1.43
   3 -13   4    5.88    1.25
   3 -13   4    5.07    1.39
  -3 -13  -4    4.75    1.35
   3 -13   5    4.51    1.38
   3 -13   5    7.96    1.53
   3 -13   5    9.26    1.76
  -3 -13  -5    7.40    1.55
   3 -13   6   18.17    2.20
   3 -13   6   17.24    2.14
   3 -13   6   13.79    2.03
  -3 -13  -6   20.24    2.29
   3 -13   7   27.45    2.85
   3 -13   7   27.05    2.74
   3 -13   7   24.85    2.71
  -3 -13  -7   22.39    2.53
   3 -13   8    5.18    1.54
   3 -13   8    3.67    1.38
  -3 -13  -8    2.79    1.25
  -3 -13  -8    1.11    1.08
   3 -13   9    8.09    1.83
  -3 -13  -9    7.24    1.72
  -3 -13  -9    4.26    1.45
   3 -13  10   12.60    2.23
  -3 -13 -10   10.91    2.16
  -3 -13 -10    9.58    1.90
   3 -13  11   12.41    2.31
  -3 -13 -11    9.22    2.15
   3 -13  12   14.83    2.57
  -3 -13 -12   21.45    3.17
   3 -13  13   14.35    2.68
  -3 -13 -13   17.89    3.15
   3 -13  14    2.57    1.68
  -3 -13 -14    4.43    2.35
   3 -13  15    2.98    1.82
  -3 -13 -15    6.60    2.65
   3 -13  16    8.68    2.53
   3 -12 -17   -1.17    2.25
   3 -12 -16   -1.20    1.78
   3 -12 -15    3.51    2.02
   3 -12 -14    3.12    2.07
   3 -12 -13    3.56    1.61
   3 -12 -12    7.18    2.02
   3 -12 -11   19.38    2.78
   3 -12 -10   74.19    4.91
  -3 -12   9   31.58    2.98
   3 -12  -9   32.60    3.15
   3 -12  -9   31.12    3.27
  -3 -12   8    5.56    1.34
   3 -12  -8    4.66    1.42
   3 -12  -8    4.09    1.50
  -3 -12   7    1.79    1.01
   3 -12  -7    0.24    0.98
   3 -12  -7    0.07    0.89
   3 -12  -7    3.13    1.47
   3 -12  -6  367.40   11.40
  -3 -12   6  381.15   11.10
  -3 -12   6  379.19   12.30
   3 -12  -6  366.55   11.92
   3 -12  -5   99.91    4.83
  -3 -12   5  103.04    4.72
  -3 -12   5   93.19    5.26
   3 -12  -5   95.53    5.16
   3 -12  -4  316.04    9.57
  -3 -12   4  290.45    9.06
  -3 -12   4  297.95   10.22
   3 -12  -4  306.34   10.09
   3 -12  -3   47.91    3.07
  -3 -12   3   47.50    2.97
  -3 -12   3   53.32    3.69
   3 -12  -3   49.82    3.49
  -3 -12   2  262.16    8.13
   3 -12  -2  267.58    8.36
  -3 -12   2  264.76    9.14
   3 -12  -2  280.06    9.22
   3 -12  -1   31.85    2.41
  -3 -12   1   35.68    2.88
   3 -12  -1   35.81    2.86
   3 -12  -1   33.89    2.52
   3 -12   0  290.94    8.71
   3 -12   0  282.42    9.30
  -3 -12   0  282.95    9.32
   3 -12   0  278.39    8.72
   3 -12   1   43.96    2.85
   3 -12   1   43.04    3.16
  -3 -12  -1   45.59    3.21
   3 -12   1   42.67    2.93
   3 -12   2  156.19    5.90
  -3 -12  -2  145.73    6.10
   3 -12   2  143.86    6.13
   3 -12   2  150.55    6.01
   3 -12   3   36.29    2.67
  -3 -12  -3   42.42    3.08
   3 -12   3   43.01    3.13
   3 -12   3   37.70    2.89
   3 -12   4  238.11    8.10
   3 -12   4  224.37    8.16
  -3 -12  -4  233.83    8.18
   3 -12   4  235.57    8.35
   3 -12   5   24.71    2.60
   3 -12   5   26.51    2.47
   3 -12   5   25.68    2.57
  -3 -12  -5   27.31    2.54
   3 -12   6  247.26    8.75
   3 -12   6  235.62    8.70
  -3 -12  -6  243.46    8.57
   3 -12   6  250.39    9.11
   3 -12   7   20.81    2.51
   3 -12   7   12.36    1.95
   3 -12   7   14.07    1.99
  -3 -12  -7   15.60    2.12
   3 -12   8   39.49    3.39
   3 -12   8   31.78    3.06
  -3 -12  -8   40.35    3.48
  -3 -12  -8   34.97    3.05
   3 -12   9    2.85    1.39
  -3 -12  -9    1.74    1.22
  -3 -12  -9    2.06    1.28
   3 -12  10   96.15    5.61
  -3 -12 -10   88.56    5.66
   3 -12  11    3.47    1.46
  -3 -12 -11    0.21    1.27
   3 -12  12   12.28    2.37
  -3 -12 -12   11.27    2.40
   3 -12  13   16.26    2.64
  -3 -12 -13   17.80    3.11
   3 -12  14   27.19    3.50
  -3 -12 -14   32.95    4.10
   3 -12  15    3.58    2.00
  -3 -12 -15    1.01    1.35
   3 -12  16    3.50    1.93
  -3 -12 -16    1.65    2.19
   3 -11 -17   42.51    4.92
   3 -11 -16    3.70    2.26
   3 -11 -15   89.71    6.63
   3 -11 -14    3.90    1.93
   3 -11 -13  142.64    7.85
   3 -11 -12   19.97    2.90
   3 -11 -11  189.36    8.55
   3 -11 -10   34.74    3.33
  -3 -11   9  418.57   12.68
   3 -11  -9  382.93   12.70
  -3 -11   8    5.42    1.28
   3 -11  -8    5.50    1.46
   3 -11  -8    8.03    1.87
  -3 -11   7  199.93    7.45
   3 -11  -7  195.85    7.60
   3 -11  -7  185.33    7.56
   3 -11  -7  195.94    7.93
  -3 -11   6    9.26    1.55
   3 -11  -6    7.43    1.50
   3 -11  -6    5.59    1.48
   3 -11  -5  434.83   12.31
  -3 -11   5  428.78   12.00
  -3 -11   5  441.24   13.06
   3 -11  -5  412.09   12.56
  -3 -11   4   11.29    1.54
   3 -11  -4   15.39    1.79
  -3 -11   4   16.22    2.14
   3 -11  -4   15.72    2.04
  -3 -11   3  158.31    5.85
   3 -11  -3  155.18    5.93
  -3 -11   3  154.23    6.40
   3 -11  -3  143.03    6.10
  -3 -11   2    6.45    1.15
   3 -11  -2    8.12    1.37
  -3 -11   2    7.08    1.38
   3 -11  -2    9.03    1.51
  -3 -11   1   20.30    1.89
   3 -11  -1   16.77    1.79
  -3 -11   1   19.27    2.08
   3 -11  -1   16.11    1.94
   3 -11   0   26.06    2.14
   3 -11   0   26.02    2.33
  -3 -11   0   20.74    2.11
   3 -11   0   24.75    2.16
   3 -11   1   89.55    4.18
   3 -11   1   82.72    4.27
  -3 -11  -1   85.75    4.30
   3 -11   1   82.65    4.18
   3 -11   2   41.12    2.79
  -3 -11  -2   42.41    2.98
   3 -11   2   42.01    2.96
   3 -11   2   42.07    2.96
   3 -11   3   17.06    1.89
   3 -11   3   20.38    2.06
  -3 -11  -3   18.81    2.00
   3 -11   3   21.13    2.18
   3 -11   4   18.81    2.14
   3 -11   4   24.06    2.30
   3 -11   4   20.71    2.13
  -3 -11  -4   20.06    2.06
   3 -11   5    8.19    1.58
   3 -11   5    5.81    1.25
   3 -11   5    5.77    1.29
  -3 -11  -5    5.96    1.25
   3 -11   6   28.67    2.69
   3 -11   6   28.48    2.62
  -3 -11  -6   32.01    2.68
   3 -11   6   30.70    2.96
   3 -11   7    2.68    1.25
   3 -11   7    2.50    1.11
   3 -11   7    2.80    1.02
  -3 -11  -7    5.56    1.50
  -3 -11  -7    3.51    1.16
   3 -11   8    2.62    1.08
  -3 -11  -8    1.51    1.01
  -3 -11  -8    2.55    1.17
   3 -11   9   10.23    1.80
  -3 -11  -9    9.47    1.88
  -3 -11  -9   10.33    1.82
   3 -11  10    4.87    1.51
  -3 -11 -10    6.01    1.61
   3 -11  11    7.16    1.60
  -3 -11 -11    4.76    1.72
   3 -11  12    0.45    1.08
  -3 -11 -12    4.76    2.01
   3 -11  13   31.96    3.57
  -3 -11 -13   31.19    3.81
  -3 -11 -14    2.27    1.97
  -3 -11 -15    1.39    1.76
  -3 -11 -16    2.68    1.43
   3 -10 -17    6.02    2.32
   3 -10 -16    3.21    1.93
   3 -10 -15    4.71    2.23
   3 -10 -14   13.19    2.88
   3 -10 -13    1.90    1.72
   3 -10 -12   39.87    3.93
   3 -10 -11    3.18    1.34
   3 -10 -10   61.46    4.44
  -3 -10   9   55.82    3.92
   3 -10  -9   61.75    4.26
  -3 -10   8  114.31    5.52
   3 -10  -8  110.69    5.62
   3 -10  -8  104.63    5.63
  -3 -10   7   34.98    2.87
   3 -10  -7   33.31    2.96
   3 -10  -7   34.20    3.06
  -3 -10   6  210.22    7.55
   3 -10  -6  214.65    7.87
   3 -10  -6  220.42    8.13
   3 -10  -5  208.46    7.51
  -3 -10   5  206.73    7.28
  -3 -10   5  219.96    8.01
   3 -10  -5  199.54    7.53
   3 -10  -4  151.32    5.95
  -3 -10   4  147.84    5.72
  -3 -10   4  144.16    6.11
   3 -10  -4  136.08    5.86
   3 -10  -3  357.17   10.36
  -3 -10   3  349.39   10.12
  -3 -10   3  375.75   10.92
   3 -10  -3  351.82   10.48
   3 -10  -2  161.83    6.06
  -3 -10   2  162.77    5.92
  -3 -10   2  171.94    6.43
   3 -10  -2  160.68    6.16
  -3 -10   1   19.79    1.85
   3 -10  -1   15.21    1.68
  -3 -10   1   15.30    1.81
   3 -10  -1   18.77    1.95
   3 -10   0  237.61    7.62
  -3 -10   0  233.13    7.70
   3 -10   0  237.89    7.71
   3 -10   0  236.26    7.74
   3 -10   1   12.76    1.62
  -3 -10  -1   14.51    1.69
   3 -10   1   11.16    1.52
   3 -10   1   12.28    1.59
   3 -10   2  116.18    4.95
  -3 -10  -2  111.40    4.80
   3 -10   2  110.54    4.82
   3 -10   2  117.82    5.17
   3 -10   3  134.45    5.56
   3 -10   3  139.20    5.48
  -3 -10  -3  134.85    5.34
   3 -10   3  132.27    5.71
   3 -10   4   80.38    4.24
   3 -10   4   77.11    3.98
   3 -10   4   77.67    4.34
  -3 -10  -4   84.30    4.08
   3 -10   5   30.70    2.66
   3 -10   5   29.90    2.89
   3 -10   5   27.50    2.38
  -3 -10  -5   32.04    2.50
   3 -10   5   30.17    2.72
   3 -10   6   50.49    3.59
   3 -10   6   54.13    3.45
  -3 -10  -6   57.16    3.43
   3 -10   6   61.10    4.07
   3 -10   7   65.17    3.92
  -3 -10  -7   69.73    3.94
   3 -10   7   71.23    4.63
  -3 -10  -7   68.01    4.36
   3 -10   8   83.64    4.62
  -3 -10  -8   89.21    5.19
  -3 -10  -8   85.10    4.56
   3 -10   9   51.87    3.72
  -3 -10  -9   54.16    4.14
   3 -10  10    6.47    1.52
  -3 -10 -10    5.01    1.61
   3 -10  11   26.91    2.87
  -3 -10 -11   28.98    3.45
  -3 -10 -12   46.93    4.36
  -3 -10 -13   -2.02    1.70
  -3 -10 -14   31.25    3.98
  -3 -10 -15    6.88    2.29
  -3 -10 -16   -0.96    1.51
   3  -9 -18   16.88    3.52
   3  -9 -17   10.19    2.88
   3  -9 -16   54.91    5.39
   3  -9 -15    2.73    1.68
   3  -9 -14  153.02    8.48
   3  -9 -13    5.44    1.95
   3  -9 -12   78.56    5.43
   3  -9 -11   47.87    4.11
   3  -9 -10  105.36    5.91
  -3  -9   9   25.90    2.67
   3  -9  -9   29.34    2.94
  -3  -9   8  178.66    7.23
   3  -9  -8  176.43    7.47
   3  -9  -8  184.47    7.50
  -3  -9   7   81.25    4.42
   3  -9  -7   80.17    4.59
   3  -9  -7   78.58    4.53
  -3  -9   6  217.02    7.69
   3  -9  -6  218.09    7.91
   3  -9  -6  219.40    7.95
   3  -9  -5    2.11    0.98
  -3  -9   5    2.58    1.07
   3  -9  -5    1.94    0.96
  -3  -9   4  158.70    6.00
   3  -9  -4  158.96    6.13
  -3  -9   4  155.21    6.19
   3  -9  -4  153.12    6.01
  -3  -9   3    9.40    1.35
   3  -9  -3    9.88    1.40
  -3  -9   3    7.85    1.38
   3  -9  -3   10.72    1.50
  -3  -9   2    2.49    0.89
   3  -9  -2    2.10    0.80
  -3  -9   2    1.18    0.89
   3  -9  -2    1.52    0.82
  -3  -9   1   36.00    2.50
   3  -9  -1   37.33    2.60
  -3  -9   1   35.07    2.54
   3  -9  -1   36.63    2.58
   3  -9   0    7.63    1.28
  -3  -9   0    7.33    1.22
   3  -9   0    9.47    1.36
   3  -9   0   11.29    1.47
   3  -9   1   14.14    1.66
  -3  -9  -1   15.94    1.66
   3  -9   1   17.44    1.86
   3  -9   1   15.09    1.66
   3  -9   2    4.16    1.08
   3  -9   2    4.01    0.98
  -3  -9  -2    2.51    0.84
   3  -9   2    4.21    1.01
   3  -9   3   36.74    2.72
  -3  -9  -3   35.81    2.46
   3  -9   3   37.38    2.51
   3  -9   3   38.57    2.86
   3  -9   4    4.31    1.14
   3  -9   4    5.83    1.32
   3  -9   4    2.54    0.80
   3  -9   4    1.18    0.99
  -3  -9  -4    5.10    1.11
   3  -9   5   11.99    1.81
   3  -9   5   13.10    1.80
   3  -9   5    9.64    1.67
   3  -9   5   12.94    1.69
  -3  -9  -5    9.79    1.33
   3  -9   6   17.14    2.27
   3  -9   6   14.78    1.97
   3  -9   6   15.82    1.80
  -3  -9  -6   15.33    2.03
  -3  -9  -6   15.21    1.74
   3  -9   7   10.03    1.78
   3  -9   7    9.06    1.52
  -3  -9  -7    8.29    1.70
  -3  -9  -7   11.63    1.65
   3  -9   8  140.79    6.04
  -3  -9  -8  139.62    6.68
  -3  -9  -8  146.92    6.00
   3  -9   9   10.57    1.74
  -3  -9  -9    9.88    1.94
   3  -9  10    7.11    1.66
  -3  -9 -10    6.96    1.69
  -3  -9 -11    2.65    1.73
  -3  -9 -12   14.86    2.56
  -3  -9 -13    0.63    1.41
  -3  -9 -14   30.57    4.02
  -3  -9 -15    5.60    2.36
  -3  -9 -16    9.29    2.74
   3  -8 -18    9.56    2.77
   3  -8 -17   12.41    2.89
   3  -8 -16    4.20    2.34
   3  -8 -15   15.32    3.02
   3  -8 -14    1.15    1.56
   3  -8 -13    0.18    1.38
   3  -8 -12    4.66    1.80
   3  -8 -11   97.27    5.85
   3  -8 -10    1.63    1.16
  -3  -8   9   90.13    5.07
   3  -8  -9   88.83    5.15
  -3  -8   8   25.49    2.59
   3  -8  -8   22.30    2.49
   3  -8  -8   20.87    2.46
  -3  -8   7  365.42   11.28
   3  -8  -7  381.59   11.71
  -3  -8   6    4.35    1.21
   3  -8  -6    2.62    1.16
   3  -8  -6    2.30    1.03
  -3  -8   5  577.58   14.87
   3  -8  -5  568.93   15.06
   3  -8  -5  551.91   14.68
   3  -8  -4  204.75    7.19
  -3  -8   4  201.69    7.02
   3  -8  -4  198.39    6.89
  -3  -8   3  602.96   15.39
   3  -8  -3  620.02   15.67
  -3  -8   3  654.99   15.67
   3  -8  -3  608.67   15.27
   3  -8  -2   97.97    4.41
  -3  -8   2   99.91    4.35
  -3  -8   2   88.27    4.09
   3  -8  -2   90.04    4.02
  -3  -8   1  946.64   21.16
   3  -8  -1  901.78   21.15
  -3  -8   1  886.29   20.67
   3  -8  -1  909.63   20.63
   3  -8   0   23.76    2.08
   3  -8   0   27.72    2.02
  -3  -8   0   27.27    2.01
   3  -8   0   25.86    2.21
   3  -8   1  426.73   11.67
   3  -8   1  437.22   11.04
  -3  -8  -1  409.97   10.92
   3  -8   1  433.58   11.84
   3  -8   2  100.20    4.62
  -3  -8  -2  101.63    4.11
   3  -8   2  104.82    4.18
   3  -8   2  105.82    4.83
   3  -8   3  730.95   18.00
  -3  -8  -3  705.20   16.79
   3  -8   3  743.25   18.33
   3  -8   3  718.14   16.92
   3  -8   3  750.54   18.41
   3  -8   4   55.77    3.46
   3  -8   4   58.07    3.06
   3  -8   4   57.74    3.67
   3  -8   4   57.69    3.65
  -3  -8  -4   53.71    2.91
   3  -8   5  350.06   11.08
   3  -8   5  384.88   11.68
   3  -8   5  372.08   10.28
  -3  -8  -5  367.67   10.05
   3  -8   5  393.79   11.78
   3  -8   6   47.19    3.47
   3  -8   6   48.39    3.57
   3  -8   6   46.22    2.94
  -3  -8  -6   42.81    3.31
   3  -8   6   50.13    3.73
  -3  -8  -6   51.12    2.95
   3  -8   7  245.25    8.02
  -3  -8  -7  246.05    9.06
   3  -8   7  250.58    9.37
  -3  -8  -7  238.78    7.79
   3  -8   8   70.67    3.94
  -3  -8  -8   68.37    4.52
  -3  -8  -9  221.68    9.06
  -3  -8 -10   23.00    2.99
  -3  -8 -11   62.24    4.93
  -3  -8 -12    9.60    2.42
  -3  -8 -13   44.65    4.53
  -3  -8 -14    1.63    1.60
  -3  -8 -15   15.12    3.22
  -3  -8 -16   -1.92    1.74
   3  -7 -18    7.33    2.79
   3  -7 -17   13.80    3.23
   3  -7 -16   39.92    4.61
   3  -7 -15   63.60    5.52
   3  -7 -14   25.75    3.41
   3  -7 -13   77.42    5.67
   3  -7 -12   67.99    5.02
   3  -7 -11   57.20    4.42
   3  -7 -10   34.70    3.41
  -3  -7   9    3.23    1.15
   3  -7  -9    5.19    1.55
  -3  -7   8  220.30    8.17
   3  -7  -8  207.80    8.30
  -3  -7   7  301.10    9.79
   3  -7  -7  296.41    9.93
  -3  -7   6  364.49   10.87
   3  -7  -6  350.17   10.91
  -3  -7   5   51.67    3.24
   3  -7  -5   49.60    3.30
   3  -7  -5   50.01    3.10
   3  -7  -4  105.78    4.80
  -3  -7   4  104.64    4.69
   3  -7  -4  100.01    4.41
   3  -7  -3  143.44    5.63
  -3  -7   3  146.30    5.57
   3  -7  -3  136.99    5.14
   3  -7  -2   48.22    2.98
  -3  -7   2   42.53    2.77
  -3  -7   2   42.95    2.61
   3  -7  -2   47.86    2.66
  -3  -7   1   97.08    4.34
   3  -7  -1  104.38    4.51
  -3  -7   1   97.44    4.00
   3  -7  -1   99.92    3.96
  -3  -7   0    6.23    1.19
   3  -7   0    7.80    1.34
  -3  -7   0    7.12    1.06
   3  -7   0    7.14    1.01
   3  -7   1   43.19    2.82
  -3  -7  -1   40.20    2.32
   3  -7   1   38.72    2.23
   3  -7   1   40.67    2.79
   3  -7   2   74.59    3.87
   3  -7   2   73.88    3.80
  -3  -7  -2   69.54    3.10
   3  -7   2   72.24    3.15
   3  -7   2   70.38    3.84
   3  -7   3  121.84    5.22
   3  -7   3  118.03    5.16
   3  -7   3  119.30    4.31
  -3  -7  -3  112.20    4.19
   3  -7   3  127.16    5.48
   3  -7   4   71.09    4.00
   3  -7   4   77.03    4.22
   3  -7   4   77.11    3.42
  -3  -7  -4   78.07    3.32
   3  -7   4   78.04    4.32
   3  -7   5   76.43    4.30
   3  -7   5   83.42    4.54
   3  -7   5   73.16    3.50
  -3  -7  -5   81.73    3.52
   3  -7   5   84.33    4.68
   3  -7   6   22.33    2.37
   3  -7   6   25.53    2.07
   3  -7   6   28.27    2.81
  -3  -7  -6   24.96    2.00
  -3  -7  -6   21.61    2.36
   3  -7   7   28.73    2.32
   3  -7   7   34.62    3.19
  -3  -7  -7   26.08    2.69
  -3  -7  -8   15.52    2.25
  -3  -7  -9   37.99    3.53
  -3  -7 -10   45.77    3.99
  -3  -7 -11   13.84    2.46
  -3  -7 -12    0.31    1.42
  -3  -7 -13   -0.46    1.45
  -3  -7 -14    3.00    1.77
  -3  -7 -15    8.72    2.50
  -3  -7 -16    8.63    2.62
   3  -6 -18    6.54    2.43
   3  -6 -17    2.65    1.89
   3  -6 -16   17.43    3.11
   3  -6 -15    1.13    1.45
   3  -6 -14    5.92    2.20
   3  -6 -13   39.60    4.01
   3  -6 -12   23.25    3.03
   3  -6 -11   10.03    1.90
   3  -6 -10  231.90    9.23
  -3  -6   9   83.63    4.85
   3  -6  -9   73.06    4.73
   3  -6  -9   83.16    4.91
  -3  -6   8  348.36   11.05
   3  -6  -8  336.25   11.23
  -3  -6   7  102.66    5.05
   3  -6  -7   95.75    5.03
  -3  -6   6  614.79   16.14
   3  -6  -6  626.39   16.40
   3  -6  -5    8.61    1.53
  -3  -6   5    8.89    1.44
   3  -6  -4 1036.18   23.64
  -3  -6   4  987.94   23.33
   3  -6  -4 1017.88   22.78
  -3  -6   3   27.72    2.23
   3  -6  -3   24.98    2.18
   3  -6  -3   24.47    1.89
  -3  -6   2  976.09   22.23
   3  -6  -2  968.72   22.24
  -3  -6   2  971.29   21.35
   3  -6  -2  943.20   21.13
  -3  -6   1  166.03    5.89
   3  -6  -1  154.13    5.76
  -3  -6   1  149.25    5.01
   3  -6  -1  159.48    5.03
  -3  -6   0  577.71   14.64
   3  -6   0  564.34   14.57
  -3  -6   0  611.55   13.54
   3  -6   0  563.39   13.31
   3  -6   1   90.99    4.29
   3  -6   1  101.00    4.16
   3  -6   1   88.36    3.37
  -3  -6  -1   92.85    3.47
   3  -6   1  101.60    4.53
   3  -6   2  543.62   14.08
   3  -6   2  545.20   13.78
   3  -6   2  543.40   12.50
  -3  -6  -2  519.71   12.39
   3  -6   2  549.30   14.26
   3  -6   3   77.42    4.07
   3  -6   3   80.33    4.05
   3  -6   3   77.95    3.13
  -3  -6  -3   81.48    3.15
   3  -6   3   80.17    4.27
   3  -6   4  964.81   22.67
   3  -6   4  984.97   22.74
   3  -6   4  932.27   20.74
  -3  -6  -4  938.15   20.58
   3  -6   4  969.50   23.02
   3  -6   5   25.78    2.44
   3  -6   5   30.12    2.63
   3  -6   5   26.71    1.92
   3  -6   5   28.19    2.68
  -3  -6  -5   26.19    2.49
  -3  -6  -5   26.80    1.86
   3  -6   6  362.62   11.33
   3  -6   6  347.08    9.62
  -3  -6  -6  354.44   11.27
   3  -6   6  392.23   12.01
   3  -6   7   63.39    3.32
   3  -6   7   64.16    4.15
  -3  -6  -7   65.97    4.26
   3  -6   7   66.67    4.44
  -3  -6  -8  511.41   15.22
  -3  -6  -9    4.20    1.64
  -3  -6 -10  360.04   12.72
  -3  -6 -11   31.69    3.55
  -3  -6 -12  156.75    8.29
  -3  -6 -13    5.46    2.03
  -3  -6 -14   73.13    5.94
  -3  -6 -15    5.04    2.07
  -3  -6 -16   17.46    3.31
   3  -5 -18   -0.46    1.65
   3  -5 -17   13.08    2.78
   3  -5 -16   11.48    2.74
   3  -5 -15  165.27    9.09
   3  -5 -14   62.98    5.28
   3  -5 -13  179.96    8.82
   3  -5 -12    3.82    1.65
   3  -5 -11   29.69    3.22
   3  -5 -10   37.41    3.41
  -3  -5   9  270.82    9.81
   3  -5  -9  287.19   10.26
   3  -5  -9  291.80   10.19
   3  -5  -8   13.47    2.05
  -3  -5   8   11.29    1.77
  -3  -5   7  386.81   11.58
   3  -5  -7  376.39   11.67
   3  -5  -6   14.29    2.00
  -3  -5   6   14.14    1.74
  -3  -5   5  359.26   10.50
   3  -5  -5  346.98   10.55
   3  -5  -4  123.77    5.28
  -3  -5   4  131.44    5.31
  -3  -5   3   75.65    3.79
   3  -5  -3   71.03    3.75
   3  -5  -3   71.02    3.19
  -3  -5   2  227.99    7.38
   3  -5  -2  226.39    7.40
   3  -5  -2  220.78    6.37
   3  -5  -1    8.68    1.33
  -3  -5   1   11.56    1.48
  -3  -5   1    8.67    1.05
   3  -5  -1    8.90    1.01
  -3  -5   0   54.74    3.17
   3  -5   0   58.67    3.30
  -3  -5   0   57.42    2.45
   3  -5   0   59.29    2.85
   3  -5   0   59.38    2.45
   3  -5   1   10.47    1.44
  -3  -5  -1    9.46    0.95
   3  -5   1    8.88    1.21
   3  -5   1    9.51    0.93
   3  -5   1   10.07    1.44
   3  -5   2    8.88    1.37
   3  -5   2    7.05    1.15
   3  -5   2    8.36    1.35
  -3  -5  -2    9.59    0.95
   3  -5   2    9.04    0.93
   3  -5   3   93.93    4.49
   3  -5   3   88.05    4.16
   3  -5   3   89.56    3.17
  -3  -5  -3   87.27    3.08
   3  -5   3  100.43    4.75
   3  -5   4  109.49    5.05
   3  -5   4  106.75    3.74
   3  -5   4  111.72    4.96
  -3  -5  -4  108.54    3.67
   3  -5   4  120.12    5.41
   3  -5   5   31.02    2.70
   3  -5   5   32.44    1.98
   3  -5   5   31.34    2.66
  -3  -5  -5   37.18    2.93
   3  -5   5   34.39    2.89
  -3  -5  -5   33.57    1.96
   3  -5   6   12.15    1.87
   3  -5   6   12.04    1.79
   3  -5   6   15.07    1.46
  -3  -5  -6   16.16    2.11
   3  -5   7    2.27    1.08
  -3  -5  -7   -0.08    0.97
  -3  -5  -8   98.51    5.54
   3  -5   8  105.16    5.82
  -3  -5  -9  113.95    6.14
  -3  -5 -10   57.26    4.48
  -3  -5 -11   30.95    3.47
  -3  -5 -12    3.68    1.73
  -3  -5 -13   35.47    4.04
  -3  -5 -14    9.13    2.52
  -3  -5 -15   23.30    3.70
  -3  -5 -16   -2.21    1.55
   3  -4 -18    2.92    1.82
   3  -4 -17   10.63    2.95
   3  -4 -16    5.69    2.44
   3  -4 -15    9.75    2.40
   3  -4 -14    0.59    1.32
  -3  -4  14    2.11    1.03
   3  -4 -13   21.63    3.07
  -3  -4  13   17.77    1.86
   3  -4 -12   42.37    3.91
   3  -4 -11  147.06    7.27
   3  -4 -10  106.13    5.83
  -3  -4   9  150.84    6.65
   3  -4  -9  128.68    6.41
   3  -4  -9  133.55    6.42
  -3  -4   8   92.51    4.97
   3  -4  -8   99.37    5.31
  -3  -4   7  242.40    8.50
   3  -4  -7  241.50    8.64
  -3  -4   6  337.23   10.23
   3  -4  -6  319.12   10.20
   3  -4  -5  532.55   14.32
  -3  -4   5  540.61   14.24
   3  -4  -4  218.59    7.49
  -3  -4   4  221.86    7.43
  -3  -4   3 1316.19   28.62
   3  -4  -3 1254.88   28.57
   3  -4  -2  509.15   13.43
  -3  -4   2  524.73   13.46
   3  -4  -2  522.29   12.06
   3  -4  -1  576.86   14.53
  -3  -4   1  590.46   14.61
  -3  -4   1  578.51   12.92
   3  -4  -1  566.32   12.80
  -3  -4   0  594.76   15.06
   3  -4   0  593.50   15.12
   3  -4   0  603.81   14.00
  -3  -4   0  620.19   13.26
   3  -4   0  603.06   13.13
   3  -4   1  481.08   12.70
   3  -4   1  464.43   11.78
  -3  -4  -1  489.22   10.63
   3  -4   1  485.52   12.83
   3  -4   1  473.30   10.52
   3  -4   2  207.33    7.17
   3  -4   2  202.32    6.59
   3  -4   2  210.74    5.29
   3  -4   2  219.13    7.40
  -3  -4  -2  212.68    5.29
   3  -4   3 1308.56   29.56
   3  -4   3 1327.48   26.90
   3  -4   3 1307.07   28.97
  -3  -4  -3 1318.43   26.83
   3  -4   3 1360.67   30.01
   3  -4   4  369.53   10.99
   3  -4   4  362.98    8.74
  -3  -4  -4  373.39    8.71
   3  -4   4  381.50   11.30
   3  -4   5  464.25   10.95
  -3  -4  -5  443.91   13.11
   3  -4   5  491.12   13.63
  -3  -4  -6   97.85    5.12
   3  -4   6  107.00    5.46
  -3  -4  -7  376.40   12.31
   3  -4   7  435.86   13.19
  -3  -4  -8  145.66    6.88
   3  -4   8  157.87    7.31
  -3  -4  -9  194.85    8.44
  -3  -4 -10  226.19    9.54
  -3  -4 -11   43.31    4.03
  -3  -4 -12   26.13    3.41
  -3  -4 -13   68.57    5.55
  -3  -4 -14   46.30    4.78
  -3  -4 -15    1.13    1.50
  -3  -4 -16   11.44    2.86
   3  -3 -18   27.80    4.14
   3  -3 -17    2.11    1.73
   3  -3 -16   95.68    6.97
   3  -3 -15   28.37    3.83
   3  -3 -14  120.58    7.30
  -3  -3  14  108.54    4.83
   3  -3 -13    3.22    1.86
  -3  -3  13    1.59    0.83
   3  -3 -12   30.84    3.41
  -3  -3  12   33.62    2.27
   3  -3 -11   83.42    5.33
   3  -3 -10   15.46    2.22
   3  -3  -9   54.08    4.00
   3  -3  -9   53.96    3.92
  -3  -3   9   52.04    3.78
   3  -3  -8   87.53    5.02
  -3  -3   8  100.81    5.12
   3  -3  -7   41.40    3.18
  -3  -3   7   48.66    3.33
   3  -3  -6   98.58    4.94
  -3  -3   6  105.52    5.00
  -3  -3   5   94.01    4.59
   3  -3  -5  102.22    4.82
   3  -3  -4  240.79    7.86
  -3  -3   4  225.52    7.62
   3  -3  -3  326.73    9.79
  -3  -3   3  349.85    9.94
  -3  -3   2  351.15    9.92
   3  -3  -2  339.63    9.88
  -3  -3   1  135.64    5.23
   3  -3  -1  123.11    5.05
   3  -3  -1  128.20    4.00
   3  -3   0   28.31    2.29
  -3  -3   0   28.61    2.25
   3  -3   0   27.90    1.78
  -3  -3   0   32.99    1.48
   3  -3   0   32.55    1.40
   3  -3   1  354.07   10.12
  -3  -3  -1  354.59    7.73
   3  -3   1  353.26    9.16
   3  -3   1  346.92    7.65
   3  -3   1  365.15   10.32
   3  -3   2   93.97    4.43
   3  -3   2   95.31    2.60
   3  -3   2   98.01    4.57
  -3  -3  -2   94.62    2.60
   3  -3   3    6.39    1.31
   3  -3   3    7.85    0.67
   3  -3   3    7.11    1.32
   3  -3   4   16.90    1.94
   3  -3   4   15.39    1.01
   3  -3   4   15.26    1.93
   3  -3   5    4.80    1.36
  -3  -3  -5    4.26    1.22
   3  -3   6   27.38    2.70
  -3  -3  -6   30.79    2.83
   3  -3   7   20.60    2.56
  -3  -3  -7   14.41    2.09
  -3  -3  -8   71.70    4.68
   3  -3   8   88.97    5.28
  -3  -3  -9    8.36    1.84
  -3  -3 -10    1.38    1.41
  -3  -3 -11   14.53    2.43
  -3  -3 -12    4.99    1.85
  -3  -3 -13    0.88    1.43
  -3  -3 -14   12.28    2.72
  -3  -3 -15    0.35    1.60
  -3  -3 -16    6.77    2.17
   3  -2 -18    9.58    2.64
   3  -2 -17   17.94    3.25
   3  -2 -16   -0.64    1.80
   3  -2 -15   24.63    3.39
   3  -2 -14    5.70    2.05
  -3  -2  14    8.68    1.35
   3  -2 -13    8.53    2.15
  -3  -2  13    4.77    1.07
   3  -2 -12   58.43    4.69
  -3  -2  12   55.65    2.88
   3  -2 -11  234.45    9.43
  -3  -2  11  218.99    6.41
   3  -2 -10  127.49    6.42
  -3  -2  10  128.65    4.15
   3  -2  -9   33.40    3.24
   3  -2  -9   33.03    3.09
  -3  -2   9   35.28    3.08
   3  -2  -8    9.93    1.76
  -3  -2   8    9.99    1.71
   3  -2  -7   65.85    4.04
  -3  -2   7   66.83    3.99
   3  -2  -6  294.68    9.53
  -3  -2   6  291.27    9.38
   3  -2  -5  264.87    8.70
  -3  -2   5  268.31    8.67
   3  -2  -4  378.93   11.07
  -3  -2   4  406.85   11.19
   3  -2  -3   22.66    2.15
  -3  -2   3   23.73    2.10
  -3  -2   2  118.89    4.89
   3  -2  -2  117.81    4.91
  -3  -2   1  259.65    7.97
   3  -2  -1  244.06    7.80
   3  -2  -1  250.20    6.34
  -3  -2   0  343.69    9.81
   3  -2   0  327.94    9.70
  -3  -2   0  348.65    7.43
   3  -2   0  330.10    8.41
   3  -2   1   37.73    2.65
   3  -2   1   31.19    2.44
   3  -2   2  157.01    6.04
   3  -2   2  167.48    6.24
   3  -2   3  225.42    7.72
   3  -2   3  233.36    5.09
   3  -2   3  243.91    8.12
   3  -2   4  314.19   10.06
   3  -2   4  338.70    7.52
   3  -2   4  343.69   10.58
  -3  -2  -5  238.20    8.53
   3  -2   5  266.70    9.05
  -3  -2  -6  229.99    8.54
   3  -2   6  246.94    8.96
  -3  -2  -7  167.73    7.33
   3  -2   7  204.84    8.13
  -3  -2  -8   52.90    4.01
   3  -2   8   50.49    3.97
  -3  -2  -9  112.42    6.17
  -3  -2 -10   42.34    3.86
  -3  -2 -11   52.01    4.42
  -3  -2 -12   20.31    3.01
   3  -2  13   34.83    3.07
  -3  -2 -13   40.87    4.36
  -3  -2 -14   20.55    3.31
  -3  -2 -15    5.99    2.15
  -3  -2 -16    6.05    2.31
   3  -1 -18   21.72    3.77
   3  -1 -17   82.21    6.66
   3  -1 -16   66.00    5.82
   3  -1 -15  174.92    9.25
   3  -1 -14  140.48    7.82
  -3  -1  14  110.91    4.84
   3  -1 -13  171.77    8.47
  -3  -1  13  161.51    5.71
   3  -1 -12   19.23    2.78
  -3  -1  12   23.21    1.79
   3  -1 -11  186.70    8.35
  -3  -1  11  189.01    5.65
   3  -1 -10  122.72    6.20
  -3  -1  10  105.38    3.60
   3  -1  -9  280.79    9.94
   3  -1  -9  273.36    9.97
  -3  -1   9  273.73    6.68
  -3  -1   9  285.18    9.91
   3  -1  -8   96.01    5.11
  -3  -1   8   87.95    4.86
   3  -1  -7  408.37   12.13
  -3  -1   7  395.06   11.90
   3  -1  -6   69.00    4.03
  -3  -1   6   65.55    3.86
  -3  -1   5  236.95    7.92
   3  -1  -5  224.90    7.86
   3  -1  -4  449.18   12.38
  -3  -1   4  457.33   12.36
   3  -1  -3  977.92   22.44
  -3  -1   3  957.61   22.35
   3  -1  -2   97.79    4.42
  -3  -1   2  105.40    4.54
   3  -1  -2  101.04    2.85
   3  -1  -1  174.05    6.27
  -3  -1   1  185.67    6.40
   3  -1   0   79.54    3.89
  -3  -1   0   74.39    3.74
   3  -1   1   12.72    1.62
   3  -1   1   13.91    1.66
   3  -1   2  179.64    6.57
   3  -1   2  192.16    6.79
   3  -1   3   11.81    1.63
   3  -1   3   11.32    1.64
   3  -1   4    2.32    1.17
   3  -1   4    0.88    0.30
   3  -1   4    2.54    1.04
  -3  -1  -5  153.80    6.26
   3  -1   5  144.21    6.25
   3  -1   5  137.82    3.84
   3  -1   6   36.44    3.10
   3  -1   6   31.78    1.71
  -3  -1  -6   31.20    2.87
   3  -1   7   82.61    4.98
   3  -1   7   74.04    3.08
  -3  -1  -7   83.47    4.80
   3  -1   8   20.92    2.55
  -3  -1  -8   18.52    2.44
   3  -1   8   14.46    1.44
  -3  -1  -9   33.33    3.32
   3  -1   9   32.66    2.29
  -3  -1 -10    9.97    1.97
   3  -1  10    8.48    1.38
  -3  -1 -11    3.22    1.51
   3  -1  11    1.30    0.88
   3  -1  12    3.40    1.25
  -3  -1 -12    2.78    1.47
  -3  -1 -13    7.69    2.30
   3  -1  13    4.44    1.21
  -3  -1 -14   23.90    3.58
  -3  -1 -15   28.09    4.00
  -3  -1 -16    4.00    1.72
   3   0 -18    3.03    1.88
   3   0 -17    5.94    2.08
   3   0 -16   30.66    4.00
   3   0 -15    8.59    2.36
   3   0 -14    1.82    1.51
  -3   0  14    0.15    0.98
   3   0 -13    8.55    2.24
  -3   0  13    4.15    0.91
   3   0 -12    6.23    1.85
  -3   0  12    7.06    1.01
   3   0 -11   34.07    3.37
  -3   0  11   33.36    1.96
   3   0 -10   96.64    5.57
  -3   0  10   97.95    3.35
   3   0  -9    2.13    1.30
   3   0  -9    0.94    0.96
  -3   0   9    0.13    0.40
  -3   0   9    1.06    0.88
   3   0  -8   61.29    4.02
  -3   0   8   57.91    1.82
  -3   0   8   58.16    3.83
  -3   0   7   16.29    1.99
   3   0  -7   16.59    2.13
  -3   0   6   74.48    4.12
   3   0  -6   82.84    4.38
   3   0  -5   81.29    4.25
  -3   0   5   85.51    4.28
   3   0  -4 1320.71   29.40
  -3   0   4 1314.10   29.31
   3   0  -3  194.04    6.73
  -3   0   3  189.42    6.66
  -3   0   2  153.08    5.67
   3   0  -2  150.58    5.68
  -3   0   2  145.93    4.15
  -3   0   1   48.55    2.94
   3   0  -1   45.50    2.84
  -3   0   1   48.14    1.69
   3   0   0  722.57   17.33
  -3   0   0  708.50   17.25
   3   0   1   -0.12    0.80
   3   0   1   -0.59    0.79
   3   0   2  334.35    9.98
   3   0   2  352.01   10.23
   3   0   3   36.97    2.74
   3   0   3   41.08    2.97
   3   0   4  624.48   16.59
   3   0   4  655.64   13.30
   3   0   4  682.82   17.20
  -3   0  -5   38.17    3.00
   3   0   5   38.56    3.05
   3   0   5   35.00    1.54
  -3   0  -6  149.06    6.50
   3   0   6  148.83    4.38
   3   0   6  160.65    6.86
   3   0   7    0.86    1.08
  -3   0  -7    0.48    0.90
   3   0   7   -0.19    0.50
  -3   0  -8  254.79    9.66
   3   0   8  290.55   10.35
   3   0   8  259.58    7.48
  -3   0  -9    7.88    1.83
   3   0   9    4.94    1.04
  -3   0 -10   12.65    2.28
   3   0  10   11.94    1.57
  -3   0 -11    0.73    1.41
   3   0  11    5.18    1.25
  -3   0 -12   72.61    5.51
   3   0  12   75.13    4.27
  -3   0 -13    3.89    1.98
   3   0  13   -2.27    1.23
  -3   0 -14   33.98    4.11
  -3   0 -15    1.33    1.51
  -3   0 -16    2.60    1.69
   3   1 -18   11.39    2.85
   3   1 -17   76.08    6.43
   3   1 -16   66.61    5.81
   3   1 -15  155.31    8.70
   3   1 -14  113.76    7.08
   3   1 -13  161.72    8.23
   3   1 -12   23.88    3.02
   3   1 -11  195.49    8.50
   3   1 -10  112.71    6.02
   3   1  -9  271.79    9.84
   3   1  -9  286.78   10.14
  -3   1   9  277.00    9.86
   3   1  -8   77.65    4.67
  -3   1   8   82.85    2.37
  -3   1   8   81.74    4.62
  -3   1   7  397.92   11.86
   3   1  -7  393.11   11.87
  -3   1   6   67.26    3.87
   3   1  -6   65.10    3.94
   3   1  -5  231.41    7.87
  -3   1   5  229.30    7.79
  -3   1   5  224.38    6.83
   3   1  -4  466.79   12.42
  -3   1   4  463.82   12.34
  -3   1   4  428.99   10.85
   3   1  -3  988.05   22.38
  -3   1   3  955.78   22.25
  -3   1   3  952.32   20.48
  -3   1   2  107.33    4.54
   3   1  -2   96.59    4.40
  -3   1   2   98.73    3.17
  -3   1   1  181.10    6.34
   3   1  -1  175.05    6.24
  -3   1   1  179.80    4.45
  -3   1   0   74.72    3.77
   3   1   0   80.08    3.88
   3   1   1   13.85    1.63
   3   1   1    7.96    1.33
   3   1   2  186.57    6.66
   3   1   2  189.45    6.78
   3   1   3   11.09    1.57
   3   1   3   10.93    1.59
   3   1   4    2.11    1.18
   3   1   4    1.43    1.01
   3   1   4    1.17    0.32
  -3   1  -5  128.18    5.80
   3   1   5  142.38    6.17
   3   1   5  133.24    3.73
   3   1   6   30.34    1.64
  -3   1  -6   31.99    2.88
   3   1   6   33.84    3.03
  -3   1  -7   83.22    4.80
   3   1   7   74.04    3.07
   3   1   7   79.72    4.80
   3   1   8   18.21    2.42
  -3   1  -8   19.79    2.46
   3   1   8   17.01    1.55
  -3   1  -9   33.28    3.30
   3   1   9   29.84    2.16
  -3   1 -10   12.48    2.25
   3   1  10    8.26    1.28
   3   1  11    2.13    0.96
  -3   1 -11    2.67    1.23
   3   1  12    2.99    1.12
  -3   1 -12    4.32    1.66
  -3   1 -13    4.79    1.95
   3   1  13    6.60    1.56
  -3   1 -14   27.00    3.73
  -3   1 -15   22.51    3.38
  -3   1 -16    2.04    1.61
   3   2 -18    0.92    1.80
   3   2 -17   22.22    3.79
   3   2 -16    2.68    2.02
   3   2 -15   23.91    3.51
   3   2 -14    6.83    2.10
   3   2 -13    5.13    1.80
   3   2 -12   63.46    4.82
   3   2 -11  218.21    9.11
   3   2 -10  120.67    6.27
  -3   2  10  130.01    6.00
  -3   2   9   40.35    3.28
   3   2  -9   31.63    3.11
   3   2  -9   37.30    3.26
  -3   2   9   35.76    2.91
   3   2  -8    8.50    1.73
  -3   2   8    8.05    1.52
  -3   2   8    6.88    1.36
  -3   2   7   61.66    3.84
   3   2  -7   56.89    3.76
  -3   2   7   62.32    3.45
  -3   2   6  307.77    9.57
   3   2  -6  294.12    9.56
  -3   2   6  283.82    8.53
   3   2  -5  264.97    8.58
  -3   2   5  260.29    8.49
  -3   2   5  255.15    7.55
   3   2  -4  379.75   10.86
  -3   2   4  384.79   10.86
  -3   2   4  373.46    9.60
  -3   2   3   22.86    2.05
   3   2  -3   24.77    2.20
  -3   2   3   21.50    1.49
  -3   2   2  119.06    4.91
   3   2  -2  128.16    5.07
  -3   2   2  116.03    3.65
  -3   2   1  252.36    7.80
   3   2  -1  240.72    7.67
  -3   2   1  238.97    5.83
   3   2   0  343.58    9.70
  -3   2   0  334.25    9.62
  -3   2   0  329.72    7.21
   3   2   1   34.56    2.56
   3   2   1   36.88    2.66
   3   2   2  146.54    5.75
   3   2   2  151.78    5.88
   3   2   3  227.40    7.76
   3   2   3  235.70    5.17
   3   2   3  240.65    8.10
   3   2   4  333.37   10.09
   3   2   4  320.37    7.28
   3   2   4  335.36   10.33
   3   2   5  253.16    6.29
  -3   2  -5  238.85    8.58
   3   2   5  266.49    9.03
   3   2   6  229.53    6.18
  -3   2  -6  223.28    8.36
   3   2   6  242.78    8.93
   3   2   7  174.86    5.43
  -3   2  -7  171.38    7.33
   3   2   7  201.20    8.01
   3   2   8   42.02    2.44
  -3   2  -8   45.86    3.68
   3   2   8   51.64    3.98
   3   2   9  102.49    4.31
  -3   2  -9  106.35    5.92
   3   2  10   44.74    2.89
  -3   2 -10   43.61    3.93
   3   2  11   46.40    3.15
  -3   2 -11   50.75    4.40
   3   2  12   20.24    2.25
  -3   2 -12   17.17    2.84
   3   2  13   42.56    3.37
  -3   2 -13   48.20    4.62
  -3   2 -14   21.36    3.27
  -3   2 -15    2.20    1.62
  -3   2 -16    2.53    1.80
   3   3 -18   22.94    3.83
   3   3 -17    4.77    2.26
   3   3 -16   95.18    6.93
   3   3 -15   24.48    3.60
   3   3 -14  106.46    6.84
   3   3 -13    3.04    1.50
   3   3 -12   35.35    3.66
   3   3 -11   81.49    5.24
   3   3 -10   15.78    2.29
  -3   3  10   15.58    2.03
  -3   3   9   56.44    3.93
   3   3  -9   47.61    3.90
   3   3  -9   50.97    3.80
  -3   3   9   51.74    3.56
  -3   3   8  101.17    5.18
   3   3  -8   96.33    5.16
  -3   3   8   92.72    4.63
  -3   3   7   41.33    3.18
   3   3  -7   45.46    3.32
  -3   3   7   46.82    3.00
  -3   3   6  111.32    5.17
   3   3  -6  105.27    5.10
  -3   3   6  110.99    4.60
   3   3  -5   86.81    4.42
  -3   3   5   99.61    4.67
  -3   3   5   92.97    2.43
  -3   3   5   95.64    3.96
  -3   3   4  244.41    7.92
   3   3  -4  249.88    8.01
  -3   3   4  231.51    6.86
   3   3  -3  327.77    9.60
  -3   3   3  326.68    9.61
  -3   3   3  320.88    8.33
   3   3  -2  358.46   10.01
  -3   3   2  348.22    9.94
  -3   3   2  338.99    8.40
  -3   3   1  126.11    5.09
   3   3  -1  132.41    5.17
  -3   3   1  125.15    3.75
  -3   3   0   30.30    2.35
   3   3   0   27.81    2.26
  -3   3   0   28.32    1.34
   3   3   1  345.31   10.07
   3   3   1  360.72   10.25
   3   3   2   94.18    4.43
   3   3   2   94.97    4.47
   3   3   3    5.66    1.23
   3   3   3    7.55    0.69
   3   3   3    7.16    1.29
   3   3   4   19.94    2.17
   3   3   4   16.81    1.09
   3   3   4   18.85    2.09
   3   3   5    6.76    1.49
   3   3   5    4.66    0.68
  -3   3  -5    5.90    1.40
   3   3   6   30.71    1.82
  -3   3  -6   30.93    2.81
   3   3   6   31.06    2.90
   3   3   7   21.78    2.58
   3   3   7   16.94    1.50
  -3   3  -7   16.35    2.23
   3   3   8   66.55    3.24
  -3   3  -8   69.39    4.59
   3   3   8   77.34    4.90
  -3   3  -9    7.50    1.82
   3   3   9    6.70    1.19
   3   3  10    1.47    0.92
  -3   3 -10    4.01    1.64
   3   3  11   16.98    2.06
  -3   3 -11   19.37    2.79
   3   3  12    1.76    0.84
  -3   3 -12    3.92    1.73
   3   3  13    0.92    1.05
  -3   3 -13   -1.17    1.70
  -3   3 -14   10.19    2.50
  -3   3 -15   -0.30    1.53
  -3   3 -16    6.62    1.98
   3   4 -18    3.76    1.98
   3   4 -17    8.75    2.53
   3   4 -16    4.55    1.94
   3   4 -15    7.01    1.98
   3   4 -14   -1.00    1.74
   3   4 -13   14.92    2.65
   3   4 -12   43.29    3.97
   3   4 -11  161.09    7.62
   3   4 -10  103.96    5.78
  -3   4  10  114.11    5.65
  -3   4   9  141.68    6.45
   3   4  -9  127.51    6.33
   3   4  -9  134.15    6.36
  -3   4   9  132.24    5.95
  -3   4   8   97.94    5.13
   3   4  -8   93.94    5.15
  -3   4   8   95.41    4.74
  -3   4   7  247.48    8.61
   3   4  -7  254.09    8.75
  -3   4   7  236.91    7.97
  -3   4   6  330.32   10.14
   3   4  -6  324.63   10.17
  -3   4   6  316.57    9.35
   3   4  -5  527.32   13.99
  -3   4   5  539.83   14.00
   3   4  -5  529.66   11.24
  -3   4   5  496.82   11.08
  -3   4   5  510.76   12.94
   3   4  -4  223.92    7.54
  -3   4   4  220.25    7.48
  -3   4   4  223.98    5.50
  -3   4   4  222.03    6.71
   3   4  -3 1288.42   28.26
  -3   4   3 1276.46   28.22
  -3   4   3 1243.82   26.79
  -3   4   2  523.02   13.42
   3   4  -2  507.82   13.32
  -3   4   2  514.26   11.99
   3   4  -1  566.61   14.25
  -3   4   1  582.33   14.41
  -3   4   1  549.98   12.59
  -3   4   0  593.96   15.01
   3   4   0  616.79   15.13
  -3   4   0  596.37   13.10
   3   4   1  490.08   12.65
  -3   4  -1  462.62   10.44
   3   4   1  483.73   12.72
   3   4   2  194.05    6.92
   3   4   2  213.49    7.25
   3   4   3 1307.26   29.40
   3   4   3 1282.23   26.78
   3   4   3 1432.44   30.07
   3   4   4  377.04   11.01
   3   4   4  360.62    8.72
   3   4   4  386.39   11.32
   3   4   5  445.08   10.78
  -3   4  -5  468.29   13.27
   3   4   5  497.40   13.69
   3   4   6   95.37    3.64
  -3   4  -6   91.70    4.97
   3   4   6  109.03    5.53
   3   4   7  416.39   10.65
  -3   4  -7  389.08   12.60
   3   4   7  455.17   13.48
   3   4   8  142.25    5.27
  -3   4  -8  155.96    7.05
   3   4   8  160.20    7.31
  -3   4  -9  197.67    8.40
   3   4   9  183.74    6.46
   3   4  10  215.25    7.42
  -3   4 -10  216.01    9.25
   3   4  11   38.67    2.97
  -3   4 -11   39.57    3.90
   3   4  12   26.28    2.59
  -3   4 -12   29.95    3.49
   3   4  13   63.60    4.26
  -3   4 -13   70.08    5.65
  -3   4 -14   53.58    5.02
  -3   4 -15    1.31    1.46
  -3   4 -16    5.28    2.08
   3   5 -18   -0.20    1.88
   3   5 -17   18.16    3.23
   3   5 -16    7.64    2.46
   3   5 -15  157.99    8.82
   3   5 -14   64.89    5.32
   3   5 -13  164.08    8.33
   3   5 -12    4.72    1.58
   3   5 -11   34.22    3.40
   3   5 -10   46.04    3.74
  -3   5  10   40.42    3.31
  -3   5   9  290.81   10.04
   3   5  -9  266.70    9.87
   3   5  -9  284.42   10.00
  -3   5   9  264.10    9.32
  -3   5   8   13.96    2.01
   3   5  -8   11.70    1.97
  -3   5   8   12.16    1.74
  -3   5   7  367.39   11.32
   3   5  -7  383.09   11.57
  -3   5   7  366.20   10.86
  -3   5   6   12.30    1.75
   3   5  -6   11.66    1.75
   3   5  -6   13.95    1.14
  -3   5   6   13.28    1.62
  -3   5   5  352.05   10.42
   3   5  -5  365.22   10.55
   3   5  -5  343.05    8.31
  -3   5   5  338.01    9.71
   3   5  -4  127.88    5.24
  -3   5   4  121.74    5.15
  -3   5   4  118.79    3.73
  -3   5   4  118.61    4.59
   3   5  -3   77.87    3.89
  -3   5   3   73.19    3.76
  -3   5   3   68.27    2.69
  -3   5   3   70.78    3.20
  -3   5   2  230.36    7.35
   3   5  -2  217.74    7.20
  -3   5   2  208.83    6.25
   3   5  -1    8.58    1.33
  -3   5   1    8.84    1.37
  -3   5   1    9.43    1.06
  -3   5   0   63.65    3.47
   3   5   0   69.95    3.56
  -3   5   0   62.98    2.62
   3   5   1   11.00    1.51
  -3   5  -1    7.77    0.88
   3   5   1    9.49    1.39
   3   5   2    7.11    1.32
   3   5   2    8.68    1.36
   3   5   3   95.83    4.51
   3   5   3   91.55    3.28
   3   5   3   99.15    4.74
   3   5   4  103.41    4.89
   3   5   4  102.99    3.63
   3   5   4  110.74    5.15
   3   5   5   33.64    2.80
   3   5   5   36.00    2.05
  -3   5  -5   31.75    2.81
   3   5   5   39.64    3.11
   3   5   6   15.91    2.16
   3   5   6   12.43    1.28
  -3   5  -6   12.48    1.89
   3   5   7    0.53    1.09
   3   5   7    1.24    0.73
  -3   5  -7    0.92    1.02
   3   5   8  105.74    4.46
  -3   5  -8   98.99    5.58
   3   5   8  109.66    5.98
   3   5   9  112.23    4.85
  -3   5  -9  115.29    6.19
   3   5  10   53.98    3.40
  -3   5 -10   53.56    4.34
  -3   5 -11   29.96    3.49
   3   5  11   30.52    2.71
   3   5  12    2.86    1.21
  -3   5 -12    5.99    2.02
  -3   5 -13   30.92    3.81
  -3   5 -14    8.99    2.41
  -3   5 -15   35.48    4.40
  -3   5 -16    4.68    2.51
   3   6 -18    2.49    1.93
   3   6 -17    4.24    2.24
   3   6 -16   15.10    3.06
   3   6 -15    0.36    1.62
   3   6 -14    5.04    2.07
   3   6 -13   37.94    3.97
   3   6 -12   31.16    3.38
   3   6 -11    6.31    1.66
   3   6 -10  239.00    9.34
  -3   6   9   76.88    4.67
   3   6  -9   77.59    4.76
  -3   6   9   82.00    4.64
  -3   6   8  358.33   11.23
   3   6  -8  331.56   11.10
  -3   6   8  339.57   10.72
  -3   6   7  106.58    5.14
   3   6  -7   97.70    5.04
  -3   6   7   96.44    4.77
   3   6  -6  614.43   15.95
  -3   6   6  607.63   15.84
   3   6  -6  584.35   13.61
  -3   6   6  604.37   15.40
   3   6  -5    8.15    1.42
  -3   6   5    8.31    1.45
   3   6  -5    8.51    1.01
  -3   6   5    9.13    1.36
   3   6  -4 1024.40   23.26
  -3   6   4 1006.67   23.21
  -3   6   4  975.61   21.27
  -3   6   4 1003.19   22.53
  -3   6   3   29.39    2.32
   3   6  -3   27.00    2.25
  -3   6   3   24.41    1.66
  -3   6   3   27.78    2.03
   3   6  -2  905.29   21.76
  -3   6   2  984.33   22.10
  -3   6   2  962.10   20.73
  -3   6   2  947.71   21.04
   3   6  -1  156.45    5.77
  -3   6   1  162.98    5.92
  -3   6   1  154.96    5.06
  -3   6   0  574.66   14.55
   3   6   0  582.86   14.52
  -3   6   0  563.73   13.24
   3   6   1   95.85    4.35
  -3   6  -1   93.71    3.50
   3   6   1   96.87    4.43
   3   6   2  527.37   13.70
   3   6   2  507.62   12.16
   3   6   2  541.87   13.97
   3   6   3   82.24    4.11
   3   6   3   74.13    3.10
   3   6   3   75.20    4.07
   3   6   4  921.91   22.34
   3   6   4  947.67   20.68
   3   6   4  960.46   22.81
   3   6   5   27.98    2.57
   3   6   5   24.57    1.81
   3   6   5   32.00    2.82
   3   6   6  352.00    9.56
   3   6   6  383.08   11.82
  -3   6  -6  342.76   11.15
   3   6   7   62.27    3.26
   3   6   7   66.43    4.39
  -3   6  -7   62.33    4.19
   3   6   8  514.81   13.64
   3   6   8  563.80   16.23
  -3   6  -8  535.48   15.67
   3   6   9    6.07    1.26
  -3   6  -9    5.71    1.70
   3   6  10  369.84   11.07
  -3   6 -10  372.54   12.96
   3   6  11   25.42    2.55
  -3   6 -11   27.21    3.26
   3   6  12  144.34    6.53
  -3   6 -12  146.82    7.92
  -3   6 -13    6.80    2.17
  -3   6 -14   67.70    5.78
  -3   6 -15    7.64    2.50
  -3   6 -16   12.54    2.84
   3   7 -18    6.09    2.50
   3   7 -17   18.19    3.44
   3   7 -16   37.05    4.42
   3   7 -15   60.68    5.36
   3   7 -14   24.75    3.40
   3   7 -13   62.88    5.01
   3   7 -12   63.01    4.81
   3   7 -11   52.61    4.17
   3   7 -10   29.90    3.07
  -3   7   9    2.74    0.98
   3   7  -9    2.94    1.27
  -3   7   9    2.46    0.85
  -3   7   8  222.13    8.34
   3   7  -8  218.61    8.46
  -3   7   8  227.71    8.33
   3   7  -7  289.32    9.75
  -3   7   7  307.11    9.82
   3   7  -7  281.42    7.99
  -3   7   7  301.83    9.65
   3   7  -6  356.65   10.84
   3   7  -6  353.48    9.23
  -3   7   6  357.54   10.63
  -3   7   6  354.57   10.80
   3   7  -5   47.71    3.22
  -3   7   5   51.56    3.27
  -3   7   5   51.59    3.16
   3   7  -4  101.18    4.64
  -3   7   4  100.17    4.62
  -3   7   4   94.32    3.70
  -3   7   4   98.55    4.40
   3   7  -3  139.96    5.53
  -3   7   3  151.37    5.70
  -3   7   3  141.35    5.29
  -3   7   3  136.77    4.76
  -3   7   2   47.15    2.92
   3   7  -2   43.82    2.82
  -3   7   2   40.72    2.37
  -3   7   2   42.14    2.56
   3   7  -1  105.67    4.49
  -3   7   1  101.96    4.48
  -3   7   1   98.91    3.97
  -3   7   1   96.97    4.04
  -3   7   0    9.01    1.44
   3   7   0    5.80    1.15
  -3   7   0    7.75    1.08
   3   7   1   42.49    2.75
  -3   7  -1   33.77    2.12
   3   7   1   33.10    2.51
   3   7   2   71.09    3.76
   3   7   2   70.82    3.16
   3   7   2   76.15    3.99
   3   7   3  118.61    5.14
   3   7   3  119.11    4.40
   3   7   3  120.76    5.34
   3   7   4   75.77    4.11
   3   7   4   75.09    3.41
   3   7   4   79.71    4.34
   3   7   5   83.51    4.45
   3   7   5   70.51    3.38
   3   7   5   85.03    4.65
   3   7   6   27.37    2.13
   3   7   6   31.96    2.96
  -3   7  -6   23.87    2.51
   3   7   7   29.12    2.92
   3   7   7   28.41    2.24
  -3   7  -7   22.77    2.56
   3   7   8   19.51    2.56
  -3   7  -8   17.28    2.34
   3   7   8   14.01    1.77
   3   7   9   34.71    2.69
  -3   7  -9   32.24    3.26
   3   7  10   41.68    3.19
  -3   7 -10   43.35    3.90
   3   7  11   13.82    1.96
  -3   7 -11   12.03    2.25
   3   7  12    4.24    1.56
  -3   7 -12    4.67    1.94
  -3   7 -13    2.78    1.86
  -3   7 -14    2.54    1.67
  -3   7 -15    6.08    2.11
  -3   7 -16    7.07    4.53
   3   8 -18    5.59    2.22
   3   8 -17   10.37    3.41
   3   8 -16    1.48    1.84
   3   8 -15   12.90    2.68
   3   8 -14    0.11    1.47
   3   8 -13    2.29    1.61
   3   8 -12    4.23    1.64
   3   8 -11   91.88    5.70
   3   8 -10    0.55    1.02
  -3   8   9   87.32    5.06
   3   8  -9   93.37    5.23
   3   8  -8   22.35    2.47
   3   8  -8   22.70    2.53
  -3   8   8   19.33    2.27
   3   8  -8   18.96    1.75
  -3   8   8   21.61    2.38
   3   8  -7  371.88   11.53
  -3   8   7  366.95   11.36
   3   8  -7  368.92    9.95
  -3   8   7  381.20   11.52
   3   8  -6    5.15    1.35
  -3   8   6    1.12    0.82
   3   8  -6    1.53    0.68
  -3   8   6    1.97    1.10
   3   8  -5  562.75   15.04
  -3   8   5  570.79   15.00
  -3   8   5  588.44   15.14
   3   8  -4  200.70    7.07
  -3   8   4  206.24    7.14
  -3   8   4  199.91    7.02
   3   8  -3  595.77   15.15
  -3   8   3  610.92   15.23
  -3   8   3  597.66   14.43
  -3   8   3  597.18   15.05
   3   8  -2  102.24    4.42
  -3   8   2   93.63    4.31
  -3   8   2   91.49    3.95
  -3   8   2   90.21    4.10
  -3   8   1  915.91   21.28
   3   8  -1  953.01   21.34
  -3   8   1  905.40   20.89
  -3   8   1  894.76   20.78
  -3   8   0   24.92    2.12
   3   8   0   25.30    2.13
  -3   8   0   29.17    2.25
  -3   8   0   27.50    2.05
   3   8   0   29.33    2.30
   3   8   1  418.67   11.31
  -3   8  -1  403.43   10.64
   3   8   1  406.09   11.37
   3   8   2  102.88    4.59
   3   8   2   99.91    4.12
   3   8   2  101.38    4.72
   3   8   3  692.90   17.48
   3   8   3  702.04   16.71
   3   8   3  734.10   17.99
   3   8   4   56.11    3.46
   3   8   4   53.08    2.99
   3   8   4   67.67    3.93
   3   8   5  404.78   11.63
   3   8   5  366.33   10.39
   3   8   5  385.81   11.85
   3   8   6   44.86    2.89
  -3   8  -6   51.72    3.61
   3   8   6   59.98    3.98
   3   8   7  233.73    7.78
  -3   8  -7  229.44    8.84
   3   8   7  252.59    9.33
   3   8   8   68.45    3.87
  -3   8  -8   72.11    4.62
   3   8   9  211.19    7.75
  -3   8  -9  215.62    8.90
  -3   8 -10   23.76    2.96
   3   8  10   22.04    2.47
   3   8  11   73.58    4.49
  -3   8 -11   71.05    5.20
  -3   8 -12    7.21    2.08
  -3   8 -13   40.49    4.31
  -3   8 -14    8.38    2.47
  -3   8 -15   14.95    3.24
  -3   8 -16    1.05    1.47
   3   9 -18   19.10    3.47
   3   9 -17    9.22    2.98
   3   9 -16   66.61    5.91
   3   9 -15    4.62    2.00
   3   9 -14  166.54    8.79
   3   9 -13    4.86    1.69
   3   9 -12   91.82    5.90
   3   9 -11   51.42    4.24
   3   9 -10  103.03    5.78
   3   9  -9   29.37    2.92
  -3   9   9   28.96    2.96
   3   9  -8  183.46    7.48
   3   9  -8  180.80    7.33
  -3   9   8  171.00    7.33
   3   9  -8  175.68    6.23
  -3   9   8  170.17    7.12
   3   9  -7   74.06    4.42
   3   9  -7   79.11    3.77
  -3   9   7   79.21    4.96
  -3   9   7   78.15    4.41
   3   9  -6  224.56    7.97
  -3   9   6  227.30    7.94
  -3   9   6  226.71    8.19
   3   9  -6  212.45    6.99
  -3   9   5    0.71    0.74
   3   9  -5    1.32    0.99
  -3   9   5    0.01    0.92
  -3   9   4  152.02    5.96
   3   9  -4  157.67    6.03
  -3   9   4  153.49    6.14
   3   9  -3   11.22    1.47
  -3   9   3   11.13    1.48
  -3   9   3    8.02    1.35
  -3   9   3    8.53    1.27
  -3   9   2    3.17    0.99
   3   9  -2    0.73    0.70
  -3   9   2    2.33    0.89
  -3   9   2    1.73    0.88
   3   9  -1   41.14    2.68
  -3   9   1   40.77    2.71
  -3   9   1   37.92    2.60
  -3   9   1   32.13    2.42
   3   9   0    9.14    1.30
  -3   9   0    7.51    1.32
  -3   9   0    8.89    1.26
   3   9   0    6.98    1.20
   3   9   1   15.38    1.74
  -3   9  -1   12.60    1.73
  -3   9  -1   16.45    1.68
   3   9   1   15.42    1.74
   3   9   2    3.24    0.99
   3   9   2    3.46    0.93
   3   9   2    3.57    1.10
   3   9   3   38.42    2.78
   3   9   3   34.06    2.46
   3   9   3   37.06    2.82
   3   9   4    3.41    1.03
   3   9   4    4.27    1.11
   3   9   4    5.09    1.17
   3   9   5    8.47    1.65
   3   9   5   10.72    1.54
   3   9   5    9.31    1.58
   3   9   6   13.11    2.02
   3   9   6   14.25    2.00
   3   9   6   15.18    1.82
   3   9   7   13.75    2.07
   3   9   7   11.75    1.67
  -3   9  -7   11.54    1.97
   3   9   8  137.50    5.91
  -3   9  -8  140.28    6.70
   3   9   9    7.98    1.55
  -3   9  -9    7.50    1.72
   3   9  10    6.64    1.57
  -3   9 -10    5.37    1.76
  -3   9 -11    2.42    1.54
   3   9  11    4.86    1.39
  -3   9 -12   12.17    2.44
  -3   9 -13    1.34    1.62
  -3   9 -14   38.87    4.33
  -3   9 -15    3.80    2.01
  -3   9 -16   12.54    2.88
   3  10 -18    2.23    2.33
   3  10 -17   -0.67    1.90
   3  10 -16    0.80    1.63
   3  10 -15    0.48    1.72
   3  10 -14    4.73    1.85
   3  10 -13    2.28    1.50
   3  10 -12   44.14    4.05
   3  10 -11    8.04    1.92
   3  10 -10   61.71    4.40
   3  10  -9   62.69    4.25
  -3  10   9   55.00    3.93
   3  10  -8  105.00    5.42
   3  10  -8  105.12    4.75
  -3  10   8  113.35    5.56
   3  10  -7   28.53    2.81
   3  10  -7   30.94    2.45
  -3  10   7   31.01    2.92
  -3  10   7   33.63    2.88
   3  10  -6  225.40    7.94
   3  10  -6  207.75    7.11
  -3  10   6  207.65    8.03
  -3  10   6  209.16    7.61
   3  10  -5  203.27    7.29
  -3  10   5  209.41    7.80
  -3  10   5  195.35    7.16
   3  10  -4  146.46    5.80
  -3  10   4  145.96    5.77
  -3  10   4  139.76    6.02
   3  10  -3  365.24   10.33
  -3  10   3  359.46   10.30
  -3  10   3  356.54   10.71
  -3  10   3  347.19   10.15
  -3  10   2  157.90    5.88
   3  10  -2  159.41    5.88
  -3  10   2  157.35    5.96
  -3  10   2  157.60    6.15
   3  10  -1   19.72    1.87
  -3  10   1   20.39    1.93
  -3  10   1   18.47    1.97
  -3  10   1   18.18    1.92
   3  10   0  238.15    7.58
  -3  10   0  238.33    8.02
  -3  10   0  233.46    7.79
   3  10   0  244.10    7.79
   3  10   1   10.36    1.44
  -3  10  -1   13.18    1.83
  -3  10  -1   12.44    1.53
   3  10   1   12.97    1.68
   3  10   2  113.68    4.89
   3  10   2  112.61    4.90
   3  10   2  123.51    5.23
   3  10   3  137.04    5.53
   3  10   3  125.99    5.29
   3  10   3  126.09    5.51
   3  10   4   80.27    4.21
   3  10   4   82.03    4.13
   3  10   4   82.03    4.42
   3  10   5   29.31    2.61
   3  10   5   26.33    2.40
   3  10   5   32.45    2.88
   3  10   6   58.33    3.79
   3  10   6   52.32    3.40
   3  10   6   59.23    4.00
   3  10   7   76.23    4.73
   3  10   7   66.21    3.99
  -3  10  -7   68.77    4.41
   3  10   8   84.00    4.58
  -3  10  -8   87.15    5.15
   3  10   9   53.30    3.82
  -3  10  -9   58.04    4.30
   3  10  10    6.92    1.64
  -3  10 -10    4.41    1.56
  -3  10 -11   29.21    3.39
  -3  10 -12   52.33    4.68
  -3  10 -13    1.05    1.55
  -3  10 -14   32.01    4.06
  -3  10 -15    6.10    2.30
  -3  10 -16    1.65    1.38
   3  11 -18    3.50    2.37
   3  11 -17   37.84    4.68
   3  11 -16    1.23    1.87
   3  11 -15   81.83    6.28
   3  11 -14    2.52    1.66
   3  11 -13  142.08    7.78
   3  11 -12   20.87    2.93
   3  11 -11  191.04    8.55
   3  11 -10   31.21    3.19
   3  11  -9  413.66   12.90
   3  11  -9  396.65   11.78
  -3  11   9  408.32   12.74
   3  11  -8    5.19    1.42
   3  11  -8    5.55    1.24
  -3  11   8    6.16    1.47
   3  11  -7  182.14    7.33
   3  11  -7  192.63    7.37
  -3  11   7  192.68    7.38
   3  11  -7  183.32    6.86
  -3  11   6    6.35    1.38
   3  11  -6    5.85    1.42
   3  11  -6    8.51    1.52
  -3  11   6    9.53    1.73
   3  11  -5  448.18   12.51
  -3  11   5  430.88   12.37
  -3  11   5  462.54   13.43
   3  11  -4   12.94    1.62
  -3  11   4   11.45    1.54
  -3  11   4   13.05    1.93
   3  11  -3  156.79    5.84
  -3  11   3  149.97    5.78
  -3  11   3  146.16    5.90
  -3  11   3  143.72    6.18
   3  11  -2    8.12    1.31
  -3  11   2    7.68    1.26
  -3  11   2    6.86    1.35
  -3  11   2    6.46    1.35
  -3  11   1   18.62    1.88
   3  11  -1   17.82    1.82
  -3  11   1   18.85    2.08
  -3  11   1   19.91    2.11
   3  11  -1   17.50    1.79
   3  11   0   24.43    2.10
  -3  11   0   23.13    2.33
  -3  11   0   27.76    2.42
   3  11   0   27.10    2.21
   3  11   1   91.39    4.19
  -3  11  -1   83.11    4.29
  -3  11  -1   80.67    4.44
   3  11   1   86.17    4.20
   3  11   2   42.61    2.85
   3  11   2   47.26    3.19
  -3  11  -2   42.19    3.22
   3  11   2   44.88    3.01
   3  11   3   19.92    2.10
   3  11   3   17.97    2.05
   3  11   3   19.03    2.02
   3  11   4   23.90    2.79
   3  11   4   19.66    2.13
   3  11   4   18.89    2.05
   3  11   5    4.61    1.30
   3  11   5    4.19    1.18
   3  11   5    7.27    1.44
   3  11   6   24.94    2.63
   3  11   6   30.13    2.65
   3  11   6   26.80    2.59
   3  11   7    2.23    1.11
   3  11   7    3.34    1.20
   3  11   7    1.77    0.93
   3  11   8    2.35    1.12
  -3  11  -8    2.82    1.27
   3  11   9   10.28    2.15
  -3  11  -9   11.28    2.10
  -3  11 -10    7.56    1.92
  -3  11 -11    8.51    2.07
  -3  11 -12    2.13    1.45
  -3  11 -13   32.01    3.81
  -3  11 -14    3.20    1.63
  -3  11 -15    1.66    1.48
  -3  11 -16    1.81    1.61
   3  12 -17   -3.21    2.11
   3  12 -16   -0.67    1.86
   3  12 -15    1.49    1.82
   3  12 -14    5.55    1.92
   3  12 -13    4.95    1.72
   3  12 -12    7.42    2.01
   3  12 -11   21.00    2.80
   3  12 -10   70.52    4.73
   3  12  -9   36.97    3.28
   3  12  -9   31.88    2.83
  -3  12   9   37.41    3.29
   3  12  -8    3.76    1.34
   3  12  -8    1.05    0.95
  -3  12   8    3.03    1.28
   3  12  -7    2.05    1.20
   3  12  -7    1.25    1.00
  -3  12   7   -0.63    0.84
   3  12  -6  369.15   11.25
   3  12  -6  367.59   11.12
  -3  12   6  370.24   11.09
   3  12  -5   93.43    4.60
  -3  12   5   92.86    5.17
  -3  12   5   97.67    4.65
   3  12  -4  320.03    9.58
  -3  12   4  298.03    9.37
  -3  12   4  324.22   10.57
   3  12  -3   51.26    3.11
  -3  12   3   51.59    3.12
  -3  12   3   52.56    3.72
  -3  12   3   49.03    3.32
   3  12  -2  280.12    8.37
  -3  12   2  262.01    8.24
  -3  12   2  256.50    8.84
  -3  12   2  269.81    9.23
   3  12  -1   35.66    2.51
  -3  12   1   34.14    2.81
  -3  12   1   33.60    2.86
   3  12  -1   33.16    2.46
   3  12   0  289.71    8.64
  -3  12   0  284.58    9.55
  -3  12   0  279.66    9.40
   3  12   0  288.80    8.75
   3  12   1   45.17    2.85
  -3  12  -1   48.50    3.72
  -3  12  -1   47.28    3.30
   3  12   1   45.65    3.02
   3  12   2  148.00    5.68
   3  12   2  135.89    6.00
  -3  12  -2  135.43    6.32
   3  12   2  150.59    5.89
   3  12   3   38.78    2.80
   3  12   3   39.99    3.12
   3  12   3   41.12    2.97
   3  12   4  226.37    7.87
   3  12   4  223.32    8.20
   3  12   4  237.82    8.30
   3  12   5   22.72    2.44
   3  12   5   25.59    2.43
   3  12   5   26.86    2.61
   3  12   6  255.89    8.83
   3  12   6  238.66    8.77
   3  12   6  242.77    9.07
   3  12   7   15.65    2.29
   3  12   7   17.87    2.35
   3  12   7   14.76    2.06
   3  12   8   38.40    3.27
  -3  12  -8   37.86    3.41
  -3  12  -9   -0.93    1.13
  -3  12 -10   88.62    5.58
  -3  12 -11    4.19    1.73
  -3  12 -12   10.97    2.54
  -3  12 -13   18.53    2.95
  -3  12 -14   25.81    3.57
  -3  12 -15   -6.81    2.22
  -3  12 -16   -0.24    1.62
   3  13 -17    9.01    2.14
   3  13 -16    2.77    1.91
   3  13 -15   45.48    4.79
   3  13 -14    2.01    1.50
   3  13 -13   54.32    4.91
   3  13 -12   13.31    2.56
   3  13 -11  119.11    6.60
   3  13 -10    9.57    1.93
   3  13  -9  187.56    7.87
   3  13  -9  182.95    7.46
  -3  13   9  183.93    7.75
   3  13  -8    5.99    1.45
   3  13  -8    6.54    1.62
  -3  13   8    6.84    1.42
   3  13  -7   69.69    4.14
   3  13  -7   58.46    3.88
  -3  13   7   69.88    4.17
   3  13  -6   12.10    1.67
   3  13  -6    9.25    1.66
   3  13  -6   11.08    1.75
  -3  13   6   14.05    1.85
   3  13  -5  255.63    8.42
  -3  13   5  244.35    8.24
  -3  13   4    5.89    1.44
   3  13  -4    3.20    0.99
  -3  13   4    6.12    1.28
   3  13  -3  144.47    5.59
  -3  13   3  138.88    5.49
  -3  13   3  133.39    6.29
  -3  13   3  138.56    6.10
   3  13  -2    8.80    1.35
  -3  13   2    8.49    1.33
  -3  13   2   10.27    1.83
  -3  13   2   11.66    1.83
   3  13  -1   57.20    3.21
  -3  13   1   58.96    3.87
  -3  13   1   54.53    3.76
   3  13  -1   55.12    3.17
   3  13   0    3.82    1.04
  -3  13   0    4.16    1.19
  -3  13   0    4.92    1.42
   3  13   0    4.76    1.08
   3  13   1   51.33    3.05
  -3  13  -1   46.47    3.56
  -3  13  -1   51.20    3.62
   3  13   1   51.06    3.15
   3  13   2    5.28    1.20
  -3  13  -2    8.36    1.66
   3  13   2    5.16    1.30
   3  13   2    7.27    1.34
   3  13   3   10.02    1.57
  -3  13  -3   13.18    2.07
   3  13   3   13.27    1.93
   3  13   3   12.40    1.62
   3  13   4    4.48    1.30
   3  13   4    6.82    1.51
   3  13   4    5.76    1.30
   3  13   5    6.21    1.60
   3  13   5    7.65    1.54
   3  13   5    7.27    1.32
   3  13   6   16.67    2.28
   3  13   6   19.14    2.36
   3  13   6   13.80    1.85
   3  13   7   26.62    2.81
   3  13   7   28.78    2.87
   3  13   7   28.69    2.96
   3  13   8    1.96    1.14
  -3  13  -9    7.82    1.73
  -3  13 -10   10.74    2.16
  -3  13 -11   10.41    2.24
  -3  13 -12   14.78    2.69
  -3  13 -13   11.65    2.51
  -3  13 -14    2.59    1.73
  -3  13 -15    7.90    2.32
  -3  13 -16    3.83    2.03
   3  14 -17    1.48    1.80
   3  14 -16    2.50    1.98
   3  14 -15    9.31    2.60
   3  14 -14    0.71    1.43
   3  14 -13   52.84    4.66
   3  14 -12    2.08    1.97
   3  14 -11   58.70    4.55
   3  14 -10    2.67    1.35
   3  14 -10    5.61    1.63
   3  14  -9  120.26    6.07
   3  14  -9  122.16    6.07
  -3  14   9  110.06    5.77
   3  14  -8   20.61    2.42
   3  14  -8   26.22    2.75
  -3  14   8   24.76    2.54
   3  14  -7   21.81    2.37
   3  14  -7   23.00    2.55
  -3  14   7   20.70    2.28
   3  14  -6    9.02    1.50
   3  14  -6   10.13    1.76
  -3  14   6    8.38    1.50
   3  14  -5  131.46    5.57
  -3  14   5  118.72    5.26
   3  14  -4   85.09    4.21
  -3  14   4   88.04    4.30
   3  14  -3  181.34    6.40
  -3  14   3  172.01    6.26
  -3  14   3  171.43    7.24
  -3  14   2    5.64    1.20
   3  14  -2    3.51    0.92
  -3  14   2    5.42    1.53
  -3  14   2    5.53    1.53
   3  14  -2    3.79    1.00
   3  14  -1  165.37    5.81
  -3  14   1  145.28    6.69
  -3  14   1  157.84    6.99
   3  14  -1  152.22    5.71
   3  14   0   48.17    2.88
  -3  14   0   41.22    3.42
  -3  14   0   43.98    3.56
   3  14   0   42.22    2.80
   3  14   1  200.22    6.81
  -3  14  -1  197.92    8.16
  -3  14  -1  217.25    8.29
   3  14   1  204.83    7.05
   3  14   2   26.59    2.27
  -3  14  -2   29.21    3.04
   3  14   2   27.02    2.70
   3  14   2   28.72    2.41
   3  14   3  289.06    9.04
   3  14   3  297.92   10.31
  -3  14  -3  288.82   10.61
   3  14   3  303.44    9.49
   3  14   4    3.32    1.06
   3  14   4    2.25    0.97
   3  14   4    4.41    1.12
   3  14   5  214.27    7.94
   3  14   5  190.17    8.05
   3  14   5  204.82    7.51
   3  14   6   10.85    1.74
   3  14   6   10.90    1.90
   3  14   7  157.93    6.82
   3  14   7  162.20    7.32
   3  14   8   18.52    2.44
   3  14   9   45.30    3.85
  -3  14 -10    1.57    1.30
  -3  14 -11   61.85    4.87
  -3  14 -12   -0.36    1.43
  -3  14 -13   36.31    4.18
  -3  14 -14   -0.70    1.62
  -3  14 -15   10.90    2.52
   3  15 -17    5.99    2.48
   3  15 -16   19.43    3.34
   3  15 -15    6.90    2.33
   3  15 -14   57.87    5.15
   3  15 -13    8.81    2.08
   3  15 -12   47.62    4.30
   3  15 -11    7.92    1.95
   3  15 -10   52.25    4.07
   3  15 -10   51.71    4.04
   3  15  -9   29.21    2.94
   3  15  -9   21.81    2.74
  -3  15   9   23.29    2.68
   3  15  -8   67.91    4.26
   3  15  -8   59.70    4.23
  -3  15   8   57.30    3.85
   3  15  -7   39.93    3.11
   3  15  -7   38.66    3.42
  -3  15   7   36.41    2.98
   3  15  -6   17.86    2.05
   3  15  -6   18.05    2.44
  -3  15   6   15.74    1.92
   3  15  -5   44.61    3.08
   3  15  -5   52.55    3.25
  -3  15   5   46.76    3.12
   3  15  -4  166.11    6.26
  -3  15   4  171.63    6.29
  -3  15   3    6.26    1.24
   3  15  -3    3.63    1.03
  -3  15   3    5.94    1.44
   3  15  -2   41.60    2.68
  -3  15   2   42.61    3.57
   3  15  -2   40.05    2.66
   3  15  -1    8.76    1.29
  -3  15   1    8.85    1.95
   3  15  -1   10.67    1.54
   3  15   0   52.92    3.01
  -3  15   0   54.44    4.05
   3  15   0   47.77    3.02
   3  15   1   29.87    2.30
  -3  15  -1   27.86    2.96
   3  15   1   30.13    2.40
   3  15   2   53.07    3.11
  -3  15  -2   50.31    4.03
   3  15   2   49.92    3.20
   3  15   3   -0.76    1.05
  -3  15  -3    0.37    1.18
   3  15   3   -0.53    0.76
   3  15   4    5.09    1.17
   3  15   4    6.82    1.42
   3  15   5    3.38    1.10
   3  15   5    3.13    1.12
   3  15   6    1.13    0.87
   3  15   6    0.08    1.27
   3  15   7    0.89    0.94
   3  15   7    2.83    1.50
   3  15   8    3.26    1.35
   3  15   9   15.62    2.28
  -3  15 -11   -0.73    1.43
  -3  15 -12   -0.20    1.39
  -3  15 -13    5.44    2.24
  -3  15 -14    9.49    2.43
  -3  15 -15    2.45    1.54
   3  16 -15    2.22    1.96
   3  16 -14    6.44    2.12
   3  16 -13    1.72    1.36
   3  16 -12   15.57    2.49
   3  16 -11   27.20    3.16
   3  16 -10   29.03    3.10
   3  16 -10   27.42    3.21
   3  16  -9    4.50    1.42
   3  16  -9    5.80    1.74
   3  16  -8   74.52    4.50
   3  16  -8   69.46    4.86
  -3  16   8   73.79    4.41
   3  16  -7    3.13    1.23
   3  16  -7    1.02    1.15
  -3  16   7    2.73    1.84
   3  16  -6   38.23    2.89
   3  16  -6   35.55    3.37
  -3  16   6   36.34    2.81
  -3  16   5  133.36    5.55
   3  16  -5  131.41    5.46
  -3  16   4   61.33    3.42
   3  16  -4   60.15    3.47
   3  16  -3   62.88    3.37
  -3  16   3   62.82    3.40
  -3  16   3   51.09    4.04
   3  16  -3   59.18    3.24
   3  16  -2  126.06    4.97
  -3  16   2  120.54    6.36
   3  16  -2  132.65    5.05
   3  16  -1   23.99    1.97
  -3  16   1   27.15    2.96
   3  16  -1   27.91    2.17
   3  16   0  221.02    7.09
  -3  16   0  222.07    9.11
   3  16   0  236.02    7.38
   3  16   1   32.72    2.37
  -3  16  -1   26.95    3.03
   3  16   1   30.70    2.35
   3  16   2  163.37    5.90
  -3  16  -2  156.43    7.67
   3  16   2  163.67    6.14
   3  16   3   16.05    1.82
  -3  16  -3   16.63    2.57
   3  16   3   13.25    1.67
   3  16   4  136.70    5.87
  -3  16  -4  133.66    7.20
   3  16   4  134.77    5.57
   3  16   5  116.90    5.24
   3  16   5  112.22    5.51
   3  16   6   36.70    3.01
   3  16   6   36.78    3.29
   3  16   7    9.85    1.68
   3  16   8   16.99    2.26
   3  16   9   13.36    2.21
   3  16  10   13.20    2.22
  -3  16 -12   18.33    2.93
  -3  16 -13    4.12    1.73
  -3  16 -14    4.72    2.19
   3  17 -12    5.13    1.73
   3  17 -11   40.13    3.75
   3  17 -10    9.37    1.83
   3  17 -10   13.17    2.42
   3  17  -9   11.77    1.99
   3  17  -9    9.66    2.18
   3  17  -8    2.34    1.16
   3  17  -8    0.55    1.29
   3  17  -7   82.13    4.47
   3  17  -7   73.17    5.04
   3  17  -6   12.13    1.62
   3  17  -6   10.79    2.22
  -3  17   5   53.56    3.29
   3  17  -5   56.94    3.34
  -3  17   4    6.06    1.26
   3  17  -4    7.59    1.24
   3  17  -3   18.38    1.82
  -3  17   3   13.85    2.37
   3  17  -3   15.54    1.66
   3  17  -2   17.39    1.68
  -3  17   2   16.36    2.51
   3  17  -2   16.05    1.70
   3  17  -1   23.59    1.91
  -3  17   1   23.26    2.87
   3  17  -1   23.29    1.93
   3  17   0    0.74    0.77
  -3  17   0    2.20    1.55
   3  17   0    0.66    0.62
   3  17   1   12.54    1.64
  -3  17  -1   10.08    2.10
   3  17   1   12.74    1.45
   3  17   2    6.40    1.24
  -3  17  -2    3.62    1.48
   3  17   2    4.76    1.00
  -3  17  -3   15.63    2.54
   3  17   3   17.03    1.74
  -3  17  -4   15.12    2.64
   3  17   4   12.01    1.67
   3  17   5    1.75    1.08
   3  17   6   33.38    2.79
   3  17   7    8.14    1.68
   3  17   8    5.79    1.42
   3  17   9   -1.21    1.05
   3  17  10    3.47    1.44
   3  17  11    7.97    1.93
   3  18 -10   41.92    4.09
   3  18  -9   13.58    2.49
   3  18  -8   41.37    3.24
   3  18  -8   33.84    3.62
   3  18  -7    9.10    1.55
   3  18  -7    9.78    2.21
   3  18  -6   53.79    3.36
   3  18  -6   50.10    4.28
   3  18  -5   12.67    1.67
   3  18  -4  140.01    5.29
   3  18  -3    2.94    0.84
  -3  18   3    4.08    1.62
   3  18  -2  196.40    6.29
  -3  18   2  182.24    8.61
   3  18  -1   81.38    3.57
  -3  18   1   79.12    5.39
   3  18   0  163.82    5.50
  -3  18   0  162.04    8.02
   3  18   1   73.15    3.39
  -3  18  -1   70.40    5.29
   3  18   2  255.04    7.60
  -3  18  -2  233.40   10.27
   3  18   3   41.31    2.68
  -3  18  -3   38.43    4.09
   3  18   4  315.07    9.34
  -3  18  -4  302.88   12.18
   3  18   5   57.90    3.48
   3  18   6  176.77    6.86
   3  18   7    2.30    1.12
   3  19 -11    0.11    1.47
   3  19 -10   28.92    3.66
   3  19  -9    5.57    1.91
   3  19  -8   34.97    3.86
   3  19  -7    4.35    1.94
   3  19  -6   96.04    6.16
  -3  19   3   16.29    2.59
  -3  19   2    5.71    1.86
  -3  19   1   18.97    2.96
  -3  19   0    3.42    1.80
  -3  19  -1   18.10    2.84
  -3  19  -2    7.59    2.10
  -3  19  -3    3.32    1.89
  -3  19  -4    8.97    2.25
   3  20 -11   16.78    3.11
   3  20 -10    2.80    1.79
   3  20  -9   35.21    4.07
   3  20  -8    6.92    2.18
   3  20  -7   68.16    5.47
   3  20  -6    1.25    1.57
  -3  20   3  153.72    8.19
  -3  20   2    2.29    1.72
  -3  20   1  124.58    7.35
  -3  20   0    1.63    1.59
  -3  20  -1  148.35    8.14
  -3  20  -2    5.04    2.03
  -3  20  -3  111.48    7.22
  -3  20  -4   21.32    3.45
   3  21 -11   16.98    3.21
   3  21 -10   21.13    3.31
   3  21  -9   21.90    3.30
   3  21  -8   17.80    3.01
   3  21  -7   11.10    2.68
   3  21  -6   54.77    5.00
  -3  21   4   21.75    3.27
  -3  21   3    2.25    1.70
  -3  21   2   14.72    2.79
  -3  21   1    4.54    2.17
  -3  21   0    4.52    2.13
  -3  21  -1    4.92    2.02
  -3  21  -2   10.46    2.38
  -3  21  -3    3.11    1.73
  -3  21  -4    2.23    1.86
   3  22 -11    7.45    2.75
   3  22 -10    6.89    2.16
   3  22  -9    8.13    2.25
   3  22  -8   13.59    2.91
   3  22  -7   12.33    2.70
   3  22  -6   26.40    3.64
   3  22  -5   26.76    3.72
  -3  22   4   34.89    4.13
  -3  22   3   25.05    3.40
  -3  22   2   41.99    4.51
  -3  22   1   23.33    3.56
  -3  22   0   52.60    5.25
  -3  22  -1   10.08    2.34
  -3  22  -2   17.93    3.03
  -3  22  -3   12.88    2.83
  -3  22  -4   70.18    6.02
   3  23  -8    3.52    1.98
   3  23  -7   43.14    4.66
   3  23  -6    1.98    1.57
   3  23  -5   37.52    4.34
  -3  23   5   40.75    4.81
  -3  23   4    1.73    1.50
  -3  23   3   11.99    2.81
  -3  23   2    0.19    1.70
  -3  23   1    9.18    2.27
  -3  23   0    3.70    2.14
  -3  23  -1   12.88    2.79
  -3  23  -2    0.79    1.96
  -3  24   4    9.77    2.75
  -3  24   3   19.28    3.39
  -4 -23   2    5.65    2.34
   4 -23  -2    2.74    1.94
   4 -23  -1   43.77    4.69
  -4 -23   1   51.52    5.04
  -4 -23   0    2.39    1.41
   4 -23   0    1.03    1.61
  -4 -23  -1   37.04    4.33
   4 -23   1   38.54    4.41
  -4 -23  -2    6.24    2.28
   4 -23   2    4.28    2.30
   4 -23   3   42.09    4.68
  -4 -23  -3   39.83    4.42
   4 -23   4    0.31    1.76
  -4 -23  -4    1.76    2.07
  -4 -23  -5   30.94    4.36
  -4 -22   5    3.19    1.88
   4 -22  -5    3.35    1.96
  -4 -22   4    3.19    2.08
   4 -22  -4    3.23    2.04
  -4 -22   3   12.23    2.63
   4 -22  -3    6.38    1.94
  -4 -22   2    0.09    1.67
   4 -22  -2    1.63    1.62
   4 -22  -1    3.64    1.89
  -4 -22   1    1.54    1.85
  -4 -22   0    6.97    2.02
   4 -22   0    6.61    2.38
  -4 -22  -1    5.44    2.13
   4 -22   1    4.19    1.89
  -4 -22  -2    6.83    1.98
   4 -22   2    9.42    2.21
   4 -22   3    3.61    2.11
  -4 -22  -3    2.35    1.81
   4 -22   4   23.20    3.54
  -4 -22  -4   18.57    3.66
   4 -22   5    3.18    2.31
  -4 -22  -5    7.43    2.33
  -4 -22  -6    0.57    1.61
   4 -22   6    6.55    2.21
  -4 -21   7   -1.21    1.97
   4 -21  -7   -0.57    1.63
  -4 -21   6   56.23    5.35
   4 -21  -6   56.97    5.28
  -4 -21   5    2.63    1.83
   4 -21  -5    4.38    1.87
  -4 -21   4   48.50    4.81
   4 -21  -4   38.95    4.28
  -4 -21   3    7.94    2.65
   4 -21  -3    3.83    1.95
  -4 -21   2   45.37    4.66
   4 -21  -2   52.02    4.99
  -4 -21   1    1.59    1.81
   4 -21  -1    1.66    1.68
   4 -21   0   44.47    4.51
  -4 -21   0   47.63    4.59
  -4 -21  -1   13.76    3.00
   4 -21   1    7.60    2.38
  -4 -21  -2   58.67    5.15
   4 -21   2   69.99    5.55
   4 -21   3   13.48    2.73
  -4 -21  -3   11.60    2.66
   4 -21   4   46.46    4.65
  -4 -21  -4   46.40    4.59
   4 -21   5    9.87    2.38
  -4 -21  -5    7.57    2.38
  -4 -21  -6    9.30    2.31
   4 -21   6    8.55    2.56
   4 -21   7    4.70    2.24
  -4 -21  -7    3.13    1.96
   4 -21   8   33.90    4.51
  -4 -21  -8   28.33    3.90
  -4 -20   8    1.34    1.84
   4 -20  -8    3.90    2.14
  -4 -20   7   19.17    3.21
   4 -20  -7   20.08    3.28
  -4 -20   6    7.88    2.27
   4 -20  -6    5.50    2.20
  -4 -20   5    9.00    2.42
   4 -20  -5    8.65    2.42
  -4 -20   4   17.10    3.10
   4 -20  -4   20.16    3.34
  -4 -20   3   -1.93    1.86
   4 -20  -3    3.97    1.81
  -4 -20   2   16.93    2.94
   4 -20  -2   16.78    3.02
  -4 -20   1    3.25    1.56
   4 -20  -1    5.99    2.05
   4 -20   0    8.70    2.37
  -4 -20   0   11.02    2.38
  -4 -20  -1    9.68    2.43
   4 -20   1    6.58    2.27
  -4 -20  -2    6.20    2.05
   4 -20   2    7.24    2.20
   4 -20   3   12.56    2.65
  -4 -20  -3   16.35    2.79
   4 -20   4    2.78    1.96
  -4 -20  -4    4.20    1.94
  -4 -20  -5    4.83    1.74
   4 -20   5    2.15    1.89
   4 -20   6    0.11    1.62
  -4 -20  -6    1.52    1.55
   4 -20   7   19.93    3.23
  -4 -20  -7   14.30    2.67
   4 -20   8    2.74    2.16
  -4 -20  -8   -4.57    3.57
  -4 -19  10   20.27    3.58
   4 -19 -10   20.30    3.49
  -4 -19   9   15.67    3.13
   4 -19  -9   11.13    2.66
  -4 -19   8   32.48    4.18
   4 -19  -8   36.95    4.11
  -4 -19   7   27.59    3.77
   4 -19  -7   21.18    3.35
  -4 -19   6   88.16    6.45
   4 -19  -6   91.14    6.41
  -4 -19   5   31.11    3.74
   4 -19  -5   34.04    3.89
  -4 -19   4   73.76    5.76
   4 -19  -4   87.84    6.08
  -4 -19   3   19.82    3.03
   4 -19  -3   27.27    3.42
  -4 -19   2   45.00    4.42
   4 -19  -2   44.44    4.29
  -4 -19   1   19.02    3.01
   4 -19  -1   18.57    2.90
   4 -19   0   43.75    4.21
  -4 -19   0   45.27    4.25
   4 -19   1   52.93    4.63
  -4 -19  -1   55.93    4.70
  -4 -19  -2   75.39    5.45
   4 -19   2   74.55    5.49
   4 -19   3    6.92    2.12
  -4 -19  -3    7.76    1.98
   4 -19   4   58.71    4.89
  -4 -19  -4   57.17    4.77
  -4 -19  -5   13.52    2.74
   4 -19   5   11.28    2.53
   4 -19   6   39.02    4.17
  -4 -19  -6   38.06    3.93
   4 -19   7   11.28    2.59
  -4 -19  -7   11.54    2.63
   4 -19   8   24.23    3.59
  -4 -19  -8   22.76    3.35
   4 -19   9    4.93    2.01
  -4 -19  -9   -0.29    1.62
  -4 -18  11    1.22    1.70
  -4 -18  10   12.24    2.80
   4 -18 -10   11.53    2.62
   4 -18  -9    6.74    1.96
  -4 -18   9    5.77    2.45
   4 -18  -9    7.69    2.13
   4 -18  -8   14.90    2.40
  -4 -18   8   22.19    3.38
   4 -18  -8   16.14    2.97
   4 -18  -7    0.90    1.17
  -4 -18   7    2.07    1.73
   4 -18  -7    4.22    2.08
   4 -18  -6    9.79    1.88
  -4 -18   6    8.13    2.33
   4 -18  -6   11.65    2.50
   4 -18  -5    5.48    1.56
  -4 -18   5    1.19    1.53
   4 -18  -5    6.84    2.10
   4 -18  -4    0.97    1.00
  -4 -18   4   -0.80    1.52
   4 -18  -4    1.68    1.43
   4 -18  -3   38.08    3.12
  -4 -18   3   34.08    3.70
   4 -18  -3   30.51    3.49
   4 -18  -2    2.09    0.93
  -4 -18   2   -0.08    1.32
   4 -18  -2    2.67    1.47
   4 -18  -1   -0.27    1.09
  -4 -18   1   -0.23    1.30
   4 -18  -1    1.43    1.50
   4 -18   0    3.32    1.15
  -4 -18   0    1.86    1.33
   4 -18   0    5.54    2.00
   4 -18   1    3.98    1.21
  -4 -18  -1    5.84    2.05
   4 -18   1    6.08    2.07
   4 -18   2   -0.14    1.03
  -4 -18  -2    1.85    1.52
   4 -18   2    2.96    1.61
   4 -18   3    8.38    1.67
   4 -18   3    5.85    1.99
  -4 -18  -3    4.05    1.56
   4 -18   4    9.89    2.28
  -4 -18  -4   12.26    2.34
   4 -18   4   11.93    2.20
   4 -18   5    3.81    1.37
   4 -18   5   -0.32    1.65
  -4 -18  -5    2.08    1.48
   4 -18   6    1.89    1.36
   4 -18   6    1.43    1.41
  -4 -18  -6    2.20    1.51
   4 -18   7    3.15    1.88
  -4 -18  -7    4.88    1.77
   4 -18   8    2.12    1.91
  -4 -18  -8    2.91    1.91
   4 -18   9    2.69    1.96
  -4 -18  -9    1.08    1.50
   4 -18  10    5.79    1.95
  -4 -18 -10    5.95    2.13
   4 -17 -13   38.01    4.33
   4 -17 -12    5.61    2.09
  -4 -17  12    3.87    2.11
   4 -17 -11   73.14    5.49
  -4 -17  11   60.50    5.75
   4 -17 -10    1.55    1.88
  -4 -17  10    1.65    1.80
   4 -17 -10    1.35    1.60
   4 -17  -9   53.53    4.40
  -4 -17   9   53.31    5.16
   4 -17  -9   57.70    5.07
   4 -17  -8    1.49    1.04
  -4 -17   8    2.09    1.90
   4 -17  -8   -1.92    1.88
   4 -17  -7  198.98    8.38
  -4 -17   7  210.76    9.86
   4 -17  -7  196.07    9.36
   4 -17  -6    4.98    1.48
   4 -17  -6    7.35    1.66
  -4 -17   6    6.30    2.03
   4 -17  -6    5.19    1.89
   4 -17  -5  180.29    7.50
  -4 -17   5  174.71    8.61
   4 -17  -5  154.27    7.97
   4 -17  -4   13.82    1.97
  -4 -17   4   12.89    2.51
   4 -17  -4   11.55    2.26
   4 -17  -3  125.74    5.85
  -4 -17   3  115.30    6.67
   4 -17  -3  112.60    6.50
   4 -17  -2    4.08    1.25
  -4 -17   2    8.07    2.04
   4 -17  -2    7.17    1.91
   4 -17  -1  140.80    6.11
  -4 -17   1  127.57    6.86
   4 -17  -1  122.71    6.74
   4 -17   0    1.27    1.16
  -4 -17   0    0.15    1.32
   4 -17   0    2.64    1.40
   4 -17   1   96.46    4.98
   4 -17   1   91.32    5.68
  -4 -17  -1   94.85    5.75
   4 -17   2    1.02    0.86
  -4 -17  -2    5.92    1.78
   4 -17   2    1.82    1.25
   4 -17   3  171.88    7.11
  -4 -17  -3  171.88    7.91
   4 -17   3  170.04    7.98
   4 -17   4    8.57    1.70
  -4 -17  -4    7.34    1.80
   4 -17   4    4.91    1.76
   4 -17   5   89.50    5.12
   4 -17   5   75.36    5.26
  -4 -17  -5   83.81    5.39
   4 -17   6    1.08    1.13
   4 -17   6    1.19    1.34
  -4 -17  -6    1.58    1.41
   4 -17   7   61.58    4.44
   4 -17   7   61.36    4.80
  -4 -17  -7   58.40    4.57
   4 -17   8    4.64    1.69
   4 -17   8    2.75    1.78
  -4 -17  -8    1.78    1.37
   4 -17   9   41.32    4.04
   4 -17   9   38.43    4.02
  -4 -17  -9   44.31    4.15
   4 -17  10    2.91    1.89
   4 -17  10    4.00    1.92
  -4 -17 -10    0.39    1.84
   4 -16 -15   17.46    3.56
   4 -16 -14   10.66    2.54
   4 -16 -13   25.03    3.70
   4 -16 -12    3.31    1.74
  -4 -16  12    8.15    2.40
   4 -16 -11    1.52    1.45
  -4 -16  11    4.87    1.92
   4 -16 -10   16.24    2.69
  -4 -16  10   14.25    2.93
   4 -16  -9   32.20    3.50
  -4 -16   9   33.05    4.49
   4 -16  -9   33.14    3.85
   4 -16  -8    5.16    1.53
  -4 -16   8    4.19    1.87
   4 -16  -8    4.39    1.84
   4 -16  -7   24.82    2.86
  -4 -16   7   23.47    3.07
   4 -16  -7   19.96    3.02
   4 -16  -6    9.65    1.89
  -4 -16   6    7.77    1.99
   4 -16  -6   10.15    2.28
   4 -16  -5    0.06    0.93
  -4 -16   5    0.68    1.36
   4 -16  -5    0.65    1.28
  -4 -16   4    4.86    1.27
   4 -16  -4    5.32    1.52
  -4 -16   4    5.38    1.75
   4 -16  -4    3.26    1.36
   4 -16  -3   -0.30    0.84
  -4 -16   3    0.29    1.34
   4 -16  -3    1.49    1.01
   4 -16  -3   -0.47    1.35
   4 -16  -2   -0.57    0.87
  -4 -16   2    1.31    1.41
   4 -16  -2    0.79    1.35
   4 -16  -2   -1.68    1.14
   4 -16  -1    1.29    0.86
  -4 -16   1    1.79    1.48
   4 -16  -1   -0.14    1.02
   4 -16  -1   -0.16    1.26
   4 -16   0    5.89    1.46
  -4 -16   0    4.30    1.73
   4 -16   0    6.67    1.80
   4 -16   0    7.07    1.58
   4 -16   1   10.02    1.73
   4 -16   1   11.22    1.98
   4 -16   1   10.14    2.07
  -4 -16  -1    8.48    1.88
   4 -16   2    4.97    1.32
   4 -16   2    5.43    1.59
  -4 -16  -2    4.07    1.49
   4 -16   2    4.05    1.61
   4 -16   3    1.11    0.86
   4 -16   3    6.11    1.93
  -4 -16  -3    3.58    1.30
   4 -16   4    1.40    1.03
  -4 -16  -4    1.83    1.31
   4 -16   4    0.82    1.19
   4 -16   5   10.02    1.86
   4 -16   5    8.54    1.94
  -4 -16  -5   12.00    2.25
   4 -16   6    0.53    1.04
   4 -16   6    4.84    1.69
  -4 -16  -6    2.72    1.36
   4 -16   7    2.91    1.47
   4 -16   7    3.87    1.59
  -4 -16  -7    2.66    1.55
   4 -16   8    4.98    1.68
   4 -16   8    1.90    1.27
  -4 -16  -8    2.80    1.55
   4 -16   9   11.84    2.39
   4 -16   9    9.65    2.21
  -4 -16  -9    8.94    2.20
   4 -16  10    6.14    1.89
   4 -16  10    4.31    1.77
  -4 -16 -10    6.98    2.15
   4 -16  11    3.21    1.96
   4 -16  11    4.60    2.06
   4 -16  12    7.40    2.22
   4 -16  13    2.40    1.79
   4 -15 -16    8.27    3.07
   4 -15 -15    5.45    1.98
   4 -15 -14   30.76    4.01
   4 -15 -13    4.92    2.15
   4 -15 -12   31.76    3.78
   4 -15 -11   12.35    2.67
  -4 -15  11   11.37    2.85
   4 -15 -10   93.99    6.11
  -4 -15  10   94.30    6.51
   4 -15  -9   25.93    3.10
  -4 -15   9   27.78    3.77
   4 -15  -9   26.81    3.56
   4 -15  -8  138.42    6.95
  -4 -15   8  130.53    7.44
   4 -15  -8  133.19    7.34
   4 -15  -7    2.47    1.17
  -4 -15   7    5.92    1.99
   4 -15  -7    2.05    1.51
   4 -15  -6  152.64    7.08
  -4 -15   6  150.91    6.75
  -4 -15   6  149.08    7.68
   4 -15  -6  160.29    7.72
   4 -15  -5   72.06    4.49
  -4 -15   5   65.18    4.15
  -4 -15   5   67.31    4.88
   4 -15  -5   69.80    4.87
   4 -15  -4  161.46    6.95
  -4 -15   4  152.41    6.54
  -4 -15   4  164.96    7.72
   4 -15  -4  158.38    7.43
   4 -15  -3    3.24    1.15
  -4 -15   3    2.87    1.06
  -4 -15   3    2.58    1.47
   4 -15  -3    2.66    1.36
   4 -15  -2  168.66    6.87
  -4 -15   2  156.49    7.30
   4 -15  -2  152.67    6.69
   4 -15  -2  153.94    7.17
   4 -15  -1    2.65    1.07
  -4 -15   1    2.46    1.25
   4 -15  -1    4.12    1.31
   4 -15  -1    4.81    1.54
   4 -15   0  169.07    6.84
   4 -15   0  147.60    6.93
  -4 -15   0  159.56    7.24
   4 -15   0  152.25    6.77
   4 -15   1    2.44    1.17
   4 -15   1    2.62    1.09
   4 -15   1    1.94    1.06
  -4 -15  -1    5.03    1.36
   4 -15   2  115.21    5.61
   4 -15   2  124.47    6.18
  -4 -15  -2  117.97    6.05
   4 -15   2  115.28    5.86
   4 -15   3   24.58    2.60
   4 -15   3   23.12    2.72
   4 -15   3   22.44    2.63
  -4 -15  -3   26.21    2.73
   4 -15   4   62.31    4.17
   4 -15   4   60.62    4.27
  -4 -15  -4   60.79    4.21
   4 -15   5   22.61    2.60
   4 -15   5   24.38    2.82
  -4 -15  -5   22.21    2.62
   4 -15   6   48.19    3.85
   4 -15   6   42.98    3.61
  -4 -15  -6   47.75    3.73
   4 -15   7   26.01    2.98
   4 -15   7   26.35    2.91
  -4 -15  -7   26.55    2.92
   4 -15   8   35.17    3.49
   4 -15   8   31.00    3.24
  -4 -15  -8   33.33    3.28
   4 -15   9    0.70    1.36
   4 -15   9    2.92    1.33
  -4 -15  -9    3.27    1.43
   4 -15  10   11.83    2.38
   4 -15  10   13.91    2.48
   4 -15  11    4.02    1.67
   4 -15  11    4.89    1.90
   4 -15  12    6.16    2.29
   4 -15  13   -0.03    1.66
   4 -15  14    1.55    2.07
   4 -14 -16    4.78    1.90
   4 -14 -15   23.06    3.77
   4 -14 -14    5.07    2.16
   4 -14 -13   18.59    3.40
   4 -14 -12    8.89    2.28
   4 -14 -11   18.92    2.82
   4 -14 -10   22.45    3.00
   4 -14  -9   22.25    2.83
  -4 -14   9   21.94    3.11
   4 -14  -8   33.57    3.40
   4 -14  -8   33.98    3.48
  -4 -14   8   35.53    3.75
   4 -14  -8   36.46    3.66
   4 -14  -7   30.98    3.27
  -4 -14   7   28.47    3.26
   4 -14  -7   25.23    3.01
   4 -14  -6   71.18    4.62
  -4 -14   6   73.78    4.52
  -4 -14   6   72.67    5.06
   4 -14  -6   78.32    5.08
   4 -14  -5    0.78    1.06
  -4 -14   5    2.75    1.14
  -4 -14   5    2.28    1.48
   4 -14  -5    0.72    1.18
   4 -14  -4    7.81    1.60
  -4 -14   4    8.00    1.56
  -4 -14   4    8.02    1.84
   4 -14  -4    6.53    1.73
   4 -14  -3   36.58    3.09
  -4 -14   3   38.47    3.05
  -4 -14   3   38.96    3.44
   4 -14  -3   37.04    3.30
   4 -14  -2    4.88    1.30
  -4 -14   2    2.99    1.27
   4 -14  -2    4.22    1.23
   4 -14  -2    5.11    1.46
   4 -14  -1    0.63    0.94
  -4 -14   1    2.64    1.23
   4 -14  -1    1.31    1.20
   4 -14  -1   -0.11    0.89
   4 -14   0   49.99    3.52
  -4 -14   0   47.01    3.63
   4 -14   0   51.62    3.69
   4 -14   0   54.15    3.86
   4 -14   1   12.25    1.83
   4 -14   1   15.78    2.28
   4 -14   1   12.59    1.90
  -4 -14  -1   20.25    2.40
   4 -14   2   25.92    2.59
  -4 -14  -2   23.38    2.63
   4 -14   2   25.34    2.66
   4 -14   2   25.65    2.76
   4 -14   3   58.42    3.95
  -4 -14  -3   59.77    4.01
   4 -14   3   59.91    4.09
   4 -14   3   58.74    4.13
   4 -14   4    8.12    1.65
   4 -14   4    8.47    1.79
  -4 -14  -4    6.20    1.55
   4 -14   5   38.73    3.35
   4 -14   5   38.96    3.29
  -4 -14  -5   45.86    3.55
   4 -14   6    9.04    1.82
   4 -14   6    8.19    1.62
  -4 -14  -6    7.89    1.68
   4 -14   7   46.77    3.85
   4 -14   7   47.50    3.76
  -4 -14  -7   53.13    3.90
   4 -14   8    6.95    1.83
   4 -14   8    7.61    1.67
  -4 -14  -8    9.68    1.71
   4 -14   9   20.11    2.86
   4 -14   9   17.94    2.37
  -4 -14  -9   16.76    2.45
   4 -14  10    2.76    1.49
   4 -14  10    3.63    1.46
   4 -14  11   14.77    2.70
   4 -14  11   10.17    2.00
   4 -14  12    0.78    1.35
   4 -14  13   18.73    3.19
   4 -14  14    1.06    1.56
  -4 -14 -14    1.20    1.62
   4 -13 -16    3.67    2.08
   4 -13 -15   11.15    2.82
   4 -13 -14    3.94    1.87
   4 -13 -13    7.19    2.31
   4 -13 -12   25.68    3.55
   4 -13 -11   14.12    2.52
   4 -13 -10   66.93    5.01
   4 -13  -9   22.52    2.96
   4 -13  -8  160.18    7.48
   4 -13  -8  143.87    7.33
  -4 -13   8  169.99    8.06
   4 -13  -8  147.84    7.46
   4 -13  -7   22.11    2.74
  -4 -13   7   30.21    3.39
   4 -13  -7   25.65    2.95
   4 -13  -6  218.35    8.86
  -4 -13   6  226.68    8.65
  -4 -13   6  234.68    9.40
   4 -13  -6  241.86    9.35
   4 -13  -5   55.97    4.06
  -4 -13   5   54.51    3.81
  -4 -13   5   54.93    4.16
   4 -13  -5   56.69    4.11
   4 -13  -4  140.74    6.48
  -4 -13   4  139.85    6.27
  -4 -13   4  147.61    6.82
   4 -13  -4  135.15    6.42
  -4 -13   3   31.66    2.80
   4 -13  -3   30.88    2.82
  -4 -13   3   38.80    3.28
   4 -13  -3   36.99    3.16
   4 -13  -2  307.48   10.19
  -4 -13   2  320.72   10.22
  -4 -13   2  304.45   10.35
   4 -13  -2  289.31   10.03
   4 -13  -1  134.34    6.13
  -4 -13   1  142.42    6.35
   4 -13  -1  146.06    6.35
   4 -13  -1  134.04    6.23
   4 -13   0   41.00    3.24
  -4 -13   0   44.78    3.35
   4 -13   0   45.58    3.48
   4 -13   0   45.74    3.32
   4 -13   1   96.83    5.09
  -4 -13  -1  100.65    5.13
   4 -13   1   99.89    5.09
   4 -13   1   98.77    5.30
   4 -13   2   96.09    5.18
   4 -13   2  100.13    5.13
  -4 -13  -2  102.59    5.15
   4 -13   2  111.41    5.66
   4 -13   3   29.71    2.88
   4 -13   3   28.83    2.74
  -4 -13  -3   34.21    2.97
   4 -13   3   30.48    2.96
   4 -13   4  177.98    7.48
   4 -13   4  175.39    7.17
  -4 -13  -4  173.10    7.03
   4 -13   5   16.14    2.27
   4 -13   5   18.74    2.22
  -4 -13  -5   20.32    2.30
   4 -13   6   37.82    3.47
   4 -13   6   48.33    3.61
  -4 -13  -6   41.76    3.24
   4 -13   7   28.17    3.14
   4 -13   7   23.99    2.58
  -4 -13  -7   25.06    2.61
   4 -13   8   43.61    3.93
   4 -13   8   44.18    3.56
  -4 -13  -8   43.24    3.51
   4 -13   9   31.57    3.42
   4 -13   9   33.70    3.21
  -4 -13  -9   30.07    3.02
   4 -13  10   13.61    2.55
   4 -13  10   14.93    2.26
   4 -13  11   23.38    3.28
   4 -13  11   29.59    3.30
   4 -13  12   -0.73    1.35
   4 -13  12    2.39    1.57
   4 -13  13    8.34    2.36
  -4 -13 -13    7.99    2.41
   4 -13  14    7.17    2.89
  -4 -13 -14    2.44    2.46
   4 -12 -16   15.34    3.35
   4 -12 -15    3.56    2.03
   4 -12 -14   22.22    3.40
   4 -12 -13    3.47    1.99
   4 -12 -12    2.89    1.65
   4 -12 -11    3.95    1.82
   4 -12 -10   -1.09    1.57
   4 -12  -9    1.92    1.54
   4 -12  -9    1.36    1.50
   4 -12  -8   34.89    3.45
   4 -12  -7    6.87    1.65
  -4 -12   7    9.15    1.93
   4 -12  -7    5.05    1.48
   4 -12  -6    6.53    1.59
  -4 -12   6    8.43    1.62
  -4 -12   6    3.55    1.23
   4 -12  -6    5.94    1.56
   4 -12  -5   64.70    4.29
  -4 -12   5   60.27    3.99
  -4 -12   5   60.62    4.27
   4 -12  -5   67.31    4.34
   4 -12  -4   23.81    2.57
  -4 -12   4   24.10    2.51
  -4 -12   4   21.35    2.52
   4 -12  -4   28.59    2.72
  -4 -12   3   59.17    3.85
   4 -12  -3   55.24    3.84
  -4 -12   3   60.27    3.99
   4 -12  -3   56.45    3.79
  -4 -12   2   17.11    2.16
   4 -12  -2   15.56    2.05
  -4 -12   2   17.48    2.17
   4 -12  -2   15.92    2.04
   4 -12  -1   42.37    3.25
  -4 -12   1   42.91    3.23
   4 -12  -1   45.41    3.40
   4 -12  -1   42.49    3.16
   4 -12   0   18.31    2.21
  -4 -12   0   23.18    2.33
   4 -12   0   20.38    2.16
   4 -12   0   20.99    2.43
   4 -12   1   43.80    3.36
  -4 -12  -1   48.46    3.32
   4 -12   1   47.89    3.30
   4 -12   1   39.44    3.28
   4 -12   2   15.50    2.08
  -4 -12  -2   17.51    2.09
   4 -12   2   19.31    2.16
   4 -12   2   17.41    2.22
   4 -12   3   24.46    2.57
   4 -12   3   28.26    2.56
  -4 -12  -3   29.23    2.57
   4 -12   3   33.31    3.04
   4 -12   4   91.00    5.14
   4 -12   4   93.80    4.78
  -4 -12  -4   99.98    4.83
   4 -12   4   93.14    5.42
   4 -12   5   14.78    2.23
   4 -12   5   11.81    1.76
  -4 -12  -5   16.34    1.97
   4 -12   6   84.69    5.17
   4 -12   6   84.55    4.62
  -4 -12  -6   86.91    4.57
   4 -12   7    5.11    1.66
   4 -12   7    3.84    1.29
  -4 -12  -7    4.50    1.33
   4 -12   8   26.90    3.10
   4 -12   8   27.88    2.82
  -4 -12  -8   30.93    2.86
   4 -12   9    0.50    1.41
   4 -12   9    3.90    1.25
   4 -12  10   45.91    4.25
   4 -12  10   43.15    3.68
   4 -12  11    0.32    1.41
   4 -12  11   -0.11    1.44
   4 -12  12   19.02    3.17
   4 -12  12   17.50    2.60
  -4 -12 -12   11.39    2.60
  -4 -12 -13    4.51    2.25
  -4 -12 -14   20.15    3.56
   4 -11 -16    0.67    1.91
   4 -11 -15   13.17    3.04
   4 -11 -14    6.88    2.39
   4 -11 -13   25.04    3.61
   4 -11 -12   17.26    2.80
   4 -11 -11   15.47    2.67
   4 -11 -10   14.01    2.40
   4 -11  -9   39.10    3.87
   4 -11  -9   44.65    3.91
   4 -11  -8    1.41    1.05
   4 -11  -7   39.32    3.50
   4 -11  -7   38.06    3.40
   4 -11  -6   72.00    4.58
  -4 -11   6   70.04    4.38
  -4 -11   6   69.24    4.53
   4 -11  -6   65.23    4.29
   4 -11  -5   34.24    3.20
  -4 -11   5   35.32    3.17
  -4 -11   5   41.41    3.52
   4 -11  -5   34.62    2.99
  -4 -11   4   11.00    1.75
   4 -11  -4   11.15    1.83
  -4 -11   4    8.06    1.64
   4 -11  -4    8.72    1.55
   4 -11  -3  135.74    6.15
  -4 -11   3  137.09    6.07
  -4 -11   3  130.16    5.89
   4 -11  -3  132.00    5.80
   4 -11  -2  183.20    7.41
  -4 -11   2  200.03    7.56
  -4 -11   2  187.56    7.20
   4 -11  -2  194.79    7.17
   4 -11  -1   26.64    2.53
  -4 -11   1   30.59    2.61
   4 -11  -1   28.55    2.74
   4 -11  -1   26.63    2.41
   4 -11   0  109.36    5.45
  -4 -11   0  119.46    5.23
   4 -11   0  113.53    5.09
   4 -11   0  120.10    5.76
   4 -11   1   49.43    3.56
   4 -11   1   51.38    3.24
  -4 -11  -1   53.60    3.32
   4 -11   1   48.68    3.64
   4 -11   2  109.49    5.56
   4 -11   2  115.84    5.11
  -4 -11  -2  124.45    5.25
   4 -11   2  127.12    6.09
   4 -11   3  130.26    6.14
   4 -11   3  130.58    5.47
  -4 -11  -3  127.36    5.36
   4 -11   3  127.04    6.28
   4 -11   4   17.61    2.38
   4 -11   4   20.91    2.50
   4 -11   4   18.77    1.97
  -4 -11  -4   16.01    1.87
   4 -11   5   38.86    3.37
   4 -11   5   33.25    2.67
  -4 -11  -5   38.96    2.85
   4 -11   6   10.22    1.97
   4 -11   6    8.38    1.53
  -4 -11  -6    9.00    1.66
   4 -11   7   42.93    3.76
   4 -11   7   39.41    3.03
  -4 -11  -7   37.95    2.90
   4 -11   8   15.70    2.42
   4 -11   8   10.86    1.77
  -4 -11  -8   12.59    1.88
   4 -11   9   18.97    2.88
   4 -11   9   16.46    2.21
   4 -11  10    2.23    1.40
   4 -11  10    5.35    1.60
   4 -11  11   23.78    3.42
   4 -11  11   15.59    2.30
  -4 -11 -11   20.80    3.14
   4 -11  12    3.14    1.43
  -4 -11 -12    2.31    1.78
  -4 -11 -13    3.13    2.06
  -4 -11 -14    5.78    1.97
   4 -10 -16   33.74    4.44
   4 -10 -15    4.71    1.99
   4 -10 -14   17.40    4.73
   4 -10 -13   13.15    2.67
   4 -10 -12   40.79    4.23
   4 -10 -11   34.04    3.68
   4 -10 -10   72.20    5.19
   4 -10  -9   15.90    2.47
   4 -10  -8   48.63    4.06
   4 -10  -7    6.12    1.58
  -4 -10   6  344.97   11.30
   4 -10  -6  342.01   11.54
   4 -10  -6  349.23   11.15
   4 -10  -5   55.16    3.96
  -4 -10   5   56.31    3.86
  -4 -10   5   60.35    3.94
   4 -10  -5   52.59    3.65
   4 -10  -4   25.90    2.66
  -4 -10   4   31.74    2.85
  -4 -10   4   26.03    2.54
   4 -10  -4   26.28    2.45
  -4 -10   3   23.70    2.43
   4 -10  -3   23.62    2.49
  -4 -10   3   22.99    2.36
   4 -10  -3   20.58    2.13
  -4 -10   2  235.77    8.35
   4 -10  -2  225.07    8.34
  -4 -10   2  234.57    7.94
   4 -10  -2  221.78    7.65
   4 -10  -1    6.67    1.34
  -4 -10   1   10.47    1.80
  -4 -10   1    8.75    1.45
   4 -10  -1    7.39    1.36
   4 -10   0  110.31    5.38
  -4 -10   0  109.53    4.79
   4 -10   0  105.58    4.67
   4 -10   0  106.11    5.42
   4 -10   1   11.82    1.85
  -4 -10  -1   10.97    1.48
   4 -10   1   11.53    1.89
   4 -10   1   10.56    1.47
   4 -10   2    9.47    1.71
  -4 -10  -2    8.21    1.35
   4 -10   2    7.93    1.30
   4 -10   2    6.87    1.47
   4 -10   3   73.74    4.43
  -4 -10  -3   71.71    3.68
   4 -10   3   70.48    3.67
   4 -10   3   67.45    4.48
   4 -10   4   17.40    2.30
   4 -10   4   18.98    1.95
   4 -10   4   19.12    2.44
  -4 -10  -4   20.80    2.01
   4 -10   5  128.05    6.32
   4 -10   5  125.35    5.26
  -4 -10  -5  130.71    5.22
   4 -10   6   20.12    2.54
   4 -10   6   20.96    2.13
  -4 -10  -6   23.10    2.11
   4 -10   7   50.24    4.04
   4 -10   7   48.43    3.31
  -4 -10  -7   50.02    3.23
   4 -10   8   10.77    2.09
   4 -10   8   10.45    1.76
   4 -10   9   96.54    6.09
   4 -10   9   99.19    5.10
   4 -10  10    0.75    1.47
   4 -10  10   -0.90    1.06
  -4 -10 -10   -0.62    1.48
   4 -10  11   35.61    3.30
  -4 -10 -11   35.18    3.99
   4 -10  12   36.07    3.33
  -4 -10 -12   35.70    4.17
  -4 -10 -13   24.82    3.84
  -4 -10 -14    3.05    2.03
   4  -9 -16    8.59    2.53
   4  -9 -15    4.18    2.05
   4  -9 -14   65.80    5.74
   4  -9 -13    4.94    1.99
   4  -9 -12   77.14    5.72
   4  -9 -11    6.16    1.80
   4  -9 -10   49.52    4.27
   4  -9 -10   52.28    4.34
   4  -9  -9   11.33    2.19
   4  -9  -8   66.11    4.68
   4  -9  -7   35.66    3.32
  -4  -9   6  410.18   12.73
   4  -9  -6  409.94   12.93
  -4  -9   5   16.45    2.10
   4  -9  -5   14.54    2.06
   4  -9  -5   17.08    2.04
   4  -9  -4  474.37   13.81
  -4  -9   4  464.07   13.62
  -4  -9   4  468.10   13.12
   4  -9  -4  467.88   12.93
  -4  -9   3  229.58    8.40
   4  -9  -3  230.82    8.47
  -4  -9   3  228.15    7.83
   4  -9  -3  233.70    7.75
  -4  -9   2  458.96   13.06
   4  -9  -2  430.40   12.92
  -4  -9   2  456.70   12.19
   4  -9  -2  429.02   11.83
   4  -9  -1   12.00    1.74
  -4  -9   1    7.23    1.41
  -4  -9   1   12.82    1.62
   4  -9  -1   10.66    1.42
   4  -9   0  514.19   14.91
  -4  -9   0  558.60   13.90
   4  -9   0  589.73   15.65
   4  -9   0  536.77   13.69
   4  -9   1   25.12    2.51
  -4  -9  -1   30.02    2.21
   4  -9   1   31.35    2.85
   4  -9   1   28.71    2.16
   4  -9   2  361.08   11.60
  -4  -9  -2  381.22   10.23
   4  -9   2  376.25   10.18
   4  -9   2  373.98   11.97
   4  -9   3  174.58    7.27
   4  -9   3  170.19    7.11
   4  -9   3  168.25    5.92
   4  -9   3  189.14    7.76
  -4  -9  -3  173.69    5.92
   4  -9   4  229.96    8.73
   4  -9   4  220.22    8.61
   4  -9   4  222.58    7.18
  -4  -9  -4  220.47    7.01
   4  -9   4  243.01    9.15
   4  -9   5  107.83    5.80
   4  -9   5  117.19    4.78
  -4  -9  -5  116.49    4.68
   4  -9   6  135.61    6.81
   4  -9   6  155.82    5.81
  -4  -9  -6  159.67    5.77
   4  -9   7   18.50    2.58
   4  -9   7   20.40    2.04
   4  -9   8   32.14    3.40
   4  -9   8   46.23    3.13
   4  -9   9   26.22    3.23
   4  -9   9   23.54    2.36
   4  -9  10   56.82    4.77
   4  -9  10   59.08    3.90
  -4  -9 -10   56.20    5.01
   4  -9  11    1.69    1.06
  -4  -9 -11    1.45    1.52
   4  -9  12   54.58    3.97
  -4  -9 -12   52.95    4.93
   4  -9  13    8.47    1.83
  -4  -9 -13    2.78    1.57
  -4  -9 -14    7.96    2.38
   4  -8 -17   20.04    3.77
   4  -8 -16   10.35    2.44
   4  -8 -15   35.57    4.49
   4  -8 -14    3.84    1.95
   4  -8 -13   79.91    6.05
   4  -8 -12   14.42    2.60
   4  -8 -11   75.28    5.39
   4  -8 -10   29.63    3.42
   4  -8 -10   27.33    3.17
   4  -8  -9   81.19    5.35
   4  -8  -8   20.39    2.57
   4  -8  -7   29.49    3.04
  -4  -8   6   22.04    2.48
   4  -8  -6   22.48    2.59
   4  -8  -5   68.13    4.36
  -4  -8   5   71.49    4.35
   4  -8  -4    1.50    0.97
  -4  -8   4    2.34    1.07
  -4  -8   4    1.36    0.93
   4  -8  -4    1.95    0.95
  -4  -8   3   69.94    4.20
   4  -8  -3   71.10    4.33
  -4  -8   3   66.41    3.67
   4  -8  -3   66.19    3.55
  -4  -8   2    7.97    1.48
   4  -8  -2    5.46    1.38
  -4  -8   2    4.93    0.95
   4  -8  -2    4.56    1.04
   4  -8  -1    5.81    1.35
  -4  -8   1    5.08    1.25
  -4  -8   1    7.05    1.22
   4  -8  -1    4.71    0.91
   4  -8   0    5.48    1.17
  -4  -8   0    7.37    1.19
   4  -8   0    9.96    1.67
   4  -8   0    8.21    1.20
   4  -8   1   12.91    1.89
   4  -8   1   11.59    1.33
   4  -8   1   12.75    1.82
  -4  -8  -1   14.12    1.46
   4  -8   2   21.03    2.40
   4  -8   2   16.60    2.00
  -4  -8  -2   16.95    1.55
   4  -8   2   15.65    1.47
   4  -8   2   16.76    2.15
   4  -8   3   15.84    2.14
   4  -8   3   19.43    2.26
   4  -8   3   20.15    1.70
   4  -8   3   24.02    2.65
  -4  -8  -3   18.34    1.57
   4  -8   4   31.29    2.97
   4  -8   4   31.73    2.89
   4  -8   4   32.35    2.20
  -4  -8  -4   29.33    2.04
   4  -8   4   34.44    3.27
   4  -8   5   37.16    3.31
   4  -8   5   38.97    2.43
  -4  -8  -5   39.41    2.42
   4  -8   6    2.89    1.35
   4  -8   6    3.40    0.97
  -4  -8  -6    3.88    0.99
   4  -8   7    5.17    1.57
   4  -8   7    4.90    1.12
   4  -8   8    0.28    1.09
   4  -8   8    2.11    0.95
   4  -8   9    2.29    1.38
   4  -8   9    1.55    0.93
  -4  -8  -9    5.28    1.87
   4  -8  10    5.80    1.38
  -4  -8 -10    8.27    2.10
   4  -8  11   20.06    2.27
  -4  -8 -11   22.71    3.29
   4  -8  12    1.79    1.12
  -4  -8 -12   -1.58    1.51
   4  -8  13   15.10    2.36
  -4  -8 -13   16.99    3.13
  -4  -8 -14    7.90    2.44
   4  -7 -17   24.68    4.13
   4  -7 -16   14.95    2.99
   4  -7 -15   41.04    4.78
   4  -7 -14   29.69    3.91
   4  -7 -13  156.63    8.52
   4  -7 -12   84.51    5.90
   4  -7 -11  115.59    6.77
   4  -7 -10   66.38    4.96
   4  -7 -10   67.70    4.94
   4  -7  -9    7.24    1.89
   4  -7  -8  101.32    5.76
   4  -7  -7  413.75   13.28
  -4  -7   6  322.73   10.64
   4  -7  -6  297.24   10.57
   4  -7  -5  314.25   10.68
  -4  -7   5  325.35   10.62
  -4  -7   4  509.63   14.48
   4  -7  -4  511.46   14.64
  -4  -7   3  308.96   10.10
   4  -7  -3  304.24   10.13
  -4  -7   3  295.57    8.90
   4  -7  -3  307.90    8.84
   4  -7  -2  316.89   10.13
  -4  -7   2  310.24   10.04
  -4  -7   2  281.37    8.53
   4  -7  -2  313.13    8.63
  -4  -7   1  455.69   13.12
   4  -7  -1  442.95   13.09
  -4  -7   1  467.00   11.52
   4  -7  -1  439.32   11.25
   4  -7   0  146.18    6.37
  -4  -7   0  148.88    5.02
   4  -7   0  159.82    6.73
   4  -7   0  148.33    4.95
   4  -7   1  280.27    9.59
  -4  -7  -1  286.64    7.72
   4  -7   1  277.55    7.58
   4  -7   1  287.24    9.80
   4  -7   2  192.70    7.67
   4  -7   2  200.75    7.27
   4  -7   2  197.16    5.83
  -4  -7  -2  199.99    5.87
   4  -7   2  206.56    8.05
   4  -7   3  245.38    9.12
   4  -7   3  264.86    8.93
   4  -7   3  247.78    7.03
  -4  -7  -3  262.78    7.07
   4  -7   3  275.89    9.74
   4  -7   4  190.99    7.89
   4  -7   4  200.08    7.74
   4  -7   4  197.04    5.97
  -4  -7  -4  199.82    5.88
   4  -7   4  207.68    8.38
   4  -7   5   73.66    4.70
   4  -7   5   81.28    4.74
   4  -7   5   72.92    3.24
  -4  -7  -5   74.46    3.24
   4  -7   6   71.39    4.74
   4  -7   6   75.24    3.42
   4  -7   7   33.06    3.32
   4  -7   7   33.01    2.32
   4  -7   8   16.16    2.55
   4  -7   8   19.99    1.94
   4  -7   9   56.50    4.63
   4  -7   9   66.03    3.65
  -4  -7  -9   66.18    4.99
   4  -7  10   42.11    3.03
  -4  -7 -10   37.60    3.91
   4  -7  11    8.86    1.67
  -4  -7 -11   10.38    2.37
  -4  -7 -12   20.09    3.32
  -4  -7 -13   36.30    4.34
  -4  -7 -14   17.38    3.20
  -4  -7 -15   -1.95    1.86
   4  -6 -17    1.64    1.95
   4  -6 -16   17.63    3.43
   4  -6 -15    5.28    2.12
   4  -6 -14   17.05    3.03
   4  -6 -13    4.62    1.87
   4  -6 -12   54.43    4.71
   4  -6 -11    5.59    1.87
   4  -6 -10   72.69    5.17
   4  -6  -9   19.78    2.68
   4  -6  -8    3.04    1.30
  -4  -6   7   15.69    2.16
   4  -6  -7   15.69    2.27
   4  -6  -6   55.98    4.01
  -4  -6   6   64.53    4.15
   4  -6  -5  129.88    6.23
  -4  -6   5  148.09    6.46
   4  -6  -4   33.20    2.97
  -4  -6   4   34.10    2.90
   4  -6  -3    0.80    0.97
  -4  -6   3    0.64    0.82
  -4  -6   3   -0.95    0.82
  -4  -6   2    6.62    1.34
   4  -6  -2    7.34    1.63
  -4  -6   2    6.84    1.08
   4  -6  -2    5.38    0.97
   4  -6  -1   16.78    2.02
  -4  -6   1   15.89    1.95
  -4  -6   1   22.31    1.67
   4  -6  -1   18.65    1.50
  -4  -6   0   22.77    2.42
   4  -6   0   19.59    2.25
  -4  -6   0   21.39    1.55
   4  -6   0   21.13    1.51
   4  -6   0   20.04    2.30
   4  -6   1   55.23    3.72
   4  -6   1   55.01    3.24
  -4  -6  -1   55.52    2.46
   4  -6   1   60.08    3.94
   4  -6   1   55.04    2.40
   4  -6   2   16.14    2.07
   4  -6   2   17.13    1.85
   4  -6   2   17.14    2.21
   4  -6   2   14.46    1.13
  -4  -6  -2   18.74    1.32
   4  -6   3   54.73    3.83
   4  -6   3   56.84    3.57
   4  -6   3   53.42    2.34
  -4  -6  -3   55.96    2.38
   4  -6   3   59.58    4.10
   4  -6   4   21.29    2.55
   4  -6   4   21.69    1.50
   4  -6   4   23.65    2.41
  -4  -6  -4   22.11    1.48
   4  -6   4   24.08    2.67
   4  -6   5   22.23    2.61
   4  -6   5   24.62    2.54
   4  -6   5   22.65    1.62
   4  -6   6   73.11    4.72
   4  -6   6   71.30    3.15
   4  -6   7   25.24    2.87
   4  -6   7   24.28    1.90
   4  -6   8    3.66    1.60
   4  -6   8    2.38    0.92
  -4  -6  -8    1.42    1.16
   4  -6   9    3.58    1.18
  -4  -6  -9    2.45    1.41
   4  -6  10   27.72    2.41
  -4  -6 -10   28.88    3.43
  -4  -6 -11   -2.50    1.75
  -4  -6 -12   40.04    4.34
  -4  -6 -13   38.63    4.60
  -4  -6 -14    5.09    2.25
  -4  -6 -15    4.23    2.07
   4  -5 -17   13.11    3.08
   4  -5 -16    4.92    1.86
   4  -5 -15   50.17    4.99
   4  -5 -14   30.12    3.93
   4  -5 -13  124.99    7.54
   4  -5 -12   86.28    5.98
   4  -5 -11   56.55    4.64
   4  -5 -10   11.35    2.33
   4  -5  -9   29.19    3.20
   4  -5  -8  242.44    9.53
   4  -5  -7  125.53    6.40
  -4  -5   7  147.05    6.66
  -4  -5   6  102.36    5.41
   4  -5  -6  101.83    5.48
   4  -5  -5  611.81   16.73
  -4  -5   5  596.92   16.53
  -4  -5   4  155.86    6.63
   4  -5  -4  154.74    6.68
  -4  -5   3  457.53   13.13
   4  -5  -3  427.68   12.91
   4  -5  -2  133.58    6.08
  -4  -5   2  143.71    6.21
  -4  -5   2  145.17    4.83
  -4  -5   1  275.52    9.14
   4  -5  -1  269.78    9.09
  -4  -5   1  252.59    6.98
   4  -5   0  154.19    6.49
  -4  -5   0  161.04    6.63
   4  -5   0  146.12    5.32
  -4  -5   0  149.44    4.46
   4  -5   0  149.45    4.39
   4  -5   1  594.24   16.20
   4  -5   1  571.63   14.78
  -4  -5  -1  596.95   13.07
   4  -5   1  634.16   16.60
   4  -5   1  602.67   12.99
   4  -5   2   52.23    3.69
   4  -5   2   56.39    3.33
  -4  -5  -2   54.26    2.08
   4  -5   2   55.76    2.07
   4  -5   2   55.80    3.85
   4  -5   3  253.87    9.23
   4  -5   3  256.71    8.56
   4  -5   3  256.67    6.26
   4  -5   3  274.66    9.71
  -4  -5  -3  261.11    6.30
   4  -5   4   30.17    2.97
   4  -5   4   36.93    2.95
   4  -5   4   32.35    1.62
   4  -5   4   36.62    3.24
   4  -5   5  376.90   12.10
   4  -5   5  357.39    8.76
   4  -5   5  387.53   11.73
   4  -5   6   20.19    2.53
   4  -5   6   21.47    1.55
   4  -5   7   99.35    5.70
   4  -5   7   89.02    3.64
   4  -5   8   56.50    4.57
   4  -5   8   57.73    3.04
  -4  -5  -8   65.51    4.79
   4  -5   9   22.64    2.07
  -4  -5  -9   20.18    2.82
  -4  -5 -10    5.76    1.94
  -4  -5 -11   91.32    6.27
  -4  -5 -12   51.27    4.85
  -4  -5 -13   18.81    3.42
  -4  -5 -14   -7.92    2.33
  -4  -5 -15   -0.61    1.64
   4  -4 -17   28.27    4.15
   4  -4 -16    6.69    2.46
   4  -4 -15   52.19    5.19
   4  -4 -14    2.25    1.78
   4  -4 -13   67.91    5.53
   4  -4 -12    2.47    1.49
   4  -4 -11  218.34    9.78
   4  -4 -11  228.98    9.82
   4  -4 -10    8.56    2.14
   4  -4  -9   22.96    2.95
   4  -4  -8  150.25    7.14
   4  -4  -7   36.19    3.29
  -4  -4   7   43.26    3.51
  -4  -4   6   95.52    5.12
   4  -4  -6   72.23    4.64
   4  -4  -5   13.82    2.07
  -4  -4   5   12.53    1.84
  -4  -4   4    5.86    1.24
   4  -4  -4    4.64    1.25
  -4  -4   3  146.42    6.33
   4  -4  -3  142.21    6.28
   4  -4  -2  137.05    6.11
  -4  -4   2  143.37    6.20
  -4  -4   2  137.42    4.52
   4  -4  -1    5.10    1.33
  -4  -4   1   10.88    1.70
  -4  -4   1    6.73    0.83
   4  -4  -1    8.14    1.10
   4  -4   0    8.35    1.60
  -4  -4   0    8.01    1.41
   4  -4   0    9.54    1.23
  -4  -4   0   11.07    0.90
   4  -4   1    7.81    1.61
   4  -4   1    9.17    1.30
  -4  -4  -1   11.17    0.79
   4  -4   1    8.88    1.61
   4  -4   2   89.87    4.86
   4  -4   2   90.38    4.22
   4  -4   2   87.27    4.89
  -4  -4  -2   86.98    2.39
   4  -4   2   86.66    2.34
   4  -4   3   12.49    1.90
   4  -4   3   13.06    1.66
   4  -4   3   14.24    0.74
   4  -4   3   14.48    2.02
   4  -4   4   45.05    3.52
   4  -4   4   44.23    1.60
   4  -4   4   41.39    3.06
   4  -4   4   47.37    3.71
   4  -4   5   48.62    3.77
   4  -4   5   47.03    1.88
   4  -4   6   78.27    4.89
   4  -4   6   76.57    2.85
   4  -4   7   79.48    5.14
   4  -4   7   84.16    3.30
   4  -4   8    6.42    1.68
   4  -4   8    7.52    1.11
  -4  -4  -8   10.77    2.11
  -4  -4  -9    4.55    1.60
  -4  -4 -10   17.52    2.77
  -4  -4 -11   50.17    4.62
  -4  -4 -12   20.40    3.27
  -4  -4 -13   35.97    4.19
  -4  -4 -14    5.17    2.02
  -4  -4 -15    7.13    2.49
   4  -3 -17   12.29    3.01
   4  -3 -16   20.78    3.56
   4  -3 -15   11.35    2.84
   4  -3 -14   73.57    5.89
   4  -3 -13   62.89    5.27
   4  -3 -12  213.84    9.77
   4  -3 -11   47.67    4.42
   4  -3 -11   55.21    4.60
   4  -3 -10   77.45    5.33
   4  -3  -9    1.84    1.39
   4  -3  -8  412.27   13.36
   4  -3  -7   90.90    5.34
  -4  -3   7   94.70    5.31
  -4  -3   6  653.11   17.46
   4  -3  -6  618.88   17.46
   4  -3  -5   21.81    2.46
  -4  -3   5   25.91    2.63
  -4  -3   4  920.03   22.25
   4  -3  -4  860.42   22.10
  -4  -3   3   42.64    3.23
   4  -3  -3   39.28    3.08
   4  -3  -2  983.68   24.03
  -4  -3   2 1012.13   24.13
   4  -3  -1    1.81    0.96
  -4  -3   1    0.30    0.90
  -4  -3   1    1.39    0.48
   4  -3  -1    2.67    0.69
  -4  -3   0  416.68   12.34
   4  -3   0  400.20   12.19
   4  -3   0  392.43   10.40
  -4  -3   0  420.08    8.92
   4  -3   1   13.06    1.89
   4  -3   1   10.13    1.33
   4  -3   1   12.78    1.92
   4  -3   2  496.08   14.22
   4  -3   2  480.29   12.84
   4  -3   2  524.55   14.61
   4  -3   3    2.80    1.14
   4  -3   3    5.79    1.43
   4  -3   4  318.43   10.86
   4  -3   4  340.62   11.37
   4  -3   5   18.61    2.37
   4  -3   5   17.96    0.89
   4  -3   5   17.03    0.86
   4  -3   6  178.84    7.75
   4  -3   6  176.05    4.71
   4  -3   6  175.74    4.62
   4  -3   7   13.36    2.31
   4  -3   7    7.17    0.92
  -4  -3  -8   65.12    4.78
   4  -3   8   60.96    2.79
  -4  -3  -9    1.78    1.47
   4  -3   9    2.24    0.79
  -4  -3 -10   78.88    5.75
   4  -3  10   80.52    3.77
  -4  -3 -11   14.04    2.75
   4  -3  11    9.68    1.56
  -4  -3 -12   35.46    4.15
  -4  -3 -13    2.09    1.72
  -4  -3 -14   13.30    2.85
  -4  -3 -15   -3.49    2.06
   4  -2 -17   12.03    2.94
   4  -2 -16    0.72    1.63
   4  -2 -15   38.69    4.40
   4  -2 -14   18.83    3.13
   4  -2 -13  166.41    8.74
   4  -2 -12   18.27    2.90
   4  -2 -11  103.74    6.51
   4  -2 -11  112.60    6.55
   4  -2 -10    4.81    1.68
   4  -2  -9  162.12    7.67
   4  -2  -8   80.28    5.06
   4  -2  -7   11.54    1.93
  -4  -2   7    7.70    1.66
   4  -2  -6   12.26    1.99
  -4  -2   6   14.08    1.98
   4  -2  -5   34.92    3.14
  -4  -2   5   37.78    3.14
  -4  -2   4   28.40    2.68
   4  -2  -4   25.99    2.62
  -4  -2   3   26.94    2.60
   4  -2  -3   24.64    2.52
  -4  -2   2   40.66    3.14
   4  -2  -2   38.02    3.06
   4  -2  -2   35.80    1.78
  -4  -2   1   72.39    4.20
   4  -2  -1   73.07    4.23
   4  -2  -1   70.14    2.90
  -4  -2   1   71.97    2.39
  -4  -2   0   69.05    4.10
   4  -2   0   65.07    4.00
   4  -2   0   63.04    2.96
   4  -2   1    8.25    1.53
   4  -2   1    8.28    1.50
   4  -2   2   14.57    2.06
   4  -2   2   12.38    1.94
   4  -2   3  117.42    5.77
   4  -2   3  119.55    5.95
   4  -2   4   33.60    3.07
   4  -2   4   36.75    3.26
   4  -2   5  173.18    7.43
   4  -2   6  114.64    5.99
   4  -2   6  107.94    3.05
   4  -2   6  105.24    2.98
   4  -2   7  158.07    7.50
   4  -2   7  161.64    4.55
  -4  -2  -8   16.98    2.47
   4  -2   8   16.54    1.34
   4  -2   9   24.54    1.80
  -4  -2  -9   25.77    3.15
  -4  -2 -10   41.10    4.05
   4  -2  10   42.05    2.61
  -4  -2 -11   83.91    5.99
   4  -2  11   68.93    3.69
  -4  -2 -12   10.17    2.42
  -4  -2 -13   35.37    4.17
  -4  -2 -14   14.62    2.98
  -4  -2 -15   19.52    3.34
   4  -1 -17   14.65    3.04
   4  -1 -16    5.41    2.44
   4  -1 -15   41.32    4.60
   4  -1 -14   16.73    3.06
   4  -1 -13   70.75    5.49
   4  -1 -12    4.01    1.74
   4  -1 -11   43.26    4.13
   4  -1 -11   48.27    4.25
   4  -1 -10   21.62    2.79
   4  -1  -9   74.89    5.03
   4  -1  -8   16.67    2.48
  -4  -1   7  195.92    8.05
   4  -1  -7  205.34    8.30
  -4  -1   6   37.36    3.15
   4  -1  -6   38.40    3.25
   4  -1  -5  151.70    6.67
  -4  -1   5  147.55    6.52
  -4  -1   4  352.74   10.96
   4  -1  -4  322.67   10.75
  -4  -1   3  321.79   10.42
   4  -1  -3  325.27   10.48
   4  -1  -2   19.36    2.24
  -4  -1   2   20.16    2.21
   4  -1  -2   20.43    1.27
  -4  -1   2   19.18    1.24
  -4  -1   1  266.03    8.94
   4  -1  -1  256.82    8.88
   4  -1  -1  258.92    6.82
  -4  -1   1  251.08    5.86
  -4  -1   0   88.95    4.72
   4  -1   0   78.99    4.49
   4  -1   1  137.05    6.13
   4  -1   1  140.54    6.27
   4  -1   2   47.46    3.48
   4  -1   2   47.90    3.54
   4  -1   3  227.26    8.53
   4  -1   3  234.02    8.80
   4  -1   4    5.42    1.49
   4  -1   4    8.26    1.67
   4  -1   5  286.48   10.16
   4  -1   6   49.27    3.91
   4  -1   6   55.12    1.81
   4  -1   6   58.81    1.82
   4  -1   7   82.92    5.24
   4  -1   7   77.34    2.68
  -4  -1  -8    3.63    1.52
   4  -1   8    3.82    0.72
  -4  -1  -9  103.18    6.30
   4  -1   9  101.01    3.88
   4  -1  10    8.60    1.20
  -4  -1 -10    8.65    2.19
  -4  -1 -11   51.59    4.77
   4  -1  11   60.86    3.37
  -4  -1 -12   12.24    2.66
  -4  -1 -13    8.57    2.37
  -4  -1 -14    4.24    1.79
  -4  -1 -15    1.52    1.65
   4   0 -17    1.20    1.74
   4   0 -16   37.95    4.63
   4   0 -15   -1.31    1.43
   4   0 -14   56.31    5.13
   4   0 -13    3.09    1.80
   4   0 -12  150.44    7.98
   4   0 -11    0.85    1.32
   4   0 -11    3.10    1.54
   4   0 -10  147.83    7.54
   4   0  -9    2.01    1.28
   4   0  -8   11.85    2.16
  -4   0   7    6.52    1.55
   4   0  -7    7.78    1.76
   4   0  -6  202.27    8.11
  -4   0   6  203.44    8.00
   4   0  -5   17.75    2.21
  -4   0   5   16.02    2.11
  -4   0   5   14.81    1.51
  -4   0   4    0.43    0.86
   4   0  -4    1.34    1.10
  -4   0   4   -0.09    0.61
  -4   0   3   81.44    4.52
   4   0  -3   80.00    4.51
   4   0  -3   80.85    2.29
  -4   0   3   71.93    2.96
  -4   0   2   15.49    1.98
   4   0  -2   16.54    2.11
  -4   0   2   17.46    1.16
   4   0  -1   25.50    2.49
  -4   0   1   23.06    2.34
  -4   0   1   22.10    1.05
  -4   0   0  852.82   21.02
   4   0   0  826.59   20.90
   4   0   1   -0.10    1.13
   4   0   1    1.93    1.00
   4   0   2    7.00    1.47
   4   0   2   13.15    1.90
   4   0   3    1.33    1.01
   4   0   3    1.52    1.01
   4   0   4   39.98    3.31
   4   0   4   43.61    3.58
   4   0   5   -0.65    1.14
   4   0   6   87.78    5.23
   4   0   6   89.48    2.44
   4   0   7    6.06    1.72
   4   0   7    6.74    0.75
   4   0   8   10.33    1.06
  -4   0  -8    9.06    1.95
   4   0   9    4.96    0.82
  -4   0  -9    4.79    1.63
   4   0  10   10.75    1.33
  -4   0 -10   12.32    2.41
   4   0  11   -0.27    0.89
  -4   0 -11   -1.32    1.37
  -4   0 -12   71.28    5.76
  -4   0 -13   -0.62    1.56
  -4   0 -14   22.38    3.52
  -4   0 -15    2.06    1.57
   4   1 -17   10.51    2.81
   4   1 -16    7.07    2.48
   4   1 -15   44.54    4.68
   4   1 -14   18.64    3.18
   4   1 -13   71.79    5.57
   4   1 -12    3.60    1.61
   4   1 -11   49.07    4.41
   4   1 -11   46.06    4.15
   4   1 -10   16.94    2.62
  -4   1  10   16.38    2.14
   4   1  -9   78.03    5.14
  -4   1   9   83.33    4.59
   4   1  -8   18.82    2.49
  -4   1   8   17.03    2.04
  -4   1   7  209.69    8.31
   4   1  -7  205.61    8.40
  -4   1   7  203.89    7.19
   4   1  -6   40.10    3.37
  -4   1   6   33.88    2.97
  -4   1   6   34.65    2.46
   4   1  -5  146.61    6.53
  -4   1   5  158.55    6.69
  -4   1   5  142.22    5.20
  -4   1   4  337.91   10.70
   4   1  -4  332.65   10.71
  -4   1   4  319.38    8.63
  -4   1   3  332.22   10.33
   4   1  -3  305.56   10.08
  -4   1   3  298.07    7.83
  -4   1   2   19.03    2.23
   4   1  -2   18.10    2.16
  -4   1   2   18.21    1.19
  -4   1   1  264.81    8.92
   4   1  -1  248.52    8.70
  -4   1   1  249.22    5.82
  -4   1   0   87.01    4.69
   4   1   0   81.68    4.55
   4   1   1  137.53    6.14
   4   1   1  144.14    6.32
   4   1   2   50.18    3.63
   4   1   2   50.58    3.65
   4   1   3  210.21    8.27
   4   1   3  244.52    8.90
   4   1   4    8.14    1.87
   4   1   4    8.91    1.72
   4   1   5  270.50    9.80
   4   1   6   53.04    4.05
   4   1   6   57.61    1.85
   4   1   7   80.15    5.16
   4   1   7   75.97    2.69
   4   1   8    3.22    0.67
  -4   1  -8    2.30    1.27
  -4   1  -9  107.29    6.39
   4   1   9  101.24    3.92
   4   1  10   10.04    1.31
  -4   1 -10   13.10    2.62
   4   1  11   53.04    3.17
  -4   1 -11   60.91    5.10
  -4   1 -12    5.92    2.04
  -4   1 -13   10.55    2.58
  -4   1 -14    5.21    2.30
  -4   1 -15    3.20    1.71
   4   2 -17   11.20    2.81
   4   2 -16    1.83    1.69
   4   2 -15   35.41    4.22
   4   2 -14   23.42    3.41
   4   2 -13  162.54    8.60
   4   2 -12   16.03    2.76
  -4   2  12   15.87    0.93
   4   2 -11  109.68    6.57
   4   2 -11  100.44    6.21
   4   2 -10    2.72    1.56
   4   2  -9  165.60    7.73
  -4   2   9  167.98    6.93
   4   2  -8   83.43    5.21
  -4   2   8   78.25    4.32
   4   2  -7   10.86    1.93
  -4   2   7    9.45    1.74
  -4   2   7    8.20    1.41
   4   2  -6   16.31    2.15
  -4   2   6    7.58    1.58
  -4   2   6    8.85    1.34
   4   2  -5   38.73    3.18
  -4   2   5   39.57    3.19
  -4   2   5   32.48    2.27
  -4   2   4   29.32    2.67
   4   2  -4   26.53    2.66
  -4   2   4   28.05    1.95
  -4   2   3   23.75    2.44
   4   2  -3   27.06    2.59
  -4   2   3   24.50    1.65
   4   2  -2   39.52    3.10
  -4   2   2   41.54    3.20
  -4   2   2   35.98    1.82
  -4   2   1   71.51    4.17
   4   2  -1   70.29    4.16
  -4   2   1   71.55    2.36
  -4   2   0   68.80    4.13
   4   2   0   70.43    4.16
   4   2   1   10.40    1.74
   4   2   1    8.06    2.34
   4   2   2   12.00    1.82
   4   2   2   13.64    1.92
   4   2   3  112.85    5.68
   4   2   3  129.78    6.17
   4   2   4   35.82    3.18
   4   2   4   37.49    3.28
   4   2   5  179.85    7.60
   4   2   6  102.27    5.70
   4   2   6  105.72    3.02
   4   2   7  156.32    7.52
   4   2   7  173.65    4.84
   4   2   8   16.60    1.34
  -4   2  -8   13.59    2.50
   4   2   9   23.40    1.78
  -4   2  -9   25.33    3.12
   4   2  10   42.11    2.65
  -4   2 -10   50.20    4.52
  -4   2 -11   79.78    5.83
   4   2  11   76.32    3.90
  -4   2 -12   11.64    2.40
  -4   2 -13   36.75    4.34
  -4   2 -14   11.10    2.65
  -4   2 -15   19.35    3.44
   4   3 -17   11.36    3.15
   4   3 -16   20.27    3.70
   4   3 -15    8.58    2.88
   4   3 -14   58.96    5.23
   4   3 -13   59.65    5.11
   4   3 -12  209.55    9.57
  -4   3  12  207.00    5.24
   4   3 -11   46.36    4.19
   4   3 -11   50.86    4.42
  -4   3  11   41.19    1.39
   4   3 -10   86.14    5.60
   4   3  -9    1.29    1.20
  -4   3   9   -0.43    0.85
   4   3  -8  411.72   13.28
  -4   3   8  409.86   12.04
  -4   3   7  102.58    5.45
   4   3  -7   90.21    5.23
  -4   3   7   92.50    4.51
   4   3  -6  613.48   17.38
  -4   3   6  669.22   17.67
  -4   3   6  640.07   15.91
   4   3  -5   24.26    2.54
  -4   3   5   26.54    2.63
  -4   3   5   25.57    1.98
  -4   3   4  918.45   21.88
   4   3  -4  870.42   21.76
  -4   3   4  835.74   19.39
   4   3  -3   42.59    3.21
  -4   3   3   39.73    3.13
  -4   3   3   41.19    2.22
   4   3  -2  947.52   23.19
  -4   3   2 1014.05   23.53
  -4   3   2  936.57   20.32
   4   3  -1    1.11    0.89
  -4   3   1    1.13    0.80
  -4   3   1    2.55    0.55
  -4   3   0  424.79   12.29
   4   3   0  414.45   12.14
  -4   3   0  393.76    8.66
   4   3   1   12.15    1.80
   4   3   1    9.41    1.67
   4   3   2  507.83   14.60
   4   3   2  532.30   14.97
   4   3   3    6.27    1.54
   4   3   3    5.57    1.49
   4   3   4  309.17   10.70
   4   3   4  344.26   11.38
   4   3   5   17.13    2.26
   4   3   5   18.44    0.96
   4   3   6  179.59    7.80
   4   3   6  176.15    4.71
   4   3   7   10.72    2.03
   4   3   7    8.75    0.94
   4   3   8   60.02    2.76
  -4   3  -8   53.80    4.39
   4   3   9    3.33    0.80
  -4   3  -9    3.58    1.58
   4   3  10   85.89    3.93
  -4   3 -10   82.29    5.77
   4   3  11   11.28    1.66
  -4   3 -11    7.87    2.26
  -4   3 -12   37.19    4.14
  -4   3 -13    2.30    2.01
  -4   3 -14   14.33    3.05
  -4   3 -15    1.94    1.59
   4   4 -17   31.97    4.39
   4   4 -16    1.29    1.89
   4   4 -15   42.47    4.72
   4   4 -14    1.01    1.45
   4   4 -13   72.23    5.60
   4   4 -12    0.83    1.41
   4   4 -11  232.70   10.03
   4   4 -11  227.99    9.82
   4   4 -10    5.58    1.71
   4   4  -9   19.09    2.70
  -4   4   9   20.16    2.27
   4   4  -8  144.24    6.96
  -4   4   8  148.74    6.26
  -4   4   7   34.80    3.13
   4   4  -7   40.69    3.47
  -4   4   7   40.14    2.92
  -4   4   6   80.27    4.71
   4   4  -6   75.66    4.62
  -4   4   6   77.13    3.95
   4   4  -5   14.13    2.05
  -4   4   5   11.43    1.85
   4   4  -5   13.09    0.83
  -4   4   5   12.20    1.52
  -4   4   4    4.60    1.25
   4   4  -4    4.62    1.22
  -4   4   4    5.46    0.92
   4   4  -3  125.18    5.81
  -4   4   3  135.93    6.05
  -4   4   3  126.31    4.50
   4   4  -2  140.95    6.14
  -4   4   2  137.97    6.14
  -4   4   2  136.95    4.50
   4   4  -1    5.09    1.21
  -4   4   1    7.19    1.51
  -4   4   1    6.25    0.77
  -4   4   0   12.41    1.71
   4   4   0   10.65    1.67
  -4   4   0   11.38    0.93
   4   4   1    7.97    1.52
   4   4   1    9.54    1.67
   4   4   2   81.30    4.63
   4   4   2   92.45    5.00
   4   4   3   15.54    2.07
   4   4   3   17.39    2.19
   4   4   4   45.52    3.56
   4   4   4   48.08    3.77
   4   4   5   45.48    3.63
   4   4   5   47.01    1.92
   4   4   6   73.20    4.75
   4   4   6   77.02    2.85
   4   4   7   70.08    4.80
   4   4   7   78.40    3.13
   4   4   8    9.18    2.08
   4   4   8    6.32    1.04
  -4   4  -8    5.07    1.62
  -4   4  -9    8.90    2.09
   4   4   9    4.65    0.99
   4   4  10   19.16    1.92
  -4   4 -10   15.77    2.69
  -4   4 -11   44.69    4.41
  -4   4 -12   17.94    3.10
  -4   4 -13   27.41    3.70
  -4   4 -14    2.61    1.68
  -4   4 -15    9.68    2.63
   4   5 -17    8.46    2.63
   4   5 -16    6.38    2.33
   4   5 -15   56.63    5.38
   4   5 -14   29.54    3.81
   4   5 -13  137.58    7.90
   4   5 -12   82.49    5.77
   4   5 -11   62.24    4.87
   4   5 -10   13.31    2.35
   4   5  -9   30.49    3.28
  -4   5   9   29.38    1.34
  -4   5   9   27.40    2.69
   4   5  -8  235.42    9.35
  -4   5   8  244.75    5.62
  -4   5   8  243.99    8.62
   4   5  -7  128.63    6.46
  -4   5   7  137.01    5.80
  -4   5   6  103.70    5.47
   4   5  -6  104.11    5.54
   4   5  -6  105.79    3.15
  -4   5   6  104.61    4.78
   4   5  -5  566.77   16.12
  -4   5   5  603.22   16.34
   4   5  -5  592.77   12.83
  -4   5   5  572.91   14.69
  -4   5   4  159.50    6.65
   4   5  -4  149.39    6.50
  -4   5   4  143.01    5.32
   4   5  -3  429.84   12.68
  -4   5   3  432.24   12.74
  -4   5   3  420.68   10.89
   4   5  -2  145.06    6.23
  -4   5   2  143.86    6.22
  -4   5   2  134.10    4.65
  -4   5   1  276.34    9.24
   4   5  -1  276.83    9.20
  -4   5   1  254.95    6.99
  -4   5   0  161.14    6.63
   4   5   0  136.77    6.12
  -4   5   0  147.45    4.42
   4   5   1  598.21   16.42
   4   5   1  633.82   16.85
   4   5   2   49.14    3.55
   4   5   2   58.34    3.92
   4   5   3  244.94    9.12
   4   5   3  288.45    9.89
   4   5   4   35.62    3.15
   4   5   4   34.13    3.15
   4   5   5  376.99   12.17
   4   5   5  376.09    9.07
   4   5   6   18.40    2.47
   4   5   6   20.32    1.48
   4   5   7   87.76    5.40
   4   5   7   87.42    3.51
   4   5   8   59.76    4.55
   4   5   8   63.65    3.11
  -4   5  -8   66.56    4.85
   4   5   9   21.94    2.00
  -4   5  -9   23.30    2.99
  -4   5 -10    6.25    1.89
   4   5  10    3.46    0.92
  -4   5 -11   88.09    6.17
  -4   5 -12   37.54    4.13
  -4   5 -13   15.61    2.89
  -4   5 -14   -0.20    1.67
  -4   5 -15    2.69    1.74
   4   6 -17    0.39    1.53
   4   6 -16   20.86    3.62
   4   6 -15    3.79    2.01
   4   6 -14   13.46    2.86
   4   6 -13    6.82    2.25
   4   6 -12   53.99    4.79
   4   6 -11    4.63    1.59
   4   6 -10   74.95    5.23
   4   6  -9   24.93    3.03
  -4   6   9   23.24    2.62
   4   6  -8    6.50    1.69
  -4   6   8    4.54    0.67
  -4   6   8    2.99    1.14
   4   6  -7   18.08    2.38
  -4   6   7   19.11    1.26
  -4   6   7   17.68    2.10
   4   6  -6   61.07    4.16
  -4   6   6   63.96    4.15
   4   6  -6   54.83    2.36
  -4   6   6   56.16    2.32
  -4   6   6   55.36    3.42
   4   6  -5  128.98    6.11
  -4   6   5  127.97    6.08
  -4   6   5  134.11    5.39
   4   6  -4   31.29    2.84
  -4   6   4   27.07    2.61
  -4   6   4   26.93    2.17
   4   6  -3   -0.02    0.88
  -4   6   3   -0.62    0.96
  -4   6   3    0.65    0.75
  -4   6   2    5.50    1.18
   4   6  -2    5.02    1.21
  -4   6   2    6.11    0.98
   4   6  -1   20.15    2.24
  -4   6   1   18.37    2.17
  -4   6   1   17.36    1.47
   4   6   0   20.96    2.28
  -4   6   0   27.01    2.59
  -4   6   0   20.56    1.53
   4   6   0   20.55    2.31
   4   6   1   55.77    3.74
   4   6   1   60.23    3.94
   4   6   2   16.16    2.07
   4   6   2   20.98    2.35
   4   6   3   54.61    3.80
   4   6   3   57.56    4.02
   4   6   4   24.53    2.66
   4   6   4   26.47    2.82
   4   6   5   23.52    2.68
   4   6   5   23.80    1.67
   4   6   6   67.10    4.53
   4   6   6   71.78    3.15
   4   6   7   23.54    2.84
   4   6   7   28.10    1.97
   4   6   8    2.61    1.35
   4   6   8    2.96    0.93
   4   6   9    3.11    0.98
  -4   6  -9    3.21    1.43
   4   6  10   25.54    2.33
  -4   6 -10   25.78    3.29
  -4   6 -11    2.99    1.65
  -4   6 -12   44.21    4.52
  -4   6 -13   31.97    4.13
  -4   6 -14   -0.89    1.40
  -4   6 -15   -0.40    1.73
   4   7 -17   16.07    3.27
   4   7 -16   14.51    3.09
   4   7 -15   35.66    4.34
   4   7 -14   29.85    3.94
   4   7 -13  162.47    8.63
   4   7 -12   86.16    5.98
   4   7 -11  111.47    6.58
   4   7 -10   72.34    5.23
   4   7 -10   75.83    5.16
   4   7  -9    7.01    1.90
   4   7  -8  107.68    5.86
  -4   7   8   95.56    3.51
  -4   7   8   97.31    5.22
   4   7  -7  413.09   13.17
  -4   7   7  417.63   10.08
  -4   7   7  408.78   12.32
   4   7  -7  421.15   10.23
   4   7  -6  301.33   10.42
  -4   7   6  297.31   10.31
  -4   7   6  293.26    9.55
  -4   7   6  289.45    7.74
   4   7  -6  313.15    7.99
  -4   7   5  314.85   10.58
   4   7  -5  328.88   10.74
  -4   7   5  318.81    9.75
  -4   7   5  316.59    8.28
   4   7  -4  511.05   14.32
  -4   7   4  493.14   14.22
  -4   7   4  481.15   12.99
   4   7  -3  304.52   10.02
  -4   7   3  309.11   10.14
  -4   7   3  293.51    8.79
   4   7  -2  309.01    9.98
  -4   7   2  301.48    9.98
  -4   7   2  296.07    8.58
  -4   7   1  464.48   13.31
   4   7  -1  465.25   13.22
  -4   7   1  440.12   11.41
   4   7   0  146.08    6.32
  -4   7   0  165.76    6.74
  -4   7   0  145.86    5.00
   4   7   0  147.41    6.48
   4   7   1  288.17    9.71
   4   7   1  295.82    9.94
   4   7   2  183.31    7.37
   4   7   2  195.89    7.79
   4   7   3  253.23    9.19
   4   7   3  267.13    9.65
   4   7   4  196.05    7.92
   4   7   4  195.07    6.01
   4   7   4  213.22    8.43
   4   7   5   75.00    4.67
   4   7   5   71.94    3.26
   4   7   6   74.41    4.75
   4   7   6   70.03    3.31
   4   7   7   32.62    3.31
   4   7   7   35.28    2.39
   4   7   8   17.97    2.56
   4   7   8   18.30    1.83
   4   7   9   60.81    3.52
  -4   7  -9   62.49    4.88
   4   7  10   43.02    3.09
  -4   7 -10   40.59    4.08
  -4   7 -11   13.16    2.65
  -4   7 -12   12.17    2.82
  -4   7 -13   34.43    4.21
  -4   7 -14   20.00    3.41
  -4   7 -15   -1.78    2.12
   4   8 -17   16.39    3.23
   4   8 -16    7.48    3.05
   4   8 -15   40.39    4.61
   4   8 -14    7.52    2.58
   4   8 -13   88.35    6.35
   4   8 -12   18.64    2.88
   4   8 -11   75.54    5.39
   4   8 -10   27.58    3.17
   4   8 -10   26.27    3.22
   4   8  -9   74.66    5.20
   4   8  -8   18.12    2.49
  -4   8   8   20.35    2.45
   4   8  -7   27.21    2.87
   4   8  -7   30.16    2.05
  -4   8   7   32.26    2.04
  -4   8   7   31.50    2.82
   4   8  -6   22.69    2.59
  -4   8   6   23.29    2.59
  -4   8   6   24.62    1.84
   4   8  -6   22.94    1.81
  -4   8   6   22.67    2.38
   4   8  -5   69.58    4.31
  -4   8   5   66.77    4.20
  -4   8   5   59.81    2.96
  -4   8   5   59.19    3.66
   4   8  -4    3.41    1.21
  -4   8   4    1.74    1.00
  -4   8   4    1.68    0.71
  -4   8   4    2.80    1.06
   4   8  -3   69.75    4.22
  -4   8   3   73.56    4.33
  -4   8   3   68.05    3.64
  -4   8   2    6.55    1.49
   4   8  -2    5.00    1.30
  -4   8   2    3.61    0.92
   4   8  -1    4.52    1.26
  -4   8   1    6.35    1.43
  -4   8   1    6.18    1.15
   4   8   0    7.44    1.54
  -4   8   0    8.72    1.25
   4   8   0    5.37    1.29
   4   8   1   17.85    2.16
   4   8   1   12.83    1.93
   4   8   2   14.39    2.08
   4   8   2   16.39    2.14
   4   8   3   17.97    2.33
   4   8   3   23.21    2.56
   4   8   4   25.54    2.71
   4   8   4   29.65    2.09
   4   8   4   26.71    2.84
   4   8   5   38.25    3.35
   4   8   5   39.87    2.53
   4   8   6    2.59    1.23
   4   8   6    3.51    1.02
   4   8   7    3.01    1.34
   4   8   7    3.92    1.01
   4   8   8    1.36    1.32
   4   8   8   -0.30    0.93
   4   8   9   -0.30    1.28
   4   8   9   -0.30    0.88
   4   8  10    9.32    1.75
  -4   8 -10    6.34    1.94
  -4   8 -11   16.16    2.86
  -4   8 -12    1.47    1.40
  -4   8 -13   17.69    3.16
  -4   8 -14    5.30    2.14
   4   9 -17   18.06    3.34
   4   9 -16   10.03    2.65
   4   9 -15    1.85    1.64
   4   9 -14   68.20    5.73
   4   9 -13    0.43    1.50
   4   9 -12   73.93    5.57
   4   9 -11    7.16    1.92
   4   9 -10   54.18    4.36
   4   9  -9   15.26    2.51
   4   9  -8   71.03    4.85
   4   9  -8   69.39    3.40
   4   9  -7   37.72    3.35
   4   9  -7   38.53    2.46
  -4   9   7   37.83    3.24
  -4   9   7   34.64    2.31
   4   9  -6  403.21   12.69
  -4   9   6  398.47   12.61
  -4   9   6  396.97   10.58
   4   9  -6  402.19   10.73
  -4   9   6  408.35   12.30
   4   9  -5   12.83    1.90
  -4   9   5   16.42    2.08
  -4   9   5   12.83    1.48
  -4   9   5   17.48    2.12
  -4   9   4  474.29   13.71
   4   9  -4  471.43   13.63
  -4   9   4  455.89   12.00
  -4   9   4  454.96   12.93
  -4   9   3  237.74    8.53
   4   9  -3  231.41    8.42
  -4   9   3  221.30    7.70
  -4   9   3  228.96    7.37
  -4   9   2  453.76   13.08
   4   9  -2  441.14   12.86
  -4   9   2  424.92   11.91
  -4   9   1    8.69    1.52
   4   9  -1   12.48    1.89
  -4   9   1   11.18    1.48
   4   9   0  552.97   14.88
  -4   9   0  520.12   13.49
   4   9   0  522.24   14.86
   4   9   1   28.61    2.68
   4   9   1   27.04    2.67
   4   9   2  363.50   11.51
   4   9   2  381.78   11.98
   4   9   3  163.17    6.97
   4   9   3  167.67    7.29
   4   9   4  217.10    8.45
   4   9   4  212.80    7.05
   4   9   4  235.11    8.94
   4   9   5  120.23    6.04
   4   9   5  113.87    4.81
   4   9   6  157.34    7.18
   4   9   6  148.72    5.80
   4   9   7   20.82    2.64
   4   9   7   24.72    2.24
   4   9   8   37.29    3.62
   4   9   8   38.64    2.89
   4   9   9   26.71    3.12
   4   9   9   21.30    2.32
  -4   9 -10   53.09    4.65
  -4   9 -11    4.92    2.08
  -4   9 -12   47.69    4.70
  -4   9 -13    6.29    2.23
  -4   9 -14    6.29    2.21
   4  10 -17   11.64    3.09
   4  10 -16   30.93    4.29
   4  10 -15    8.52    2.16
   4  10 -14   14.63    3.03
   4  10 -13   14.07    2.65
   4  10 -12   37.25    3.99
   4  10 -11   34.20    3.71
   4  10 -10   68.68    4.98
   4  10  -9   16.18    2.51
   4  10  -9   20.56    2.74
   4  10  -8   54.95    4.20
   4  10  -8   49.79    3.01
   4  10  -7    4.43    1.06
  -4  10   7    3.94    1.03
   4  10  -7    2.77    1.22
   4  10  -6  331.21   11.31
  -4  10   6  329.12    9.70
  -4  10   6  352.92   11.34
   4  10  -6  361.89   10.03
  -4  10   6  345.53   11.39
   4  10  -5   51.24    3.70
  -4  10   5   52.40    3.78
  -4  10   5   53.09    3.10
  -4  10   5   54.64    3.73
   4  10  -4   26.80    2.67
  -4  10   4   24.94    2.53
  -4  10   4   22.70    2.09
  -4  10   4   24.40    2.38
   4  10  -3   22.21    2.38
  -4  10   3   30.20    2.78
  -4  10   3   24.16    2.18
  -4  10   3   25.24    2.38
  -4  10   2  224.37    8.21
   4  10  -2  227.61    8.21
  -4  10   2  218.51    7.56
  -4  10   2  218.07    7.67
   4  10  -1   10.05    1.62
  -4  10   1    8.23    1.57
  -4  10   1    7.57    1.34
   4  10  -1    9.03    1.65
   4  10   0  105.07    5.17
  -4  10   0   95.77    4.51
   4  10   0  105.57    5.30
   4  10   1    7.78    1.53
   4  10   1   11.61    1.82
   4  10   2    7.18    1.48
   4  10   2    6.15    1.41
   4  10   3   67.85    4.26
   4  10   3   66.31    4.36
   4  10   4   17.99    2.42
   4  10   4   17.62    2.33
   4  10   4   19.16    2.02
   4  10   5  135.01    6.43
   4  10   5  122.78    5.31
   4  10   6   21.12    2.66
   4  10   6   21.60    2.24
   4  10   7   49.16    4.00
   4  10   7   52.23    3.42
   4  10   8   11.00    2.20
   4  10   8   10.77    1.75
   4  10   9   90.34    5.84
   4  10   9   88.17    4.77
   4  10  10    1.24    1.71
  -4  10 -11   35.51    3.98
  -4  10 -12   38.57    4.33
  -4  10 -13   30.87    4.02
  -4  10 -14    3.75    1.95
   4  11 -16    1.20    2.07
   4  11 -15   20.30    3.52
   4  11 -14    8.14    2.46
   4  11 -13   25.51    3.53
   4  11 -12   25.05    3.35
   4  11 -11   16.41    2.70
   4  11 -10   13.00    2.24
   4  11  -9   41.21    3.76
   4  11  -9   41.93    3.78
   4  11  -9   37.78    2.83
   4  11  -8    2.43    0.94
   4  11  -8    3.22    1.43
   4  11  -7   34.44    3.23
   4  11  -7   33.61    2.63
  -4  11   7   34.56    2.65
   4  11  -6   64.81    4.35
  -4  11   6   72.58    3.84
   4  11  -6   71.29    3.84
  -4  11   6   67.62    4.39
   4  11  -5   33.49    3.02
  -4  11   5   37.90    3.20
  -4  11   5   43.73    2.96
  -4  11   5   38.35    3.21
   4  11  -4    9.46    1.70
  -4  11   4   12.00    1.84
  -4  11   4    7.22    1.37
  -4  11   4   12.17    1.87
   4  11  -3  130.79    6.01
  -4  11   3  143.11    6.29
  -4  11   3  130.79    5.64
  -4  11   3  138.13    6.04
  -4  11   2  190.34    7.40
   4  11  -2  185.90    7.32
  -4  11   2  174.97    6.96
  -4  11   2  184.06    6.96
   4  11  -1   27.87    2.62
  -4  11   1   27.30    2.66
  -4  11   1   24.49    2.38
  -4  11   1   27.47    2.53
   4  11  -1   31.73    2.81
   4  11   0  110.07    5.37
  -4  11   0  112.13    5.15
   4  11   0  109.68    5.46
   4  11   1   50.91    3.55
   4  11   1   55.44    3.85
   4  11   2  115.60    5.66
   4  11   2  127.32    6.09
   4  11   3  110.10    5.57
   4  11   3  117.95    5.94
   4  11   4   14.12    2.13
   4  11   4   16.25    2.26
   4  11   4   16.52    2.00
   4  11   5   39.77    3.42
   4  11   5   40.58    3.05
   4  11   6    5.64    1.54
   4  11   6    6.99    1.42
   4  11   7   40.07    3.66
   4  11   7   38.01    3.04
   4  11   8   13.04    2.33
   4  11   8   13.05    1.91
   4  11   9   13.77    2.38
   4  11  10    3.51    1.69
   4  11  11   17.08    2.92
  -4  11 -11   22.57    3.21
  -4  11 -12    3.87    1.74
  -4  11 -13    2.94    1.94
  -4  11 -14    9.20    2.46
   4  12 -16    9.73    2.67
   4  12 -15    4.43    2.21
   4  12 -14   23.33    3.71
   4  12 -13    4.90    1.98
   4  12 -12    3.01    1.64
   4  12 -11    4.20    1.54
   4  12 -10    0.16    1.15
   4  12  -9    1.31    1.17
   4  12  -9    1.26    1.00
   4  12  -8   33.54    3.33
   4  12  -8   36.50    2.92
   4  12  -7    7.15    1.46
   4  12  -7    4.49    1.49
  -4  12   6    5.93    1.40
  -4  12   6    5.96    1.51
   4  12  -6    6.34    1.57
   4  12  -5   64.47    4.26
  -4  12   5   65.40    4.25
  -4  12   5   70.38    3.97
  -4  12   4   23.34    2.46
   4  12  -4   22.68    2.48
  -4  12   4   21.61    2.27
  -4  12   4   23.58    2.61
  -4  12   3   56.13    3.79
   4  12  -3   59.73    3.85
  -4  12   3   61.28    3.98
  -4  12   3   55.87    3.61
   4  12  -2   14.30    1.96
  -4  12   2   19.49    2.26
  -4  12   2   18.64    2.14
  -4  12   2   17.33    2.24
   4  12  -1   40.73    3.16
  -4  12   1   45.62    3.33
  -4  12   1   47.95    3.43
   4  12  -1   41.08    3.17
   4  12   0   15.91    2.01
  -4  12   0   20.51    2.22
   4  12   0   21.23    2.35
   4  12   1   47.09    3.41
   4  12   1   42.82    3.36
   4  12   2   20.40    2.38
   4  12   2   14.74    2.06
   4  12   3   30.56    2.86
   4  12   3   25.77    2.75
   4  12   4   96.06    5.22
   4  12   4   79.84    4.45
   4  12   4   89.49    5.29
   4  12   5   14.59    2.17
   4  12   5   13.51    1.90
   4  12   6   82.22    5.06
   4  12   6   82.01    4.63
   4  12   7    2.85    1.07
   4  12   7    6.02    1.68
   4  12   8   21.40    2.78
   4  12   8   24.97    2.71
   4  12   9    2.63    1.53
   4  12  10   46.10    4.29
   4  12  11   -1.16    1.48
   4  12  12   15.61    3.09
  -4  12 -12   18.75    3.55
  -4  12 -13    2.85    1.81
  -4  12 -14   24.54    3.66
   4  13 -16    5.91    2.34
   4  13 -15    5.96    2.08
   4  13 -14    4.16    2.06
   4  13 -13    7.64    2.30
   4  13 -12   26.82    3.45
   4  13 -11   13.83    2.49
   4  13 -10   67.62    4.92
   4  13  -9   21.28    2.73
   4  13  -9   20.68    2.25
   4  13  -8  150.02    7.39
   4  13  -8  153.86    7.27
   4  13  -8  163.07    6.66
   4  13  -7   29.17    2.70
   4  13  -7   26.94    2.99
   4  13  -6  237.60    8.99
  -4  13   6  220.81    8.20
  -4  13   6  236.88    8.94
   4  13  -5   55.43    3.93
  -4  13   5   57.50    3.77
  -4  13   5   53.50    3.81
   4  13  -4  154.89    6.66
  -4  13   4  154.62    6.65
  -4  13   4  130.99    6.07
   4  13  -3   30.94    2.80
  -4  13   3   40.08    3.16
  -4  13   3   31.11    2.84
  -4  13   3   37.84    3.25
   4  13  -2  298.68    9.92
  -4  13   2  313.19   10.18
  -4  13   2  288.98   10.01
  -4  13   2  291.21   10.19
   4  13  -2  308.11   10.15
   4  13  -1  138.12    6.11
  -4  13   1  140.21    6.37
  -4  13   1  136.99    6.37
   4  13  -1  144.54    6.34
   4  13   0   48.73    3.43
  -4  13   0   41.97    3.34
  -4  13   0   45.88    3.66
   4  13   0   47.45    3.51
   4  13   1   96.41    5.01
   4  13   1  100.73    5.29
   4  13   2  104.99    5.31
   4  13   2  102.94    5.43
   4  13   3   31.02    2.88
   4  13   3   27.93    2.88
   4  13   4  169.01    7.22
   4  13   4  159.66    6.90
   4  13   4  179.43    7.75
   4  13   5   18.50    2.33
   4  13   5   19.38    2.34
   4  13   6   40.02    3.55
   4  13   6   42.81    3.46
   4  13   7   23.85    2.84
   4  13   7   22.50    2.70
   4  13   8   38.23    3.72
   4  13   9   28.86    3.30
   4  13  10   15.95    2.67
   4  13  11   21.55    3.16
   4  13  12    1.60    1.56
   4  13  13    0.45    1.66
  -4  13 -14    6.15    2.12
   4  14 -16    5.27    2.00
   4  14 -15   20.58    3.46
   4  14 -14    3.36    1.97
   4  14 -13   10.33    2.54
   4  14 -12    7.29    2.04
   4  14 -11   15.21    2.67
   4  14 -10   24.55    3.22
   4  14 -10   24.66    2.71
   4  14  -9   29.20    3.27
   4  14  -9   26.09    2.76
   4  14  -8   31.64    3.24
   4  14  -8   36.10    3.16
   4  14  -7   24.95    2.81
   4  14  -7   30.28    2.89
   4  14  -6   73.01    4.61
  -4  14   6   62.59    4.28
  -4  14   6   72.41    4.41
  -4  14   5    0.87    0.91
   4  14  -5    1.03    0.94
  -4  14   5    1.92    1.13
   4  14  -4    8.12    1.55
  -4  14   4    8.66    1.62
  -4  14   4    8.49    1.64
   4  14  -3   36.61    3.06
  -4  14   3   38.91    3.14
  -4  14   3   32.39    3.00
   4  14  -2    3.61    1.11
  -4  14   2    3.54    1.19
   4  14  -2    5.61    1.34
   4  14  -1    1.24    0.82
  -4  14   1    1.95    0.94
  -4  14   1    1.76    1.04
   4  14  -1    1.65    1.10
   4  14   0   49.04    3.45
  -4  14   0   47.71    3.70
  -4  14   0   48.10    3.87
   4  14   0   50.80    3.64
   4  14   1   10.83    1.75
   4  14   1   14.97    2.04
   4  14   2   24.42    2.48
   4  14   2   24.08    2.74
   4  14   3   56.88    3.88
   4  14   3   56.07    4.01
   4  14   4    7.92    1.78
   4  14   4    8.38    1.71
   4  14   4    7.74    1.64
   4  14   5   34.88    3.28
   4  14   5   39.35    3.37
   4  14   6    8.63    1.82
   4  14   7   47.64    3.97
   4  14   8    9.10    1.96
   4  14   9   17.89    2.67
   4  14  10    1.17    1.48
   4  14  11   15.34    2.81
   4  14  12   -1.85    1.69
   4  14  13   19.08    3.12
   4  14  14    1.19    1.82
   4  15 -16   12.52    2.94
   4  15 -15    4.72    1.96
   4  15 -14   26.40    3.78
   4  15 -13    2.03    2.32
   4  15 -12   38.87    4.11
   4  15 -11    8.86    2.29
   4  15 -10   95.57    5.99
   4  15 -10   99.41    5.53
   4  15  -9   26.51    3.06
   4  15  -9   25.21    2.74
   4  15  -8  134.26    6.71
   4  15  -8  131.59    6.46
   4  15  -7    3.42    1.46
   4  15  -7    2.76    1.23
   4  15  -7    4.24    1.35
   4  15  -6  155.27    6.99
  -4  15   6  148.51    6.87
  -4  15   6  149.39    6.88
   4  15  -5   60.75    4.08
  -4  15   5   54.12    4.01
  -4  15   5   71.45    4.40
   4  15  -4  172.00    7.04
  -4  15   4  154.95    6.73
  -4  15   4  157.62    7.15
   4  15  -3    2.75    1.05
  -4  15   3    1.63    0.94
  -4  15   3    2.62    1.31
   4  15  -3    1.29    1.18
   4  15  -2  145.28    6.33
  -4  15   2  149.96    7.04
   4  15  -2  163.04    6.68
   4  15  -1    2.62    1.09
  -4  15   1    2.48    1.25
   4  15  -1    3.52    1.15
   4  15   0  156.76    6.52
  -4  15   0  149.85    7.23
   4  15   0  154.21    6.66
   4  15   1    2.37    1.10
  -4  15  -1    1.67    1.22
   4  15   1    2.52    1.28
   4  15   2  126.46    5.81
   4  15   2  118.54    5.92
   4  15   3   23.31    2.71
   4  15   3   24.19    2.55
   4  15   4   65.39    4.28
   4  15   5   25.18    2.76
   4  15   6   51.28    3.99
   4  15   7   23.00    2.80
   4  15   8   30.23    3.24
   4  15   9    1.99    1.26
   4  15  10   11.62    2.42
   4  15  11    3.16    1.71
   4  15  12    5.92    2.06
   4  15  13    1.62    1.68
   4  16 -14   15.03    3.11
   4  16 -13   32.06    3.96
   4  16 -12    5.63    1.98
   4  16 -11    3.69    1.78
   4  16 -10   13.67    2.48
   4  16 -10   11.67    2.21
   4  16  -9   34.03    3.47
   4  16  -9   36.99    3.44
   4  16  -8    4.17    1.46
   4  16  -8    4.74    1.70
   4  16  -7   24.39    2.74
   4  16  -7   25.93    2.99
   4  16  -6    9.54    1.82
  -4  16   6   11.30    2.11
   4  16  -5    1.63    1.26
  -4  16   5    1.79    1.32
   4  16  -4    4.16    1.20
  -4  16   4    7.31    1.59
  -4  16   4    3.49    1.44
   4  16  -3    1.77    0.97
  -4  16   3    2.44    1.35
   4  16  -3    3.01    1.28
   4  16  -2   -0.92    0.92
  -4  16   2   -0.11    1.18
   4  16  -2    1.16    1.20
   4  16  -1   -0.25    0.89
  -4  16   1    0.27    1.12
   4  16  -1    0.44    0.99
   4  16   0    5.64    1.32
  -4  16   0    6.83    1.98
   4  16   0    6.69    1.73
   4  16   1   15.59    2.07
  -4  16  -1   10.74    2.21
   4  16   1    9.35    1.74
   4  16   2    5.33    1.35
   4  16   3    3.93    1.29
   4  16   4    1.86    1.12
   4  16   5   13.06    1.98
   4  16   6    2.30    1.11
   4  16   7    0.62    1.19
   4  16   8    4.92    1.63
   4  16   9    5.94    1.80
   4  16  10    2.74    1.47
   4  16  11    0.98    1.35
   4  16  12    9.61    2.56
   4  17 -10    1.98    1.31
   4  17 -10    3.28    1.79
   4  17  -9   58.26    4.45
   4  17  -9   58.86    4.46
   4  17  -8   -1.04    1.29
   4  17  -8   -0.85    1.41
   4  17  -7  186.75    7.89
   4  17  -7  190.26    8.48
  -4  17   7  188.16    8.43
   4  17  -6    7.64    1.76
   4  17  -6    5.02    1.48
  -4  17   6    6.82    1.95
   4  17  -6    7.34    1.81
   4  17  -5  175.57    7.21
  -4  17   5  147.80    7.46
  -4  17   4   13.04    2.29
   4  17  -4   13.92    1.90
   4  17  -3  118.30    5.55
  -4  17   3  104.48    6.11
  -4  17   2    4.78    1.66
   4  17  -2    3.81    1.14
  -4  17   1  121.73    6.78
   4  17  -1  134.66    5.86
  -4  17   0    2.22    1.63
   4  17   0    0.38    0.87
  -4  17  -1   94.44    5.99
   4  17   1   93.55    4.82
   4  17   2    1.36    1.16
   4  17   3  169.40    6.96
   4  17   4    3.95    1.28
   4  17   5   77.30    4.72
   4  17   6    1.10    1.05
   4  17   7   54.58    4.12
   4  17   8    6.43    1.76
   4  17   9   38.91    3.84
   4  18 -10   16.38    2.63
   4  18  -9    7.33    2.10
   4  18  -8   16.12    2.72
   4  18  -7   -0.41    1.37
  -4  18   7    3.75    1.61
  -4  18   6   11.21    2.29
   4  18  -6    9.57    2.00
  -4  18   5    1.55    1.31
  -4  18   4    0.98    1.36
   4  18  -4    0.96    0.98
   4  18  -3   38.40    2.97
  -4  18   3   33.71    3.62
   4  18  -2    0.96    0.83
  -4  18   2    4.26    1.60
   4  18  -1    1.25    0.94
  -4  18   1   -0.22    1.67
   4  18   0    2.28    1.00
  -4  18   0    6.28    2.06
   4  18   1    5.74    1.40
  -4  18  -1    5.29    2.02
   4  18   2    1.73    0.97
   4  18   3    6.35    1.50
   4  19 -10   26.20    3.41
   4  19  -9   11.87    2.53
   4  19  -8   30.15    3.53
   4  19  -7   22.44    3.13
  -4  19   7   20.37    2.92
  -4  19   6   79.98    5.66
   4  19  -6   78.86    5.62
  -4  19   5   35.96    3.81
  -4  19   4   80.28    5.63
  -4  19   3   25.72    3.31
  -4  19   2   36.94    3.93
  -4  19   1   21.86    3.17
  -4  19   0   44.29    4.30
  -4  19  -1   58.96    5.08
   4  20 -10    0.61    1.67
   4  20  -9   14.17    2.70
   4  20  -8   -0.53    1.76
   4  20  -7   23.42    3.29
  -4  20   7   19.84    3.08
  -4  20   6    3.10    1.58
   4  20  -6    4.05    1.58
  -4  20   5    9.96    2.14
  -4  20   4   19.94    3.06
  -4  20   3    0.24    1.58
  -4  20   2   22.10    3.12
  -4  20   1    2.30    1.75
  -4  20   0    7.93    2.30
  -4  20  -1    6.34    2.15
  -4  20  -2    9.25    2.39
   4  21  -9    5.45    2.13
   4  21  -8   45.04    4.40
  -4  21   8   38.53    4.37
   4  21  -7    2.38    1.89
  -4  21   7    2.90    2.22
  -4  21   6   54.08    5.42
   4  21  -6   47.76    4.66
  -4  21   5    5.54    1.92
  -4  21   4   38.79    4.25
  -4  21   3    8.68    2.33
  -4  21   2   40.62    4.37
  -4  21   1   -1.48    2.08
  -4  21   0   46.54    4.67
  -4  21  -1   11.02    2.50
  -4  21  -2   68.57    5.76
   4  22  -9    4.81    2.43
   4  22  -8    7.80    2.48
  -4  22   8    3.24    1.87
   4  22  -7    9.40    2.66
  -4  22   7   12.46    2.80
  -4  22   6   -0.97    1.68
   4  22  -6    2.75    1.80
  -4  22   5    6.58    2.24
  -4  22   4   -2.51    1.64
  -4  22   3    8.47    2.34
  -4  22   2   -0.67    1.69
  -4  22   1    2.16    1.67
  -4  22   0    6.22    1.89
  -4  22  -1   -0.26    1.70
  -4  22  -2    7.79    2.39
   4  23  -7   30.41    4.08
  -4  23   7   30.91    4.14
  -4  23   6    2.21    1.52
   4  23  -6    2.43    1.77
  -4  23   5   30.70    3.93
   4  23  -5   35.84    4.31
  -4  23   4    2.62    2.84
  -4  23   3   33.91    4.10
  -4  23   2    4.89    1.84
  -4  23   1   46.23    4.88
  -5 -22   3   20.68    3.56
   5 -22  -3   24.26    3.69
  -5 -22   2   14.52    3.19
   5 -22  -2   19.32    3.31
  -5 -22   1    5.97    2.40
   5 -22  -1   -0.34    2.08
  -5 -22   0    7.41    2.69
   5 -22   0   13.52    3.12
  -5 -21   6    2.80    2.17
  -5 -21   5    3.27    2.07
   5 -21  -5    3.61    2.04
  -5 -21   4    2.62    1.88
   5 -21  -4    4.66    2.25
  -5 -21   3    5.67    2.44
   5 -21  -3    4.93    2.01
  -5 -21   2    2.09    2.24
   5 -21  -2   -0.61    1.76
   5 -21  -1    2.75    2.09
  -5 -21   1    6.70    2.37
  -5 -21   0    0.55    3.33
   5 -21   0    3.57    2.13
  -5 -21  -1    5.62    2.54
   5 -21   1    4.65    1.81
  -5 -20   7    4.55    1.52
   5 -20  -7    1.62    1.72
  -5 -20   6    2.13    2.00
   5 -20  -6    1.39    1.52
  -5 -20   5   14.35    2.77
   5 -20  -5   10.41    2.58
  -5 -20   4   12.70    2.70
   5 -20  -4   12.21    2.98
  -5 -20   3    9.05    2.52
   5 -20  -3    8.33    2.32
  -5 -20   2    3.02    1.98
   5 -20  -2    1.76    1.83
   5 -20  -1   13.70    2.71
  -5 -20   1   19.11    3.18
  -5 -20   0    6.23    1.93
   5 -20   0    4.70    2.09
  -5 -20  -1    4.59    2.10
   5 -20   1    5.20    1.73
  -5 -20  -2   10.05    2.59
   5 -20   2    5.53    1.94
  -5 -19   8    1.26    2.06
   5 -19  -8    0.59    1.61
  -5 -19   7    2.36    1.78
   5 -19  -7    2.90    2.05
  -5 -19   6   -0.23    1.60
   5 -19  -6    0.43    1.61
  -5 -19   5    8.70    2.40
   5 -19  -5    7.02    2.33
  -5 -19   4    1.07    1.72
   5 -19  -4    2.60    1.80
  -5 -19   3   -1.20    1.85
   5 -19  -3   -0.01    1.47
  -5 -19   2    1.84    1.68
   5 -19  -2    2.33    1.97
  -5 -19   1    5.80    1.97
   5 -19  -1    3.76    1.64
  -5 -19   0    2.91    1.65
   5 -19   0    6.16    1.90
  -5 -19  -1   18.09    2.91
   5 -19   1   20.06    3.06
  -5 -19  -2    0.87    1.67
   5 -19   2    2.40    1.80
   5 -19   3    3.48    1.84
  -5 -18  10   46.61    5.06
  -5 -18   9   33.84    4.24
  -5 -18   8   71.67    5.97
   5 -18  -8   76.83    6.03
  -5 -18   7   17.12    3.17
   5 -18  -7   15.19    2.86
  -5 -18   6   80.61    6.04
   5 -18  -6   77.68    5.74
  -5 -18   5   23.33    3.47
   5 -18  -5   26.72    3.45
  -5 -18   4   92.76    6.22
   5 -18  -4   85.04    5.92
   5 -18  -3   32.79    3.30
  -5 -18   3   32.32    3.81
   5 -18  -3   36.31    3.90
   5 -18  -2   67.30    4.69
  -5 -18   2   69.59    5.25
   5 -18  -2   67.56    5.09
   5 -18  -1   24.29    2.94
  -5 -18   1   29.07    3.43
   5 -18  -1   28.58    3.47
   5 -18   0   28.88    3.05
  -5 -18   0   26.44    3.28
   5 -18   0   23.60    3.02
  -5 -18  -1   18.61    2.87
   5 -18   1   20.27    2.76
  -5 -18  -2   24.57    3.07
   5 -18   2   19.50    2.76
   5 -18   3   18.27    2.79
  -5 -18  -3   24.08    3.06
   5 -17 -11    6.12    2.14
  -5 -17  11    6.40    2.59
   5 -17 -10    3.46    2.01
  -5 -17  10    2.47    1.95
   5 -17  -9    5.54    2.05
  -5 -17   9    1.50    1.52
   5 -17  -8    6.33    2.18
   5 -17  -8    2.40    1.76
  -5 -17   8    0.90    1.96
   5 -17  -8    2.22    1.69
   5 -17  -7    1.21    1.47
  -5 -17   7    2.15    1.90
   5 -17  -7    0.54    1.56
   5 -17  -6    3.97    1.36
  -5 -17   6    0.68    1.73
   5 -17  -6    9.25    2.88
   5 -17  -5   -0.59    1.11
  -5 -17   5   -0.07    1.56
   5 -17  -5   -0.20    1.49
   5 -17  -4    0.84    1.35
  -5 -17   4   -0.20    1.53
   5 -17  -4    3.55    1.68
   5 -17  -3    7.92    1.87
  -5 -17   3    4.16    1.78
   5 -17  -3    7.25    2.07
   5 -17  -2    6.85    1.69
  -5 -17   2    4.71    1.57
   5 -17  -2    3.23    1.30
   5 -17  -1    6.53    1.73
  -5 -17   1   10.40    2.39
   5 -17  -1    8.00    1.97
   5 -17   0    7.97    1.83
   5 -17   0    7.74    1.98
  -5 -17   0    8.84    1.91
   5 -17   1   19.99    2.72
  -5 -17  -1   19.77    2.51
   5 -17   1   13.78    2.27
   5 -17   2    2.83    1.31
  -5 -17  -2    6.51    1.95
   5 -17   2    6.65    1.84
   5 -17   3   29.90    3.19
   5 -17   3   29.78    3.27
  -5 -17  -3   27.75    3.13
   5 -17   4    1.51    1.10
   5 -17   4    3.28    1.79
  -5 -17  -4    0.82    1.29
   5 -17   5   12.46    2.37
   5 -17   6   -0.22    1.37
   5 -17   7    9.90    2.24
   5 -16 -13    7.05    2.47
   5 -16 -12   16.19    3.04
   5 -16 -11    2.79    1.65
  -5 -16  11    7.65    2.50
   5 -16 -10   30.44    3.89
  -5 -16  10   36.20    4.19
   5 -16  -9   29.52    3.56
  -5 -16   9   25.52    3.60
   5 -16  -8   54.30    4.71
   5 -16  -8   53.31    4.76
  -5 -16   8   55.01    5.02
   5 -16  -7   52.98    4.51
  -5 -16   7   48.12    4.54
   5 -16  -7   53.94    4.72
   5 -16  -6  100.02    6.16
  -5 -16   6  103.02    6.55
   5 -16  -6  102.62    6.35
   5 -16  -5   38.32    3.77
  -5 -16   5   36.08    3.78
   5 -16  -5   36.22    3.76
   5 -16  -4  110.90    6.35
  -5 -16   4  114.97    6.59
   5 -16  -4  112.38    6.38
   5 -16  -3   85.25    5.41
  -5 -16   3   89.53    5.68
   5 -16  -3   84.99    5.45
   5 -16  -2  115.75    6.27
  -5 -16   2  113.33    6.36
   5 -16  -2  112.73    6.21
   5 -16  -1   28.61    3.12
  -5 -16   1   30.00    3.21
   5 -16  -1   32.36    3.29
   5 -16   0   83.19    5.31
  -5 -16   0   76.48    4.98
   5 -16   0   76.84    4.98
   5 -16   1   71.37    4.83
  -5 -16  -1   77.41    4.99
   5 -16   1   75.53    4.92
   5 -16   2   31.30    3.27
  -5 -16  -2   36.70    3.35
   5 -16   2   33.62    3.29
   5 -16   3   46.46    3.91
   5 -16   3   49.16    3.86
  -5 -16  -3   43.21    3.67
   5 -16   4   18.60    2.74
   5 -16   4   14.88    2.33
  -5 -16  -4   19.43    2.53
   5 -16   5   17.31    2.66
   5 -16   6    7.33    2.09
   5 -16   7   12.20    2.51
   5 -16   8    8.08    2.10
   5 -16   9    4.61    1.71
   5 -16  10   10.02    2.74
   5 -15 -14   -1.45    2.27
   5 -15 -13   -3.26    1.87
   5 -15 -12    9.89    2.89
  -5 -15  12    8.56    2.52
   5 -15 -11    0.88    1.80
  -5 -15  11    2.82    1.97
   5 -15 -10    7.49    2.36
  -5 -15  10   12.09    2.66
   5 -15  -9    9.72    2.41
   5 -15  -9    7.23    2.29
  -5 -15   9    6.53    2.44
   5 -15  -8    0.19    1.33
  -5 -15   8   -0.85    1.64
   5 -15  -7   -0.95    1.35
  -5 -15   7   -0.15    1.42
   5 -15  -7   -1.96    1.78
   5 -15  -6    0.74    1.30
  -5 -15   6    4.42    1.97
   5 -15  -6    3.75    1.49
   5 -15  -5   26.02    3.30
  -5 -15   5   23.69    2.96
   5 -15  -5   17.88    2.57
   5 -15  -4    9.16    1.87
  -5 -15   4    6.44    1.89
   5 -15  -4    5.21    1.45
   5 -15  -3   23.75    2.90
  -5 -15   3   25.16    2.86
   5 -15  -3   30.41    3.24
   5 -15  -2    4.35    1.36
  -5 -15   2    6.37    1.66
   5 -15  -2    4.64    1.53
   5 -15  -1   11.65    2.12
  -5 -15   1   15.08    2.35
   5 -15  -1    8.63    1.85
   5 -15   0   37.32    3.46
  -5 -15   0   41.22    3.47
   5 -15   0   31.90    3.07
   5 -15   1   48.64    3.99
  -5 -15  -1   48.62    3.71
   5 -15   1   41.98    3.50
   5 -15   2   26.12    3.04
  -5 -15  -2   24.84    2.73
   5 -15   2   23.32    2.65
   5 -15   3   26.67    3.16
   5 -15   3   25.80    2.79
  -5 -15  -3   29.28    2.90
   5 -15   4   13.13    2.81
   5 -15   4   13.30    2.04
  -5 -15  -4   12.09    2.00
   5 -15   5   42.98    4.00
   5 -15   5   49.84    3.87
  -5 -15  -5   46.03    3.57
   5 -15   6   30.20    3.76
   5 -15   7   14.31    2.69
   5 -15   8   13.68    2.63
   5 -15   9    7.74    2.47
   5 -15  10   15.40    3.11
   5 -15  11    8.46    2.39
   5 -14 -14    1.57    1.90
   5 -14 -13   40.22    4.69
   5 -14 -12    5.92    2.30
   5 -14 -11   52.74    4.97
  -5 -14  11   50.84    4.98
   5 -14 -10    7.22    2.21
  -5 -14  10   10.33    2.47
   5 -14  -9   47.26    4.58
   5 -14  -9   46.30    4.67
  -5 -14   9   45.90    4.43
  -5 -14   8   -0.54    1.52
   5 -14  -8    1.35    1.35
   5 -14  -7  151.84    7.82
  -5 -14   7  145.65    7.65
   5 -14  -6    2.24    1.26
  -5 -14   6    0.94    1.28
   5 -14  -6    1.83    1.41
   5 -14  -5  134.91    7.15
  -5 -14   5  129.43    6.80
   5 -14  -5  131.54    6.74
   5 -14  -4   -0.88    1.47
  -5 -14   4    1.20    1.21
   5 -14  -4    0.95    1.16
   5 -14  -3   48.17    4.01
  -5 -14   3   47.51    3.78
   5 -14  -3   44.70    3.69
   5 -14  -2   -0.15    1.40
  -5 -14   2    0.25    1.14
   5 -14  -2    3.19    1.29
   5 -14  -1  106.12    6.10
  -5 -14   1  115.31    5.85
   5 -14  -1  107.12    5.54
   5 -14   0    4.79    1.64
   5 -14   0    5.85    1.29
  -5 -14   0    5.37    1.46
   5 -14   1   76.92    5.12
  -5 -14  -1   86.77    4.89
   5 -14   1   84.71    4.81
   5 -14   2    0.83    1.07
  -5 -14  -2    1.69    1.07
   5 -14   2    3.41    1.36
   5 -14   3   30.71    3.27
   5 -14   3   31.04    2.90
  -5 -14  -3   30.85    2.80
   5 -14   4   16.33    2.49
   5 -14   4   17.58    2.14
  -5 -14  -4   14.39    2.00
   5 -14   5   15.11    2.63
   5 -14   5   14.77    2.14
  -5 -14  -5   14.47    2.02
   5 -14   6    2.66    1.77
   5 -14   7   11.35    2.38
   5 -14   8    1.23    1.38
   5 -14   9   11.86    2.60
   5 -14  10   -0.84    1.62
   5 -14  11   12.86    3.08
   5 -13 -14    0.61    1.50
   5 -13 -13    2.35    1.69
   5 -13 -12    0.81    1.90
   5 -13 -11    1.75    1.95
   5 -13 -10    1.44    1.61
   5 -13 -10    1.04    1.67
  -5 -13  10   -0.62    1.83
   5 -13  -9    3.25    1.98
  -5 -13   9    1.43    1.43
   5 -13  -8   12.51    2.50
  -5 -13   8   10.16    2.12
   5 -13  -7   14.51    2.67
  -5 -13   7    8.06    1.75
   5 -13  -6    3.55    1.48
  -5 -13   6    8.37    1.99
   5 -13  -5    7.39    1.95
  -5 -13   5    8.14    2.96
   5 -13  -5    6.83    1.71
   5 -13  -4   -0.51    1.50
  -5 -13   4    3.68    1.49
   5 -13  -4    1.43    1.07
   5 -13  -3    7.65    1.81
  -5 -13   3    6.11    1.65
   5 -13  -3    5.14    1.31
   5 -13  -2   63.07    4.57
  -5 -13   2   61.19    4.16
   5 -13  -2   71.16    4.35
   5 -13  -1   23.26    2.85
  -5 -13   1   23.33    2.56
   5 -13  -1   22.95    2.48
   5 -13   0   28.52    3.15
  -5 -13   0   26.07    2.56
   5 -13   0   22.90    2.38
   5 -13   1   39.13    3.61
  -5 -13  -1   38.21    3.06
   5 -13   1   40.98    3.13
   5 -13   2   24.50    3.10
   5 -13   2   26.65    2.60
  -5 -13  -2   25.13    2.48
   5 -13   3   13.09    2.32
   5 -13   3   11.34    1.81
  -5 -13  -3   15.48    1.92
   5 -13   4   47.96    4.20
   5 -13   4   41.49    3.13
  -5 -13  -4   54.26    3.51
   5 -13   5   16.77    2.81
   5 -13   5   23.51    2.45
  -5 -13  -5   19.50    2.12
   5 -13   6   48.37    3.41
   5 -13   6   45.07    4.21
   5 -13   7   21.23    3.11
   5 -13   8   21.66    3.30
   5 -13   9   12.62    2.76
   5 -13  10   26.11    3.75
   5 -13  11   17.20    3.91
   5 -13  12    6.66    2.34
   5 -12 -14   46.13    5.10
   5 -12 -13   15.10    3.00
   5 -12 -12   13.85    2.84
   5 -12 -11    5.65    2.77
   5 -12 -10   37.18    4.14
   5 -12 -10   34.60    4.07
   5 -12  -9    2.08    1.45
   5 -12  -8   99.19    6.30
  -5 -12   8   95.54    6.00
  -5 -12   7   27.85    3.14
   5 -12  -7   26.20    3.16
   5 -12  -6   40.28    3.93
  -5 -12   6   45.30    3.85
   5 -12  -5   29.55    3.34
  -5 -12   5   31.21    3.20
   5 -12  -5   32.64    3.07
   5 -12  -4   63.62    4.64
  -5 -12   4   60.80    4.17
   5 -12  -4   62.01    4.13
   5 -12  -3    6.25    1.73
  -5 -12   3    9.06    1.76
   5 -12  -3    7.15    1.52
   5 -12  -2   49.53    4.06
  -5 -12   2   46.27    3.40
   5 -12  -2   50.99    3.52
   5 -12  -1   22.04    2.67
  -5 -12   1   14.42    1.93
   5 -12  -1   19.90    2.22
   5 -12   0   64.94    4.64
  -5 -12   0   71.04    4.10
   5 -12   0   59.93    3.69
   5 -12   1   44.71    3.82
  -5 -12  -1   42.73    3.11
   5 -12   1   43.96    3.10
   5 -12   2  125.29    6.66
  -5 -12  -2  135.34    5.59
   5 -12   2  125.38    5.45
   5 -12   3    0.35    1.23
   5 -12   3    0.92    0.81
  -5 -12  -3    0.80    0.95
   5 -12   4   26.62    3.14
   5 -12   4   26.76    2.38
  -5 -12  -4   28.09    2.43
   5 -12   5    5.96    1.83
   5 -12   5    4.27    1.17
  -5 -12  -5    7.10    1.39
   5 -12   6   10.67    2.37
   5 -12   6   12.26    1.74
  -5 -12  -6   13.85    1.84
   5 -12   7   15.77    2.69
   5 -12   8    6.81    2.27
   5 -12   9    0.68    1.41
   5 -12  10    4.30    2.11
   5 -12  11    0.48    1.43
   5 -12  12   -0.84    1.92
   5 -11 -15    6.22    2.63
   5 -11 -14    2.11    1.48
   5 -11 -13   10.86    2.79
   5 -11 -12    5.26    2.05
   5 -11 -11    4.32    2.05
   5 -11 -10   14.96    2.82
   5 -11  -9   -0.48    1.32
   5 -11  -8    0.39    1.55
   5 -11  -7    6.65    1.92
  -5 -11   7    6.54    1.71
   5 -11  -6   23.60    3.07
  -5 -11   6   25.88    2.90
   5 -11  -5   14.86    2.43
  -5 -11   5   13.75    2.07
   5 -11  -4   -1.78    1.40
  -5 -11   4    2.63    1.25
   5 -11  -4    2.21    1.16
   5 -11  -3   62.42    4.56
  -5 -11   3   66.90    4.09
   5 -11  -3   65.98    4.05
   5 -11  -2   28.94    3.13
  -5 -11   2   33.89    2.84
   5 -11  -2   34.11    2.73
   5 -11  -1   91.43    5.48
  -5 -11   1   80.44    4.33
   5 -11  -1   91.04    4.48
   5 -11   0    0.87    1.07
  -5 -11   0    2.12    1.02
   5 -11   0    2.45    0.99
   5 -11   1  115.38    6.29
  -5 -11  -1  131.62    5.32
   5 -11   1  113.90    4.99
   5 -11   2   36.34    3.52
  -5 -11  -2   37.65    2.69
   5 -11   2   38.81    2.72
   5 -11   3   96.79    5.85
  -5 -11  -3  113.10    4.72
   5 -11   3   94.69    4.39
   5 -11   4   -0.53    1.20
   5 -11   4    0.84    0.78
  -5 -11  -4    0.77    0.79
   5 -11   5  103.97    6.34
   5 -11   5  114.91    4.95
  -5 -11  -5  123.01    4.99
   5 -11   6   -0.15    1.27
   5 -11   6    1.11    0.91
  -5 -11  -6    0.25    0.79
   5 -11   7   66.60    5.21
   5 -11   8    5.41    2.06
   5 -11   9   77.54    5.85
   5 -11  10    4.92    2.27
   5 -11  11   42.85    4.60
   5 -11  12    9.25    2.62
   5 -10 -15   12.26    3.04
   5 -10 -14   15.29    3.06
   5 -10 -13    8.29    2.35
   5 -10 -12   29.21    3.88
   5 -10 -11   55.14    5.16
   5 -10 -11   55.65    4.99
   5 -10 -10   36.37    4.06
   5 -10  -9   80.52    5.79
   5 -10  -8   40.18    4.10
   5 -10  -7   10.92    2.16
   5 -10  -6  156.86    7.87
  -5 -10   6  175.05    7.43
   5 -10  -5   33.88    3.42
  -5 -10   5   39.49    3.24
   5 -10  -4   15.55    2.35
  -5 -10   4   19.34    2.36
   5 -10  -3   36.90    3.52
  -5 -10   3   36.25    2.85
   5 -10  -3   38.08    2.88
   5 -10  -2    1.28    1.11
  -5 -10   2    5.89    1.31
   5 -10  -2    3.30    1.02
   5 -10  -1   20.00    2.64
  -5 -10   1   18.49    1.94
   5 -10  -1   18.92    1.94
   5 -10   0  106.97    6.01
  -5 -10   0  109.85    4.80
   5 -10   0  113.26    4.76
   5 -10   1   25.54    2.92
  -5 -10  -1   28.81    2.23
   5 -10   1   30.68    2.27
   5 -10   2   12.04    2.06
  -5 -10  -2   12.22    1.46
   5 -10   2   12.23    1.43
   5 -10   3   27.04    3.15
   5 -10   3   30.75    2.19
  -5 -10  -3   30.48    2.18
   5 -10   4    0.51    1.22
   5 -10   4    1.13    0.79
  -5 -10  -4    1.38    0.76
   5 -10   5   25.24    3.11
   5 -10   5   23.43    2.07
  -5 -10  -5   24.83    2.04
   5 -10   6    0.62    1.28
   5 -10   6    1.13    0.79
   5 -10   7   10.14    2.32
   5 -10   8    6.47    2.11
   5 -10   9    5.39    2.13
   5 -10  10    6.22    1.92
   5 -10  11    4.50    1.92
   5 -10  12    3.58    1.81
   5  -9 -15    2.88    1.73
   5  -9 -14   -0.10    1.53
   5  -9 -13    2.80    1.89
   5  -9 -12    4.81    2.29
   5  -9 -11    2.68    1.72
   5  -9 -11    5.80    2.22
   5  -9 -10    1.62    1.80
   5  -9  -9    1.34    1.56
   5  -9  -8   14.48    2.59
   5  -9  -7    6.04    1.85
   5  -9  -6   12.32    2.35
  -5  -9   6   12.33    1.94
   5  -9  -5    5.32    1.68
  -5  -9   5    4.21    1.25
   5  -9  -4   80.97    5.25
  -5  -9   4   72.93    4.21
   5  -9  -3    7.76    1.79
  -5  -9   3    8.95    1.57
   5  -9  -2   49.46    4.02
  -5  -9   2   52.05    3.19
   5  -9  -2   59.65    3.31
   5  -9  -1   23.85    2.79
  -5  -9   1   29.92    2.31
   5  -9  -1   24.90    2.07
   5  -9   0   11.02    1.98
  -5  -9   0   12.86    1.61
   5  -9   0   12.19    1.48
   5  -9   1   56.22    4.31
  -5  -9  -1   52.18    2.89
   5  -9   1   59.45    3.03
   5  -9   2    1.38    1.27
  -5  -9  -2    1.03    0.71
   5  -9   2    2.01    0.81
   5  -9   3    1.95    1.27
   5  -9   3    0.27    0.60
  -5  -9  -3    1.13    0.73
   5  -9   4    7.53    1.89
   5  -9   4    7.89    1.10
  -5  -9  -4    7.12    1.08
   5  -9   5    6.05    1.86
   5  -9   5    5.07    1.05
  -5  -9  -5    3.66    0.88
   5  -9   6   23.49    1.91
   5  -9   6   21.65    3.05
   5  -9   7   12.70    1.51
   5  -9   7   12.32    2.35
   5  -9   8    5.01    1.98
   5  -9   9   -0.67    1.41
   5  -9  10   34.56    4.04
   5  -9  11   10.11    2.68
   5  -9  12   21.40    3.32
   5  -8 -15   39.77    4.72
   5  -8 -14    5.94    2.11
   5  -8 -13  110.28    7.44
   5  -8 -12    9.12    2.58
   5  -8 -11  109.64    7.21
   5  -8 -10   36.79    4.13
   5  -8  -9  193.66    9.26
   5  -8  -8   32.28    3.57
   5  -8  -7  187.04    8.71
   5  -8  -6    0.86    1.22
   5  -8  -5   77.94    5.18
  -5  -8   5   84.38    4.51
   5  -8  -4   40.20    3.62
  -5  -8   4   41.93    3.01
   5  -8  -3  371.88   12.89
  -5  -8   3  404.57   11.22
   5  -8  -2   60.21    4.36
  -5  -8   2   61.17    3.32
   5  -8  -1  102.31    5.89
  -5  -8   1  121.05    4.63
   5  -8   0    6.05    1.92
  -5  -8   0    5.32    0.97
   5  -8   0    4.40    0.81
   5  -8   1  545.78   16.75
  -5  -8  -1  599.52   13.76
   5  -8   1  578.66   13.58
   5  -8   2   23.73    2.86
  -5  -8  -2   32.39    1.96
   5  -8   2   31.74    1.91
   5  -8   3  268.89   10.45
   5  -8   3  273.13    7.26
  -5  -8  -3  278.44    7.33
   5  -8   4   39.99    3.70
   5  -8   4   42.52    2.17
  -5  -8  -4   45.91    2.28
   5  -8   5  101.39    6.17
   5  -8   5  104.70    3.78
   5  -8   6    0.91    1.27
   5  -8   6    1.83    0.78
   5  -8   7  130.45    4.64
   5  -8   7  135.27    7.52
   5  -8   8    0.44    1.70
   5  -8   9   51.73    4.80
   5  -8  10    1.16    1.48
   5  -8  11   10.41    2.55
   5  -8  12    4.43    2.28
   5  -7 -15   21.30    3.85
   5  -7 -14   -0.13    1.66
   5  -7 -13    3.32    1.64
   5  -7 -12    1.52    1.49
   5  -7 -11    2.90    1.93
   5  -7 -10    4.37    1.81
   5  -7  -9   23.92    3.29
   5  -7  -8    6.76    1.80
   5  -7  -7    2.04    1.37
   5  -7  -6    1.77    1.31
   5  -7  -5   70.76    4.86
   5  -7  -4   32.02    3.30
  -5  -7   4   35.59    2.65
   5  -7  -3   58.27    4.35
  -5  -7   3   54.63    3.17
   5  -7  -2   55.78    4.22
  -5  -7   2   58.38    3.06
   5  -7  -1   10.25    1.92
  -5  -7   1   16.01    1.49
   5  -7   0   10.17    1.94
  -5  -7   0    7.61    1.01
   5  -7   1   61.36    4.50
  -5  -7  -1   75.51    2.93
   5  -7   1   71.35    2.80
   5  -7   2   23.04    2.76
   5  -7   2   22.99    2.44
  -5  -7  -2   22.12    1.40
   5  -7   2   24.84    1.46
   5  -7   3   88.23    5.51
   5  -7   3   82.66    4.78
   5  -7   3   86.04    2.89
  -5  -7  -3   88.23    2.97
   5  -7   4   37.14    3.60
   5  -7   4   32.20    1.59
   5  -7   5   15.41    2.48
   5  -7   5   14.34    1.12
   5  -7   6    7.81    1.96
   5  -7   6    8.81    0.96
   5  -7   7   17.10    1.40
   5  -7   7   12.06    2.39
   5  -7   8   32.81    3.75
   5  -7   9   21.41    3.18
   5  -7  10   24.58    3.57
   5  -7  11    8.51    2.38
   5  -7  12   18.31    3.18
   5  -6 -15    1.72    1.67
   5  -6 -14   71.41    6.13
   5  -6 -13    2.37    1.67
   5  -6 -12  158.04    8.78
   5  -6 -12  148.54    8.48
   5  -6 -11   -1.37    1.56
   5  -6 -10  394.53   14.43
   5  -6  -9   34.11    3.70
   5  -6  -8  424.45   14.57
   5  -6  -7    7.71    1.81
   5  -6  -6  219.76    9.31
   5  -6  -5   60.01    4.49
   5  -6  -4  414.02   13.80
  -5  -6   4  441.78   11.79
   5  -6  -3   91.42    5.54
  -5  -6   3   96.97    4.15
   5  -6  -2  239.61    9.52
  -5  -6   2  250.48    7.25
   5  -6  -1   18.91    2.58
  -5  -6   1   20.47    1.56
   5  -6   0  248.78    9.68
  -5  -6   0  257.48    6.71
   5  -6   1   64.57    4.56
   5  -6   1   59.72    3.64
  -5  -6  -1   64.93    2.35
   5  -6   2  200.29    8.60
   5  -6   2  185.50    7.31
  -5  -6  -2  201.62    4.86
   5  -6   3    5.34    1.54
   5  -6   3    3.99    1.31
   5  -6   4   74.90    5.12
   5  -6   5   19.92    2.78
   5  -6   5   20.30    0.92
   5  -6   6    3.63    1.53
   5  -6   6    4.17    0.60
   5  -6   7    2.41    1.74
   5  -6   7    2.57    0.63
   5  -6   8    8.43    1.94
   5  -6   9    4.19    2.02
   5  -6  10    2.28    1.64
   5  -6  11    0.89    1.47
   5  -6  12    0.22    1.38
   5  -5 -15    6.36    2.16
   5  -5 -14    4.08    1.98
   5  -5 -13    4.12    1.92
   5  -5 -12    1.33    1.75
   5  -5 -12    0.17    1.45
   5  -5 -11    3.56    2.14
   5  -5 -10   11.52    2.50
   5  -5  -9    8.28    2.26
   5  -5  -8   48.51    4.29
   5  -5  -7   44.34    4.04
   5  -5  -6   25.17    3.06
   5  -5  -5  304.80   11.21
   5  -5  -4   18.15    2.54
   5  -5  -3   82.69    5.21
  -5  -5   3   80.89    3.59
   5  -5  -2    4.09    1.27
  -5  -5   2    6.15    1.05
   5  -5  -1   47.48    3.88
  -5  -5   1   50.22    2.26
   5  -5   0    4.29    1.46
   5  -5   0    4.41    1.03
  -5  -5   0    3.63    0.58
   5  -5   1  168.32    7.76
   5  -5   1  172.97    6.55
  -5  -5  -1  176.00    4.03
   5  -5   2   16.15    2.44
   5  -5   2   11.26    1.75
   5  -5   3  122.96    6.64
   5  -5   3  132.82    5.98
   5  -5   4   -0.17    1.08
   5  -5   4    2.20    0.97
   5  -5   5  126.70    6.90
   5  -5   6    1.35    1.39
   5  -5   7   27.19    3.29
   5  -5   7   29.30    1.20
   5  -5   8    0.34    1.32
   5  -5   9   51.72    4.74
   5  -5  10    2.72    1.33
   5  -5  11   42.42    4.60
   5  -5  12    4.36    2.07
   5  -5  13   12.04    2.85
  -5  -5 -13   12.02    3.07
   5  -4 -15   14.87    3.09
   5  -4 -14   36.94    4.36
   5  -4 -13   13.60    2.89
   5  -4 -12   61.24    5.40
   5  -4 -12   57.57    5.14
   5  -4 -11   38.58    4.29
   5  -4 -10  219.48   10.11
   5  -4  -9   39.45    3.99
   5  -4  -8  135.95    7.34
   5  -4  -7   16.26    2.62
   5  -4  -6  183.22    8.36
   5  -4  -5   66.65    4.72
   5  -4  -4  159.76    7.52
   5  -4  -3    5.03    1.50
   5  -4  -2  223.07    9.18
  -5  -4   2  245.87    6.60
   5  -4  -1  118.33    6.27
  -5  -4   1  122.76    3.64
   5  -4  -1  121.44    4.63
   5  -4   0  122.09    6.29
   5  -4   0  118.89    4.82
  -5  -4   0  115.81    2.88
   5  -4   1  111.54    6.10
   5  -4   1  110.29    4.87
   5  -4   2  209.62    8.83
   5  -4   2  214.38    7.61
   5  -4   3   82.92    5.27
   5  -4   3   76.80    4.39
   5  -4   4   25.82    3.09
   5  -4   4   27.88    2.74
   5  -4   5   12.69    2.30
   5  -4   6    6.08    1.99
   5  -4   7    3.67    1.59
   5  -4   8   25.07    3.24
   5  -4   9   11.40    2.39
   5  -4  10    3.40    1.93
   5  -4  11    4.00    2.01
   5  -4  12   -2.06    1.66
   5  -4  13   -0.86    1.55
  -5  -4 -13    1.54    1.72
   5  -3 -15    3.54    1.86
   5  -3 -14   -1.53    1.75
   5  -3 -13    3.49    2.17
   5  -3 -12    5.82    2.16
   5  -3 -12    1.79    1.79
   5  -3 -11    5.97    1.79
   5  -3 -10    2.48    1.70
   5  -3  -9    9.95    2.19
   5  -3  -8   43.67    4.13
   5  -3  -7    6.67    1.91
   5  -3  -6   10.07    2.05
   5  -3  -5    2.30    1.27
   5  -3  -4   55.46    4.26
   5  -3  -3    3.86    1.52
   5  -3  -2   86.98    5.29
  -5  -3   2   90.58    3.17
   5  -3  -1    5.83    1.65
  -5  -3   1    6.81    0.62
   5  -3  -1    5.91    0.97
  -5  -3   1    5.71    0.56
   5  -3   0   36.46    3.41
   5  -3   0   40.94    2.62
   5  -3   1   18.74    2.55
   5  -3   1   14.01    1.70
   5  -3   2  127.72    6.59
   5  -3   2  124.07    5.42
   5  -3   3   64.33    4.62
   5  -3   3   65.10    3.97
   5  -3   4  121.30    6.61
   5  -3   5    3.58    1.48
   5  -3   6   28.45    3.41
   5  -3   7    0.74    1.28
   5  -3   8   98.24    6.35
   5  -3   9    7.92    2.06
   5  -3  10   88.77    6.33
   5  -3  11    4.76    2.01
   5  -3  12   34.01    4.33
   5  -3  13    8.02    2.40
  -5  -3 -13    1.70    1.79
   5  -2 -15   30.95    4.20
   5  -2 -14   17.80    3.16
   5  -2 -13   90.67    6.76
   5  -2 -12    8.91    2.29
   5  -2 -12   12.37    2.62
   5  -2 -11  104.10    6.89
   5  -2 -10    4.27    1.85
   5  -2  -9  198.34    9.23
   5  -2  -8   51.65    4.46
   5  -2  -7  226.15    9.57
   5  -2  -6   14.45    2.31
   5  -2  -5  109.46    6.15
   5  -2  -4   10.40    1.93
   5  -2  -3  176.78    7.89
  -5  -2   3  182.63    5.38
   5  -2  -2    4.28    1.48
   5  -2  -2    5.44    0.82
  -5  -2   2    5.64    0.72
  -5  -2   2    5.44    0.69
   5  -2  -1  219.64    8.87
   5  -2  -1  214.82    6.48
   5  -2   0   16.74    2.36
   5  -2   0   15.03    1.61
   5  -2   1  272.20   10.24
   5  -2   1  269.94    8.41
   5  -2   2   68.86    4.74
   5  -2   3  327.41   11.68
   5  -2   4    2.36    1.46
   5  -2   5    8.66    1.93
   5  -2   6    0.95    1.33
   5  -2   7   88.04    5.86
   5  -2   8    5.77    1.98
   5  -2   9   35.81    3.96
   5  -2  10    4.77    1.67
   5  -2  11   20.25    3.36
   5  -2  12    3.55    1.68
  -5  -2 -12    2.45    1.41
   5  -2  13    1.49    1.52
  -5  -2 -13    4.87    2.53
   5  -1 -16    5.28    2.29
   5  -1 -15   12.87    2.83
   5  -1 -14    4.37    2.32
   5  -1 -13    0.92    1.68
   5  -1 -12    3.51    1.63
   5  -1 -12    4.18    2.00
   5  -1 -11   -2.12    1.85
   5  -1 -10   11.87    2.56
   5  -1  -9   17.83    2.80
  -5  -1   9   17.52    2.16
   5  -1  -8   10.82    2.25
  -5  -1   8   10.01    1.66
   5  -1  -7   34.66    3.60
  -5  -1   7   33.37    2.69
   5  -1  -6   -0.58    1.16
  -5  -1   6    0.41    0.94
   5  -1  -5   14.59    2.34
  -5  -1   5   14.77    1.56
   5  -1  -4  120.56    6.38
  -5  -1   4  112.21    4.22
   5  -1  -3   42.78    3.69
  -5  -1   3   43.28    2.15
   5  -1  -2    2.45    1.19
   5  -1  -2    3.89    0.74
  -5  -1   2    3.75    0.57
   5  -1  -1  122.70    6.39
   5  -1  -1  127.74    4.50
   5  -1   0   51.91    4.02
   5  -1   0   51.02    2.86
   5  -1   1  107.47    5.97
   5  -1   2   31.30    3.24
   5  -1   3   67.60    4.74
   5  -1   4   20.97    2.68
   5  -1   5   65.27    4.80
   5  -1   6   16.16    2.60
   5  -1   7   12.75    2.44
   5  -1   8   13.92    2.59
   5  -1   9   72.39    5.62
   5  -1  10   11.90    2.69
   5  -1  11   29.63    3.85
   5  -1  12   11.23    2.72
  -5  -1 -12   18.34    3.25
   5  -1  13   11.07    2.58
  -5  -1 -13   21.00    3.65
   5   0 -16   65.94    6.23
   5   0 -15    1.62    1.75
   5   0 -14   49.92    5.12
   5   0 -13    2.67    1.73
   5   0 -12  132.77    8.01
   5   0 -12  134.88    7.92
   5   0 -11    5.63    2.08
   5   0 -10  201.22    9.54
   5   0  -9    4.39    1.80
  -5   0   9    6.51    1.57
   5   0  -8  104.80    6.40
  -5   0   8  107.71    5.18
   5   0  -7    7.57    1.92
  -5   0   7    4.38    1.11
   5   0  -6  571.50   17.12
  -5   0   6  560.66   14.41
   5   0  -5    0.41    1.11
  -5   0   5    0.89    0.71
   5   0  -4   65.85    4.59
  -5   0   4   53.90    2.73
   5   0  -3   12.97    2.16
   5   0  -3   15.21    0.98
  -5   0   3   13.66    1.18
   5   0  -2  207.17    8.64
   5   0  -2  211.12    5.86
  -5   0   2  211.59    5.34
   5   0  -1    2.07    1.04
   5   0   0  400.80   13.03
   5   0   1   -0.41    1.19
   5   0   2  250.13    9.76
   5   0   3   16.13    2.36
   5   0   4   38.48    3.70
   5   0   5   -0.41    1.42
   5   0   6    0.59    1.23
   5   0   7    5.24    1.78
   5   0   8   26.23    3.33
   5   0   9    0.66    1.37
   5   0  10   17.27    3.08
   5   0  11    6.02    2.50
   5   0  12    4.09    2.15
  -5   0 -12    2.01    1.61
   5   0  13   -2.01    2.12
  -5   0 -13    1.63    1.64
   5   1 -16    6.25    2.27
   5   1 -15    6.54    2.41
   5   1 -14    4.19    2.13
   5   1 -13    5.75    2.14
   5   1 -12    1.97    1.68
   5   1 -12    4.02    1.99
   5   1 -11    1.60    1.48
   5   1 -10    9.25    2.13
   5   1  -9   19.79    2.92
  -5   1   9   15.33    2.07
   5   1  -8   10.67    2.25
  -5   1   8    9.42    1.55
   5   1  -7   37.23    3.67
  -5   1   7   31.90    2.60
   5   1  -6    1.01    1.23
  -5   1   6    1.02    0.83
   5   1  -5   16.77    2.43
  -5   1   5   14.10    1.48
   5   1  -4  116.59    6.25
  -5   1   4  112.45    4.19
   5   1  -3   44.76    3.75
   5   1  -3   47.21    1.85
  -5   1   3   41.29    2.13
   5   1  -2    2.53    1.27
  -5   1   2    3.94    0.62
   5   1  -1  123.10    6.36
   5   1   0   47.37    3.85
   5   1   1  113.32    6.14
   5   1   2   21.81    2.76
   5   1   3   66.90    4.69
   5   1   4   26.42    3.06
   5   1   5   57.09    4.52
   5   1   6   17.78    2.72
   5   1   7   13.23    2.46
   5   1   8   19.29    2.93
   5   1   9   70.98    5.54
   5   1  10   19.85    3.20
   5   1  11   31.06    4.01
   5   1  12   18.96    3.29
  -5   1 -12   16.69    3.21
   5   1  13   18.56    3.22
  -5   1 -13   19.24    3.57
   5   2 -16    4.11    2.49
   5   2 -15   34.40    4.43
   5   2 -14   15.75    2.94
   5   2 -13   98.00    6.92
   5   2 -12   11.03    2.46
   5   2 -12    6.68    2.48
   5   2 -11  106.62    6.94
   5   2 -10    6.01    1.98
   5   2  -9  205.59    9.34
  -5   2   9  191.27    7.69
   5   2  -8   53.58    4.57
  -5   2   8   55.77    3.67
   5   2  -7  216.50    9.38
  -5   2   7  209.20    7.46
   5   2  -6   16.21    2.51
  -5   2   6   12.54    1.59
   5   2  -5  121.85    6.46
  -5   2   5  114.15    4.71
   5   2  -4    9.37    1.88
  -5   2   4    9.66    1.13
   5   2  -3  183.10    8.04
  -5   2   3  183.95    5.48
   5   2  -2    3.30    1.21
  -5   2   2    5.44    0.73
   5   2  -1  210.56    8.64
   5   2   0   20.14    2.52
   5   2   1  275.26   10.28
   5   2   2   66.56    4.64
   5   2   3  313.50   11.35
   5   2   4    5.31    1.56
   5   2   5    9.85    2.07
   5   2   6    2.29    1.40
   5   2   7   90.50    6.01
   5   2   8    6.60    2.08
   5   2   9   40.13    4.14
   5   2  10    4.52    1.86
   5   2  11   22.44    3.47
   5   2  12    5.32    2.26
   5   2  13    3.97    1.88
  -5   2 -13    0.63    1.68
   5   3 -15    1.87    1.63
   5   3 -14    3.14    2.01
   5   3 -13    2.28    1.75
   5   3 -12    3.11    1.68
   5   3 -12    3.41    1.89
   5   3 -11    6.46    2.18
   5   3 -10    6.15    1.97
   5   3  -9    8.45    2.00
  -5   3   9    8.98    1.65
   5   3  -8   45.42    4.20
  -5   3   8   43.56    3.26
   5   3  -7    5.76    1.80
  -5   3   7    4.23    1.21
   5   3  -6   11.87    2.18
  -5   3   6    9.50    1.52
   5   3  -5    1.46    1.19
  -5   3   5    4.37    1.31
   5   3  -4   56.05    4.25
  -5   3   4   47.06    2.66
   5   3  -3    3.84    1.45
  -5   3   3    2.84    0.70
   5   3  -2   76.47    4.95
  -5   3   2   88.24    3.08
   5   3  -1    5.79    1.66
  -5   3   1    5.83    0.58
   5   3   0   33.11    3.25
   5   3   1   13.59    2.15
   5   3   2  111.39    6.12
   5   3   3   69.44    4.77
   5   3   4  122.17    6.60
   5   3   5    2.98    1.41
   5   3   6   19.87    2.76
   5   3   7    3.06    1.64
   5   3   8   94.39    6.28
   5   3   9    9.73    2.23
   5   3  10   78.43    5.99
   5   3  11    0.99    1.74
   5   3  12   38.28    4.45
   5   3  13    2.21    1.60
  -5   3 -13    4.23    2.23
   5   4 -15   10.83    2.80
   5   4 -14   40.65    4.63
   5   4 -13   11.45    2.54
   5   4 -12   62.44    5.53
   5   4 -12   60.14    5.25
   5   4 -11   35.30    4.07
   5   4 -10  213.58    9.93
   5   4  -9   39.13    3.91
  -5   4   9   29.52    2.92
   5   4  -8  129.93    7.16
  -5   4   8  133.14    6.02
   5   4  -7   20.46    2.84
  -5   4   7   21.44    2.23
   5   4  -6  194.45    8.59
  -5   4   6  183.62    6.75
   5   4  -5   64.65    4.63
  -5   4   5   57.91    3.27
   5   4  -4  166.60    7.61
  -5   4   4  149.00    5.39
   5   4  -3    4.19    1.51
  -5   4   3    6.24    0.96
   5   4  -2  215.16    8.90
  -5   4   2  221.81    6.12
   5   4  -1  124.07    6.29
  -5   4   1  109.70    3.39
   5   4   0  122.59    6.33
   5   4   1  116.54    6.19
   5   4   2  199.12    8.53
   5   4   3   79.94    5.23
   5   4   4   29.89    3.25
   5   4   5    8.76    1.99
   5   4   6    5.42    1.72
   5   4   7    4.27    1.76
   5   4   8   23.61    3.13
   5   4   9    9.47    2.42
   5   4  10    0.39    1.46
   5   4  11    1.76    1.64
   5   4  12    1.01    1.46
   5   4  13    4.86    2.20
  -5   4 -13   -0.83    1.60
   5   5 -15    3.71    1.55
   5   5 -14   -1.17    1.52
   5   5 -13    8.61    2.35
   5   5 -12   -1.26    1.53
   5   5 -12    0.81    1.40
   5   5 -11    2.01    1.56
   5   5 -10    9.10    2.15
   5   5  -9    4.51    1.65
   5   5  -8   49.93    4.34
  -5   5   8   44.01    3.38
   5   5  -7   43.76    4.00
  -5   5   7   38.37    3.07
   5   5  -6   19.90    2.69
  -5   5   6   21.11    2.09
   5   5  -5  308.69   11.44
   5   5  -5  341.18    7.52
  -5   5   5  290.26    9.34
   5   5  -4   19.18    2.63
  -5   5   4   20.63    1.89
  -5   5   3   81.20    3.57
   5   5  -3   86.00    5.29
  -5   5   2    5.54    0.90
   5   5  -2    4.46    1.42
  -5   5   1   47.40    2.20
   5   5  -1   49.43    3.94
   5   5   0    4.33    1.56
   5   5   1  183.52    8.03
   5   5   2   14.86    2.36
   5   5   3  127.79    6.67
   5   5   4    3.39    1.40
   5   5   5  127.36    6.88
   5   5   6    1.95    1.27
   5   5   7   31.31    3.50
   5   5   8    0.73    1.35
   5   5   9   56.00    4.92
   5   5  10    6.44    2.17
   5   5  11   39.57    4.43
   5   5  12    1.16    1.47
   5   5  13   15.42    3.16
   5   6 -15    1.59    1.71
   5   6 -14   74.67    6.23
   5   6 -13    0.03    1.78
   5   6 -12  162.12    8.86
   5   6 -12  151.01    8.52
   5   6 -11    0.65    1.44
   5   6 -10  376.59   13.95
   5   6  -9   39.99    4.03
   5   6  -8  444.80   14.82
  -5   6   8  423.08   13.03
   5   6  -7    7.80    1.82
  -5   6   7    8.24    1.60
   5   6  -6  230.11    5.60
  -5   6   6  221.29    7.93
   5   6  -6  223.62    9.41
  -5   6   5   47.57    3.15
   5   6  -5   55.16    4.24
  -5   6   4  427.74   11.63
   5   6  -4  433.66   13.89
  -5   6   3   93.05    4.02
   5   6  -3   95.42    5.57
  -5   6   2  234.87    6.93
   5   6  -2  236.30    9.32
  -5   6   1   21.11    1.58
   5   6  -1   18.46    2.47
   5   6   0  235.12    9.27
   5   6   1   67.39    4.65
   5   6   2  202.49    8.60
   5   6   3    2.90    1.42
   5   6   4   68.23    4.83
   5   6   5   23.17    2.96
   5   6   6    6.80    1.93
   5   6   7    1.44    1.26
   5   6   8   14.08    2.70
   5   6   9    3.49    2.03
   5   6  10    6.48    2.11
   5   6  11   -0.37    1.45
   5   6  12    0.32    1.39
   5   7 -15   18.92    3.34
   5   7 -14    1.30    1.51
   5   7 -13    3.67    1.84
   5   7 -12    4.28    2.11
   5   7 -11    1.23    1.61
   5   7 -10    2.08    1.55
   5   7  -9   20.76    3.07
   5   7  -8    7.00    1.96
  -5   7   8    4.33    1.37
   5   7  -7    3.96    2.36
  -5   7   7    3.76    1.06
   5   7  -6    8.39    1.97
   5   7  -6    4.57    0.82
  -5   7   6    6.24    1.32
  -5   7   5   66.18    3.83
   5   7  -5   70.06    4.87
  -5   7   4   29.64    2.38
   5   7  -4   30.24    3.18
  -5   7   3   55.12    3.11
   5   7  -3   48.41    3.95
  -5   7   2   52.40    2.90
   5   7  -2   56.32    4.19
  -5   7   1   16.32    1.53
   5   7  -1   13.10    2.14
   5   7   0    5.36    1.51
   5   7   1   73.21    4.83
   5   7   2   21.70    2.77
   5   7   3   88.34    5.51
   5   7   4   32.92    3.82
   5   7   5   15.86    2.58
   5   7   6   13.73    2.54
   5   7   7   12.87    2.50
   5   7   8   28.25    3.42
   5   7   9   23.65    3.26
   5   7  10   24.65    3.45
   5   7  11    8.23    2.47
   5   7  12   13.33    2.65
   5   8 -15   48.66    5.26
   5   8 -14    4.36    1.89
   5   8 -13  111.43    7.41
   5   8 -12    8.34    2.35
   5   8 -11  113.43    7.15
   5   8 -11  104.01    6.79
   5   8 -10   42.35    4.38
   5   8  -9  199.72    9.33
   5   8  -8   33.20    3.62
   5   8  -7  189.32    8.81
   5   8  -7  203.61    5.81
  -5   8   7  195.77    7.85
   5   8  -6    1.66    1.41
   5   8  -6    0.01    0.65
  -5   8   6   -0.24    0.96
  -5   8   5   81.91    4.43
   5   8  -5   76.84    5.15
  -5   8   4   45.41    3.07
   5   8  -4   48.48    4.07
  -5   8   3  372.97   10.74
   5   8  -3  386.88   12.86
  -5   8   2   57.89    3.22
   5   8  -2   64.61    4.58
  -5   8   1  105.35    4.32
   5   8  -1  110.09    6.04
   5   8   0    5.64    1.72
   5   8   1  562.44   16.59
   5   8   2   29.06    3.10
   5   8   3  255.69   10.01
   5   8   4   42.26    3.83
   5   8   5  105.18    6.23
   5   8   6    1.51    1.29
   5   8   7  131.49    7.36
   5   8   8    2.47    1.61
   5   8   9   47.53    4.61
   5   8  10    0.09    1.56
   5   8  11   15.33    3.31
   5   8  12    0.26    1.35
   5   9 -15    8.71    2.71
   5   9 -14    0.43    1.61
   5   9 -13    3.48    1.94
   5   9 -12   -0.17    1.51
   5   9 -11    4.03    1.85
   5   9 -11    4.10    1.69
   5   9 -10   -1.00    1.76
   5   9  -9    0.59    1.54
   5   9  -8   12.89    2.38
   5   9  -7    3.42    0.90
   5   9  -7    3.75    1.53
  -5   9   6   14.18    2.11
   5   9  -6   13.68    1.47
   5   9  -6   14.95    2.41
  -5   9   5    3.86    1.22
   5   9  -5    4.32    1.37
  -5   9   4   73.29    4.13
   5   9  -4   77.64    5.03
  -5   9   3    6.92    1.31
   5   9  -3    9.54    1.94
  -5   9   2   50.03    3.14
   5   9  -2   48.96    3.97
  -5   9   1   29.28    2.27
   5   9  -1   25.58    2.91
  -5   9   0   12.39    1.47
   5   9   0   13.56    2.30
   5   9   1   56.73    4.28
   5   9   2   -0.55    1.13
   5   9   3    1.13    1.22
   5   9   4    7.81    1.88
   5   9   5    6.68    1.92
   5   9   6   17.53    2.70
   5   9   7    9.89    2.14
   5   9   8    6.33    1.86
   5   9   9    4.26    1.90
   5   9  10   36.87    4.16
   5   9  11   14.67    3.09
   5   9  12   20.28    3.41
   5  10 -15   10.27    2.81
   5  10 -14   11.12    2.81
   5  10 -13    7.85    2.28
   5  10 -12   35.44    4.20
   5  10 -11   49.88    5.02
   5  10 -11   52.95    5.00
   5  10 -10   25.43    3.59
   5  10  -9   79.32    5.74
   5  10  -8   48.32    4.32
  -5  10   8   41.07    2.47
   5  10  -8   41.52    2.59
  -5  10   7   12.44    1.46
   5  10  -7   13.97    1.55
   5  10  -7   11.81    2.37
   5  10  -6  162.63    7.87
   5  10  -6  168.79    5.91
  -5  10   6  151.18    6.93
  -5  10   5   33.99    3.00
   5  10  -5   30.36    3.25
  -5  10   4   19.73    2.19
   5  10  -4   18.24    2.56
  -5  10   3   32.96    2.79
   5  10  -3   40.73    3.64
  -5  10   2    2.65    1.05
   5  10  -2    3.90    1.32
  -5  10   1   19.26    2.09
   5  10  -1   17.09    2.43
  -5  10   0  104.09    4.59
   5  10   0  101.66    5.77
   5  10   1   29.68    3.09
   5  10   2   16.07    2.43
   5  10   3   24.76    3.02
   5  10   4    1.31    1.24
   5  10   5   28.56    3.22
   5  10   6    3.39    1.68
   5  10   7    9.33    2.17
   5  10   8    7.65    2.23
   5  10   9   -1.11    1.57
   5  10  10    9.21    2.34
   5  10  11    1.91    1.62
   5  10  12   -0.29    1.76
   5  11 -15    6.20    2.49
   5  11 -14   -0.78    1.98
   5  11 -13   11.70    2.71
   5  11 -12    1.30    1.71
   5  11 -11    2.86    1.86
   5  11 -10    7.26    2.22
   5  11  -9    1.91    1.19
   5  11  -8    2.72    1.09
  -5  11   8    0.88    0.71
   5  11  -8    2.70    1.69
  -5  11   7    6.10    1.25
   5  11  -7    3.18    0.85
   5  11  -7    5.23    1.82
   5  11  -6   31.97    2.52
  -5  11   6   28.47    2.28
   5  11  -6   22.06    2.92
  -5  11   5   14.05    1.96
   5  11  -5   14.38    2.30
  -5  11   4    0.40    1.01
   5  11  -4    2.30    1.45
  -5  11   3   63.82    4.01
   5  11  -3   58.05    4.32
  -5  11   2   33.17    2.82
   5  11  -2   31.53    3.21
  -5  11   1   82.03    4.36
   5  11  -1   84.39    5.19
  -5  11   0    1.48    1.00
   5  11   0    0.79    1.03
   5  11   1  126.11    6.51
   5  11   2   36.46    3.50
   5  11   3   96.49    5.78
   5  11   4    2.19    1.46
   5  11   5  112.91    6.48
   5  11   6    0.32    1.22
   5  11   7   62.10    4.97
   5  11   8   10.68    2.60
   5  11   9   72.76    5.65
   5  11  10    4.66    1.76
   5  11  11   43.52    4.56
   5  11  12    0.46    1.40
   5  12 -15   -2.39    1.91
   5  12 -14   38.72    4.81
   5  12 -13   13.52    2.87
   5  12 -12   17.81    2.89
   5  12 -11    6.59    2.41
   5  12 -10   35.58    4.11
   5  12 -10   37.84    4.00
   5  12  -9    3.38    1.75
   5  12  -8  106.23    6.45
   5  12  -8  103.79    4.75
  -5  12   8   94.68    4.49
  -5  12   7   24.88    2.26
   5  12  -7   25.27    2.29
   5  12  -7   23.32    3.05
   5  12  -6   48.08    4.15
  -5  12   6   45.10    3.09
  -5  12   5   27.02    2.47
   5  12  -5   35.02    3.55
  -5  12   4   59.20    4.10
   5  12  -4   62.20    4.50
  -5  12   3    6.26    1.54
   5  12  -3    4.46    1.51
  -5  12   2   49.08    3.54
   5  12  -2   44.82    3.78
  -5  12   1   18.62    2.29
   5  12  -1   18.20    2.53
  -5  12   0   64.57    3.96
   5  12   0   65.65    4.60
   5  12   1   39.83    3.62
   5  12   2  126.95    6.60
   5  12   3    1.30    1.08
   5  12   4   25.72    3.06
   5  12   5    5.50    1.79
   5  12   6   10.63    2.28
   5  12   7   12.40    2.43
   5  12   8   10.00    2.38
   5  12   9    8.36    2.24
   5  12  10    5.89    2.09
   5  12  11    3.73    1.87
   5  12  12    0.18    1.57
   5  13 -15    3.16    1.94
   5  13 -14   -0.05    1.69
   5  13 -13    3.57    1.98
   5  13 -12   -3.97    2.13
   5  13 -11    2.07    1.87
   5  13 -10    3.76    1.73
   5  13  -9    2.68    1.89
   5  13  -8   10.78    1.78
   5  13  -8    8.51    2.17
  -5  13   7   13.79    1.87
   5  13  -7   13.57    1.95
   5  13  -7   12.20    2.32
  -5  13   6    6.75    1.42
   5  13  -6    9.09    2.07
  -5  13   5    6.43    1.36
   5  13  -5    5.70    1.61
   5  13  -4    3.74    1.72
  -5  13   3    6.55    1.71
   5  13  -3    7.04    1.62
  -5  13   2   73.46    4.53
   5  13  -2   60.10    4.44
  -5  13   1   22.66    2.49
   5  13  -1   19.08    2.61
   5  13   0   29.05    3.17
   5  13   1   44.72    3.81
   5  13   2   27.10    3.01
   5  13   3   13.91    2.34
   5  13   4   48.04    4.06
   5  13   5   18.40    2.70
   5  13   6   38.26    3.84
   5  13   7   24.41    3.20
   5  13   8   21.81    3.18
   5  13   9   15.69    2.88
   5  13  10   33.77    3.96
   5  13  11   19.68    3.14
   5  13  12    2.69    1.93
   5  14 -14    0.11    1.59
   5  14 -13   39.55    4.53
   5  14 -12    9.20    2.40
   5  14 -11   54.40    4.99
   5  14 -10    6.23    2.02
   5  14  -9   39.97    4.30
   5  14  -9   46.27    4.40
   5  14  -8    2.66    1.47
   5  14  -8    2.83    1.51
   5  14  -7  148.84    7.63
  -5  14   7  141.60    6.28
   5  14  -7  148.33    6.52
  -5  14   6    4.48    1.22
   5  14  -6    4.03    1.69
   5  14  -5  136.56    7.02
  -5  14   5  135.44    6.23
  -5  14   4    1.45    0.98
   5  14  -4    0.27    1.14
   5  14  -3   50.01    4.01
   5  14  -2    1.82    1.13
   5  14  -1  102.55    5.88
   5  14   0    4.87    1.51
   5  14   1   79.14    5.10
   5  14   2    0.94    1.05
   5  14   3   28.23    3.06
   5  14   4   16.63    2.58
   5  14   5   13.88    2.52
   5  14   6    3.28    1.80
   5  14   7   11.32    2.24
   5  14   8    5.62    2.08
   5  14   9    6.64    2.00
   5  14  10    1.60    1.41
   5  14  11    6.45    2.24
   5  14  12   -6.56    2.41
   5  15 -14    4.22    2.55
   5  15 -13    1.60    2.16
   5  15 -12    9.03    2.46
   5  15 -11    2.81    1.71
   5  15 -10    6.09    2.03
   5  15  -9    2.13    1.74
   5  15  -8    1.06    1.33
   5  15  -8   -0.90    1.25
  -5  15   7    0.53    1.14
   5  15  -7   -0.66    1.08
   5  15  -7   -0.65    1.65
  -5  15   6    3.91    1.24
   5  15  -6    3.78    1.55
  -5  15   5   24.08    2.66
   5  15  -5   23.59    2.95
  -5  15   4    8.62    1.75
   5  15  -4    6.64    1.75
   5  15  -3   25.01    2.97
   5  15  -2    3.56    1.34
   5  15  -1   11.88    2.21
   5  15   0   37.73    3.54
   5  15   1   43.19    3.76
   5  15   2   23.55    2.85
   5  15   3   23.69    2.90
   5  15   4   11.57    2.27
   5  15   5   48.52    4.16
   5  15   6   17.91    2.79
   5  15   7   13.73    2.62
   5  15   8   12.90    2.46
   5  15   9   12.70    2.61
   5  15  10   12.64    3.00
   5  15  11    4.44    2.15
   5  16 -12   16.10    3.11
   5  16 -11   -0.76    1.91
   5  16 -10   38.86    4.19
   5  16  -9   28.76    3.55
   5  16  -8   61.19    4.95
   5  16  -8   68.26    5.09
   5  16  -7   48.20    4.26
   5  16  -7   51.54    3.96
   5  16  -6   95.64    5.91
  -5  16   6   96.26    5.52
  -5  16   5   36.00    3.43
   5  16  -5   36.47    3.61
   5  16  -4  129.59    6.62
  -5  16   4  106.48    6.01
  -5  16   3   86.71    5.37
   5  16  -3   79.11    5.11
   5  16  -2  107.71    5.96
   5  16  -1   31.54    3.12
   5  16   0   77.88    5.02
   5  16   1   73.83    4.87
   5  16   2   31.32    3.23
   5  16   3   43.58    3.85
   5  16   4   16.26    2.52
   5  16   5   18.80    2.85
   5  16   6    9.26    2.24
   5  16   7    9.53    2.48
   5  16   8   10.41    2.37
   5  16   9    3.63    1.91
   5  16  10    9.69    2.62
   5  17  -7    1.39    1.34
   5  17  -7    1.74    1.14
  -5  17   6    1.95    1.14
   5  17  -6    6.62    1.88
   5  17  -6    2.90    1.57
  -5  17   5    2.88    1.63
   5  17  -5   -1.36    1.53
  -5  17   4    4.14    1.65
   5  17  -4    5.64    1.66
  -5  17   3    9.37    2.14
   5  17  -3    7.01    1.76
   5  17  -2    3.94    1.46
   5  17  -1    9.75    1.96
   5  17   0   10.48    2.08
   5  17   1   15.83    2.31
   5  17   2    3.95    1.41
   5  17   3   25.35    2.93
   5  17   4    0.69    1.16
   5  17   5   12.54    2.25
  -5  18   6   70.24    5.01
   5  18  -6   74.23    5.24
  -5  18   5   26.45    3.14
  -5  18   4   76.29    5.28
  -5  18   3   32.74    3.65
  -5  18   2   60.16    4.92
   5  19  -6    1.48    1.60
  -5  19   5    6.06    1.75
  -5  19   4    3.30    1.73
  -5  19   3    0.35    1.97
  -5  19   2    0.92    1.74
  -5  20   5   13.20    2.54
  -5  20   4   12.54    2.68
  -5  20   3    8.03    2.41
  -5  20   2    1.43    1.60
  -5  21   4    0.43    1.76
  -5  21   3    4.36    2.26
  -5  21   2    0.12    1.49
  -5  22   3   22.15    3.68
  -5  22   2   20.79    3.39
  -6 -17   8    0.82    1.91
  -6 -17   7   21.97    3.40
   6 -17  -6   -0.35    1.63
   6 -17  -5   48.00    4.78
   6 -17  -4    1.18    1.65
   6 -17  -3   34.93    3.98
   6 -17  -2    2.21    1.78
   6 -17  -1   58.56    5.04
   6 -17   0    3.85    2.13
   6 -17   1   58.73    5.04
   6 -17   2    0.68    1.49
   6 -16 -10    8.88    2.83
  -6 -16  10    5.55    2.36
   6 -16  -9    6.30    2.60
  -6 -16   9   14.52    3.05
  -6 -16   8    5.13    2.03
   6 -16  -8    6.60    2.44
  -6 -16   7    3.34    1.94
   6 -16  -7   -1.43    1.65
  -6 -16   6   22.41    3.25
   6 -16  -6   25.03    3.64
   6 -16  -5   11.30    2.55
   6 -16  -4   19.20    3.03
   6 -16  -3    8.80    2.34
   6 -16  -2   16.86    2.64
   6 -16  -1    5.14    1.79
   6 -16   0   17.93    3.05
   6 -16   1    5.77    1.77
   6 -16   2   19.27    3.02
   6 -16   3   16.78    2.98
   6 -16   4   18.36    2.97
   6 -16   5    6.49    2.21
   6 -16   6   12.95    2.85
   6 -16   7    3.85    2.31
   6 -15 -11    3.32    2.13
  -6 -15  11   -0.12    1.88
   6 -15 -10   20.26    3.29
   6 -15 -10   19.34    3.48
  -6 -15  10   26.96    4.06
   6 -15  -9    9.81    2.78
  -6 -15   9    7.85    3.00
  -6 -15   8   19.23    3.12
   6 -15  -8   23.52    3.56
  -6 -15   7   13.10    2.61
   6 -15  -7   10.68    2.77
  -6 -15   6   29.42    3.45
   6 -15  -6   27.54    3.63
  -6 -15   5    2.30    1.52
   6 -15  -5    0.22    1.39
   6 -15  -4   28.64    3.53
   6 -15  -3    5.66    1.90
   6 -15  -2   24.99    3.22
   6 -15  -1   17.58    3.05
   6 -15   0    8.16    2.17
   6 -15   1    5.81    1.83
   6 -15   2   15.55    2.98
   6 -15   3    6.42    2.14
   6 -15   4    4.20    2.04
   6 -15   5    3.64    1.71
   6 -15   6   -0.46    1.65
   6 -15   7    3.07    1.90
   6 -15   8   -0.83    2.05
  -6 -14  12    2.81    2.52
   6 -14 -11   13.06    2.78
  -6 -14  11   15.78    2.93
   6 -14 -10    6.51    2.43
  -6 -14  10    1.86    2.08
  -6 -14   9    0.58    1.72
   6 -14  -9   -0.13    1.82
  -6 -14   8    3.20    1.84
   6 -14  -8    4.85    2.18
  -6 -14   7   26.25    3.30
   6 -14  -7   23.81    3.68
  -6 -14   6    4.58    1.93
   6 -14  -6    1.66    1.65
  -6 -14   5   37.00    3.69
   6 -14  -5   30.48    3.71
  -6 -14   4    1.34    1.48
   6 -14  -4    2.62    1.65
   6 -14  -3    9.61    2.40
   6 -14  -2   -0.30    1.49
   6 -14  -1   27.45    3.48
   6 -14   0    4.28    1.81
   6 -14   1   49.32    4.66
   6 -14   2   -0.98    1.74
   6 -14   3   54.60    4.85
   6 -14   4   10.97    2.64
   6 -14   5   32.80    3.99
   6 -14   6   -1.55    1.48
   6 -14   7   11.71    2.63
   6 -14   8   -0.92    1.29
  -6 -13  12   -0.36    1.55
   6 -13 -11   22.48    3.57
   6 -13 -11   20.72    3.52
  -6 -13  11   24.55    3.58
   6 -13 -10   41.38    4.60
  -6 -13  10   40.39    4.28
  -6 -13   9   25.98    3.36
   6 -13  -9   22.81    3.63
  -6 -13   8    9.66    1.89
   6 -13  -8    5.62    2.14
   6 -13  -7   60.33    5.35
  -6 -13   7   65.26    4.98
  -6 -13   6   13.47    2.59
   6 -13  -6    9.38    2.34
  -6 -13   5   35.62    3.41
   6 -13  -5   24.44    3.41
  -6 -13   4   53.54    4.21
   6 -13  -4   57.08    4.87
  -6 -13   3   29.81    2.94
   6 -13  -3   26.05    3.33
   6 -13  -2   12.07    2.48
   6 -13  -1    8.90    2.25
   6 -13   0   36.27    3.84
   6 -13   1   -0.23    1.47
   6 -13   2    9.51    2.37
   6 -13   3    9.60    2.31
   6 -13   4    4.14    1.94
   6 -13   5   -0.79    1.54
   6 -13   6    6.11    2.18
   6 -13   7    2.67    2.22
   6 -13   8   -0.60    1.58
   6 -12 -12    4.33    2.19
   6 -12 -11    3.10    1.99
   6 -12 -11    2.34    1.81
  -6 -12  10    2.25    2.19
   6 -12 -10   -1.75    1.81
  -6 -12   9   10.90    2.38
   6 -12  -9    8.07    2.48
  -6 -12   8   14.41    2.66
   6 -12  -8   13.54    2.75
  -6 -12   7    0.78    1.45
   6 -12  -7    4.87    2.19
  -6 -12   6   23.11    2.86
   6 -12  -6   15.99    2.91
  -6 -12   5    4.53    1.47
   6 -12  -5    4.53    1.93
  -6 -12   4   43.71    3.53
   6 -12  -4   29.41    3.73
  -6 -12   3    5.54    1.36
   6 -12  -3    7.05    2.19
   6 -12  -2   39.20    4.08
   6 -12  -1    2.67    1.42
   6 -12   0   32.47    3.76
   6 -12   1   15.31    2.82
   6 -12   2  102.72    6.62
   6 -12   3   11.70    2.56
   6 -12   4   28.64    3.68
   6 -12   5   -1.54    1.75
   6 -12   6   15.83    2.99
   6 -12   7    5.16    1.78
   6 -12   8   22.58    3.57
   6 -12   9    7.05    2.34
   6 -11 -12    1.84    1.80
   6 -11 -11   13.03    2.95
   6 -11 -10   -0.92    1.74
  -6 -11   9   33.94    3.72
   6 -11  -9   25.06    3.60
  -6 -11   8   -2.24    1.62
   6 -11  -8   -0.15    1.76
  -6 -11   7   41.03    3.66
   6 -11  -7   31.73    3.90
  -6 -11   6    2.45    1.20
   6 -11  -6    4.06    1.80
  -6 -11   5   33.16    3.18
   6 -11  -5   32.30    3.76
  -6 -11   4    2.30    1.31
   6 -11  -4    3.83    1.82
  -6 -11   3   25.65    2.51
   6 -11  -3   25.74    3.43
  -6 -11   2   11.24    1.66
   6 -11  -2    7.48    2.13
   6 -11  -1   25.78    3.35
   6 -11   0   12.06    2.40
   6 -11   1    9.48    2.31
   6 -11   2    3.26    1.56
   6 -11   3    8.27    2.08
   6 -11   4    3.59    1.79
   6 -11   5    7.41    2.20
   6 -11   6    6.81    2.32
   6 -11   7    2.33    1.46
   6 -11   8    5.93    2.38
   6 -11   9    4.14    2.24
   6 -10 -12    7.72    1.92
   6 -10 -12    8.09    2.60
   6 -10 -11    2.51    1.83
   6 -10 -10    9.92    2.58
   6 -10  -9    4.73    1.97
  -6 -10   8   19.79    2.65
   6 -10  -8   15.99    4.47
  -6 -10   7    6.77    1.82
   6 -10  -7   10.54    2.54
  -6 -10   6   97.19    5.41
   6 -10  -6   83.93    6.11
  -6 -10   5   13.11    1.95
   6 -10  -5   13.66    2.60
  -6 -10   4   21.39    2.30
   6 -10  -4   19.18    2.91
  -6 -10   3   13.40    1.74
   6 -10  -3   12.09    2.38
  -6 -10   2   10.75    1.59
   6 -10  -2   10.82    2.15
   6 -10  -1   50.06    4.47
   6 -10   0   76.16    5.58
   6 -10   1   20.77    2.94
   6 -10   2   53.93    4.79
   6 -10   3   31.93    3.75
   6 -10   4   38.82    4.26
   6 -10   5   35.25    4.05
   6 -10   6   13.03    2.65
   6 -10   7   14.49    2.88
   6 -10   8   29.41    3.86
   6 -10   9    8.66    2.26
   6  -9 -12   54.50    5.48
   6  -9 -12   58.79    5.57
   6  -9 -11   -1.43    1.83
   6  -9 -10   63.62    5.67
   6  -9  -9    5.19    2.33
   6  -9  -8  178.85    9.35
  -6  -9   7    6.95    1.66
   6  -9  -7    6.99    2.12
  -6  -9   6  123.59    5.98
   6  -9  -6  115.50    7.15
  -6  -9   5    0.50    0.90
   6  -9  -5    0.26    1.37
  -6  -9   4   55.79    3.61
   6  -9  -4   56.61    4.85
  -6  -9   3   18.62    1.97
   6  -9  -3   16.21    2.81
  -6  -9   2   39.35    2.66
   6  -9  -2   34.20    3.83
   6  -9  -1    6.34    1.84
   6  -9   0   30.37    3.52
   6  -9   1   12.84    2.50
   6  -9   2    4.48    1.85
   6  -9   3    0.15    1.36
   6  -9   4    1.70    1.72
   6  -9   5   15.91    2.73
   6  -9   6    5.48    1.99
   6  -9   7    1.56    1.71
   6  -9   8    1.73    1.72
   6  -9   9    2.01    1.70
   6  -8 -12    0.26    1.38
   6  -8 -12    1.21    1.49
   6  -8 -11   -1.51    1.80
   6  -8 -10    3.78    1.97
   6  -8  -9    9.91    2.72
   6  -8  -8    3.71    1.68
   6  -8  -7   46.92    4.69
  -6  -8   6    4.04    1.39
   6  -8  -6    9.82    2.53
  -6  -8   5   41.23    3.17
   6  -8  -5   40.36    4.20
  -6  -8   4    4.48    1.23
   6  -8  -4    2.96    1.54
  -6  -8   3   60.39    3.33
   6  -8  -3   52.44    4.66
  -6  -8   2   88.17    3.86
   6  -8  -2   71.90    5.49
   6  -8  -1  125.80    7.27
   6  -8   0   15.76    2.68
   6  -8   1   67.43    5.22
   6  -8   2   10.99    2.30
   6  -8   3   82.04    5.86
   6  -8   4   71.06    5.49
   6  -8   5    6.81    2.16
   6  -8   6    7.51    2.25
   6  -8   7   23.00    3.49
   6  -8   8    6.05    2.11
   6  -8   9   -0.61    1.79
   6  -7 -13   13.03    3.07
   6  -7 -13   10.47    2.75
   6  -7 -12   -0.13    1.77
   6  -7 -11   46.85    4.93
   6  -7 -10   28.55    3.89
   6  -7  -9   71.49    5.88
   6  -7  -8   66.62    5.54
   6  -7  -7  131.96    7.78
  -6  -7   6   42.23    3.26
   6  -7  -6   36.58    4.04
  -6  -7   5  135.91    5.81
   6  -7  -5  140.85    7.75
  -6  -7   4   40.66    2.85
   6  -7  -4   37.46    3.86
  -6  -7   3   45.04    2.72
   6  -7  -3   35.96    3.96
  -6  -7   2    2.48    0.78
   6  -7  -2    1.78    1.45
   6  -7  -1  113.19    6.77
   6  -7   0   26.07    3.33
   6  -7   1  191.06    9.13
   6  -7   2   27.17    3.48
   6  -7   3   15.56    2.71
   6  -7   4    0.98    1.34
   6  -7   5  104.25    6.82
   6  -7   6   -0.12    1.70
   6  -7   7   39.81    4.38
   6  -7   8    4.36    2.07
   6  -7   9   12.36    2.73
   6  -6 -13   -0.03    1.79
   6  -6 -13   -0.53    1.48
   6  -6 -12    5.53    2.31
   6  -6 -11    2.63    1.97
   6  -6 -10    1.10    1.68
   6  -6  -9    1.15    1.69
   6  -6  -8   25.68    3.57
   6  -6  -7   12.72    2.57
   6  -6  -6    8.49    2.16
  -6  -6   5   16.10    1.87
   6  -6  -5    9.90    2.12
  -6  -6   4    3.09    1.02
   6  -6  -4    3.03    1.77
  -6  -6   3    9.55    1.24
   6  -6  -3    5.56    1.70
  -6  -6   2   18.69    1.48
   6  -6  -2   17.93    2.80
   6  -6  -1   51.11    4.51
   6  -6   0   45.10    4.20
   6  -6   1   11.89    1.85
   6  -6   1   11.28    2.31
   6  -6   2   28.96    2.84
   6  -6   2   39.24    4.03
   6  -6   3    7.60    1.84
   6  -6   4   66.01    5.30
   6  -6   5    7.15    2.10
   6  -6   6   36.37    4.13
   6  -6   7    6.64    2.15
   6  -6   8   54.34    5.19
   6  -6   9    2.98    1.81
   6  -5 -13   50.25    5.41
   6  -5 -13   47.39    5.08
   6  -5 -12   16.97    3.24
   6  -5 -11   17.46    3.51
   6  -5 -10   16.59    3.20
   6  -5  -9   73.01    5.88
   6  -5  -8   16.83    2.97
   6  -5  -7  128.63    7.64
   6  -5  -6   17.92    3.07
   6  -5  -5   23.80    3.09
  -6  -5   4    7.79    1.16
   6  -5  -4    7.85    2.10
  -6  -5   3   30.11    1.97
   6  -5  -3   23.64    3.14
  -6  -5   2    5.82    0.80
   6  -5  -2    5.79    1.69
   6  -5  -1   66.96    5.16
   6  -5   0    6.24    1.93
   6  -5   1   16.02    2.03
   6  -5   1   17.53    2.70
   6  -5   2    6.92    1.53
   6  -5   2    5.39    1.85
   6  -5   3   11.69    2.48
   6  -5   4    4.98    1.85
   6  -5   5   20.90    3.18
   6  -5   6    2.35    1.76
   6  -5   7   15.69    2.88
   6  -5   8   -0.53    1.57
   6  -5   9   -0.16    1.62
   6  -5  10    6.97    2.22
   6  -4 -13    3.18    2.12
   6  -4 -13    3.76    2.36
   6  -4 -12    1.83    1.49
   6  -4 -11    5.65    2.33
   6  -4 -10    0.77    1.46
   6  -4  -9    2.03    1.58
   6  -4  -8    6.16    2.19
   6  -4  -7   52.10    4.86
   6  -4  -6   -0.35    1.35
   6  -4  -5   12.27    2.49
  -6  -4   4    0.33    0.73
   6  -4  -4    1.71    1.53
  -6  -4   3    2.99    0.79
   6  -4  -3    1.69    1.54
  -6  -4   2    3.65    0.56
   6  -4  -2    2.85    1.58
   6  -4  -1  104.47    6.46
   6  -4   0   14.63    1.84
   6  -4   0   15.78    2.64
   6  -4   1  104.63    5.06
   6  -4   1  115.29    6.79
   6  -4   2   17.98    2.24
   6  -4   2   19.21    2.95
   6  -4   3  100.02    6.43
   6  -4   4   -1.16    1.82
   6  -4   5   45.88    4.44
   6  -4   6   34.80    4.02
   6  -4   7   22.23    3.39
   6  -4   8   11.22    2.56
   6  -4   9   16.36    2.91
   6  -4  10   12.95    2.95
   6  -3 -13    1.85    1.64
   6  -3 -13    1.26    1.76
   6  -3 -12   21.28    3.51
   6  -3 -11    4.84    2.11
   6  -3 -10   69.71    5.89
   6  -3  -9   37.84    4.27
   6  -3  -8  104.63    6.93
   6  -3  -7   21.39    3.13
  -6  -3   7   24.08    2.35
   6  -3  -6  125.03    7.33
  -6  -3   6  116.97    5.08
   6  -3  -5   30.38    3.54
  -6  -3   5   34.19    2.44
   6  -3  -4   77.47    5.64
  -6  -3   4   77.12    3.35
   6  -3  -3   17.94    2.73
  -6  -3   3   24.67    1.60
   6  -3  -2   19.36    2.86
  -6  -3   2   20.96    0.95
  -6  -3   2   20.18    0.95
   6  -3  -1   32.31    2.33
   6  -3  -1   30.32    3.51
   6  -3   0   60.21    3.48
   6  -3   0   59.03    4.82
   6  -3   1   21.40    2.24
   6  -3   1   22.89    3.21
   6  -3   2    2.06    1.17
   6  -3   2    4.87    1.78
   6  -3   3    6.62    1.61
   6  -3   3   10.42    2.41
   6  -3   4    5.52    1.96
   6  -3   5    6.07    2.07
   6  -3   6   25.36    3.49
   6  -3   7    9.35    2.47
   6  -3   8    1.22    1.31
   6  -3   9    0.65    1.36
   6  -3  10    0.28    1.44
   6  -2 -13   11.51    2.82
   6  -2 -13    9.30    2.67
   6  -2 -12   -1.28    1.94
   6  -2 -11    5.19    2.09
   6  -2 -10    3.10    1.88
   6  -2  -9   50.93    4.92
   6  -2  -8   17.15    2.96
  -6  -2   8   17.03    2.19
   6  -2  -7  154.46    8.32
  -6  -2   7  134.59    5.84
   6  -2  -6    3.21    1.54
  -6  -2   6    3.79    1.02
   6  -2  -5   13.00    2.59
  -6  -2   5   13.44    1.55
   6  -2  -4    4.63    1.76
  -6  -2   4    6.34    0.97
   6  -2  -3   59.83    4.90
  -6  -2   3   62.94    2.51
  -6  -2   3   63.20    2.47
   6  -2  -2    5.81    1.85
   6  -2  -1   62.54    3.21
   6  -2  -1   67.08    5.10
   6  -2   0    1.84    0.91
   6  -2   0   -0.70    1.26
   6  -2   1  199.38    7.34
   6  -2   1  223.29    9.80
   6  -2   2   38.71    3.03
   6  -2   2   45.25    4.26
   6  -2   3  101.70    5.40
   6  -2   3  107.96    6.72
   6  -2   4    7.21    1.95
   6  -2   5   51.53    4.74
   6  -2   6    2.77    1.85
   6  -2   7   39.70    4.36
   6  -2   8    7.03    2.27
   6  -2   9   27.65    3.80
   6  -2  10   -1.00    1.51
   6  -1 -13   43.81    4.89
   6  -1 -13   40.96    5.21
   6  -1 -12   18.54    3.49
   6  -1 -11   40.19    4.52
   6  -1 -10    8.42    2.49
   6  -1  -9  106.17    7.09
   6  -1  -8   64.01    5.38
  -6  -1   8   62.98    4.02
   6  -1  -7   46.51    4.55
  -6  -1   7   48.32    3.25
   6  -1  -6   60.01    5.08
  -6  -1   6   61.00    3.42
   6  -1  -5   86.65    5.98
  -6  -1   5   82.28    3.75
   6  -1  -4   16.83    2.76
  -6  -1   4   19.21    1.53
  -6  -1   3   34.04    1.66
  -6  -1   3   32.83    1.68
   6  -1  -3   28.53    3.49
   6  -1  -2   69.17    3.00
   6  -1  -2   70.43    5.23
   6  -1  -1   15.67    1.60
   6  -1  -1   15.33    2.60
   6  -1   0   23.53    2.14
   6  -1   0   19.37    2.85
   6  -1   1   25.20    2.38
   6  -1   1   32.69    3.58
   6  -1   2   17.20    2.95
   6  -1   3   10.00    2.09
   6  -1   4   18.85    3.04
   6  -1   5   32.34    3.84
   6  -1   6   11.52    2.49
   6  -1   7    9.77    2.48
   6  -1   8    4.10    1.79
   6  -1   9    2.77    1.84
   6  -1  10    2.63    1.46
   6   0 -13   -2.77    2.03
   6   0 -13   -4.47    2.29
   6   0 -12    0.85    1.46
   6   0 -11    3.40    2.15
   6   0 -10    8.45    2.38
   6   0  -9    1.59    1.99
   6   0  -8   67.00    5.55
  -6   0   8   61.82    3.97
   6   0  -7    2.19    1.61
  -6   0   7    0.61    1.00
   6   0  -6  195.13    9.38
  -6   0   6  186.04    6.64
   6   0  -5   13.39    2.60
  -6   0   5   14.13    1.48
   6   0  -4   19.82    2.89
  -6   0   4   17.16    1.45
   6   0  -3    3.58    1.47
  -6   0   3    6.31    0.72
   6   0  -2   21.67    1.60
   6   0  -2   20.16    2.95
   6   0  -1   11.21    1.38
   6   0  -1    9.98    2.28
   6   0   0  297.89    9.04
   6   0   0  322.65   12.15
   6   0   1   -0.81    1.64
   6   0   2  215.89    9.79
   6   0   3   -1.73    1.78
   6   0   4  162.16    8.47
   6   0   5    3.88    2.06
   6   0   6   70.60    5.67
   6   0   7    2.11    1.82
   6   0   8   51.58    5.01
   6   0   9   -0.40    1.39
   6   0  10   51.99    5.29
   6   1 -13   38.20    4.63
   6   1 -13   42.39    4.98
   6   1 -12   21.22    3.56
   6   1 -11   37.19    4.38
   6   1 -10   10.63    2.63
   6   1  -9  112.77    7.41
   6   1  -8   63.98    5.43
  -6   1   8   66.58    4.08
   6   1  -7   49.90    4.73
  -6   1   7   46.87    3.20
   6   1  -6   67.60    5.33
  -6   1   6   57.20    3.31
   6   1  -5   86.03    5.91
  -6   1   5   83.71    3.79
   6   1  -4   22.68    3.16
  -6   1   4   17.94    1.49
   6   1  -3   35.64    1.65
  -6   1   3   34.12    1.70
   6   1  -3   30.94    3.62
   6   1  -2   72.31    3.09
   6   1  -2   75.17    5.44
   6   1  -1   15.37    2.62
   6   1   0   26.63    3.25
   6   1   1   35.06    3.79
   6   1   2   13.38    2.53
   6   1   3   14.36    2.61
   6   1   4   21.70    3.19
   6   1   5   31.03    3.76
   6   1   6   11.72    2.61
   6   1   7   10.32    2.48
   6   1   8    2.99    1.62
   6   1   9   -1.30    1.53
   6   1  10   -1.74    1.83
   6   2 -13   13.42    2.94
   6   2 -13    9.40    3.02
   6   2 -12    5.56    2.48
   6   2 -11   10.04    2.77
   6   2 -10   -0.83    1.36
   6   2  -9   53.94    5.08
   6   2  -8   20.35    3.26
  -6   2   8   16.34    2.12
   6   2  -7  152.36    8.29
  -6   2   7  143.73    6.01
   6   2  -6    9.13    2.32
  -6   2   6    5.42    1.24
   6   2  -5   12.98    2.40
  -6   2   5   11.54    1.38
   6   2  -4    9.55    2.12
  -6   2   4    6.80    0.99
   6   2  -3   64.58    2.48
  -6   2   3   68.72    2.62
   6   2  -3   68.55    5.19
   6   2  -2    7.46    2.07
   6   2  -1   66.74    5.11
   6   2   0    0.63    1.30
   6   2   1  220.81    9.81
   6   2   2   49.04    4.43
   6   2   3  114.47    6.90
   6   2   4    2.41    1.54
   6   2   5   62.15    5.17
   6   2   6    4.15    1.96
   6   2   7   41.54    4.54
   6   2   8    9.13    2.45
   6   2   9   24.98    3.68
   6   2  10   -0.23    1.64
   6   3 -13    2.78    2.31
   6   3 -13    0.93    2.04
   6   3 -12   18.02    3.41
   6   3 -11    7.13    2.16
   6   3 -10   82.86    6.31
   6   3  -9   34.63    4.14
   6   3  -8  120.58    7.50
   6   3  -7   26.39    3.53
  -6   3   7   23.96    2.36
  -6   3   6  117.51    5.12
   6   3  -6  129.54    7.41
  -6   3   5   29.71    2.27
   6   3  -5   26.84    3.35
  -6   3   4   80.04    3.47
   6   3  -4   75.69    5.53
   6   3  -3   22.29    3.06
  -6   3   2   17.94    0.86
   6   3  -2   21.07    2.87
   6   3  -1   32.88    3.72
   6   3   0   59.95    4.84
   6   3   1   23.19    3.07
   6   3   2    3.89    1.79
   6   3   3    3.54    1.50
   6   3   4    5.84    1.76
   6   3   5    6.01    2.01
   6   3   6   21.92    3.15
   6   3   7   10.42    2.67
   6   3   8   -2.03    1.73
   6   3   9    1.40    1.75
   6   3  10   -0.11    1.55
   6   4 -13    3.74    1.94
   6   4 -13    4.58    1.95
   6   4 -12   -0.02    1.55
   6   4 -11    2.85    2.25
   6   4 -10    0.12    1.51
   6   4  -9    0.06    1.55
   6   4  -8    5.09    2.11
   6   4  -7   54.83    4.93
   6   4  -6    3.27    1.62
   6   4  -5   18.04    2.79
   6   4  -4    0.30    1.53
   6   4  -3    0.28    1.46
   6   4  -2    2.77    1.51
   6   4  -1  106.19    6.56
   6   4   0   20.46    2.93
   6   4   1  110.72    6.63
   6   4   2   16.35    2.70
   6   4   3  102.07    6.51
   6   4   4    2.93    1.63
   6   4   5   42.14    4.23
   6   4   6   35.35    4.02
   6   4   7   24.93    3.49
   6   4   8   10.45    2.58
   6   4   9   19.43    3.28
   6   4  10   16.13    3.15
   6   5 -13   44.58    4.91
   6   5 -13   47.89    5.31
   6   5 -12   11.55    2.81
   6   5 -11    9.61    2.55
   6   5 -10   11.61    2.56
   6   5  -9   72.83    5.87
   6   5  -8   14.87    2.89
   6   5  -7  138.01    7.87
   6   5  -6   15.58    2.69
   6   5  -5   26.90    3.35
   6   5  -4    4.47    1.70
   6   5  -3   25.23    3.26
   6   5  -2    7.77    1.98
   6   5  -1   65.33    5.07
   6   5   0    6.44    2.00
   6   5   1   18.13    2.82
   6   5   2    7.09    2.13
   6   5   3   10.94    2.42
   6   5   4    4.36    1.67
   6   5   5   19.73    3.08
   6   5   6    1.61    1.59
   6   5   7   14.22    2.85
   6   5   8    3.97    1.96
   6   5   9    1.01    1.42
   6   5  10    4.96    1.97
   6   6 -13   -0.02    1.62
   6   6 -13    1.79    1.81
   6   6 -12   -0.61    1.52
   6   6 -11    0.34    1.63
   6   6 -10    3.73    2.13
   6   6  -9    0.87    1.67
   6   6  -8   21.51    3.33
   6   6  -7   10.56    2.35
   6   6  -6    8.91    2.26
   6   6  -5    9.16    2.15
   6   6  -4    3.30    1.57
   6   6  -3    7.73    2.04
   6   6  -2   19.74    2.99
   6   6  -1   48.72    4.38
   6   6   0   39.56    3.96
   6   6   1   12.19    2.37
   6   6   2   29.08    3.44
   6   6   3   12.94    2.47
   6   6   4   75.65    5.70
   6   6   5    8.71    2.37
   6   6   6   40.02    4.25
   6   6   7    7.45    2.22
   6   6   8   51.08    4.97
   6   6   9   10.20    2.58
   6   6  10   32.04    4.28
   6   7 -13   13.01    2.95
   6   7 -12    3.92    2.04
   6   7 -11   42.44    4.71
   6   7 -10   19.40    3.24
   6   7  -9   65.44    5.54
   6   7  -8   61.12    5.30
   6   7  -7  139.25    7.93
   6   7  -6   30.75    3.68
   6   7  -5  133.91    7.55
   6   7  -4   35.12    3.75
   6   7  -3   46.22    4.32
   6   7  -2    0.59    1.29
   6   7  -1  116.89    6.89
   6   7   0   28.57    3.41
   6   7   1  194.82    9.17
   6   7   2   26.82    3.38
   6   7   3   14.87    2.74
   6   7   4    4.02    1.58
   6   7   5  105.26    6.81
   6   7   6   -0.97    1.61
   6   7   7   33.80    4.07
   6   7   8    3.49    1.94
   6   7   9   12.77    2.67
   6   8 -13   -0.30    1.80
   6   8 -12    1.86    1.68
   6   8 -12    3.60    1.60
   6   8 -11    2.37    2.50
   6   8 -10   -1.54    1.66
   6   8  -9   11.84    2.64
   6   8  -8    4.92    2.15
   6   8  -7   44.87    4.54
   6   8  -6    8.41    2.12
   6   8  -5   33.04    3.69
   6   8  -4    3.77    1.76
   6   8  -3   51.45    4.56
   6   8  -2   74.06    5.40
   6   8  -1  134.02    7.43
   6   8   0   17.52    2.85
   6   8   1   66.32    5.14
   6   8   2   11.61    2.34
   6   8   3   80.58    5.78
   6   8   4   72.20    5.57
   6   8   5    7.79    2.19
   6   8   6    8.21    2.19
   6   8   7   14.77    2.84
   6   8   8    5.97    2.72
   6   8   9    5.49    2.14
   6   9 -13    0.93    1.66
   6   9 -12   51.80    5.46
   6   9 -12   47.81    5.08
   6   9 -11    1.92    1.74
   6   9 -10   69.24    5.92
   6   9  -9    3.45    1.71
   6   9  -8  173.10    9.08
   6   9  -7    5.41    1.91
   6   9  -6  114.83    7.08
   6   9  -5    0.99    1.54
   6   9  -4   55.15    4.76
   6   9  -3   15.62    2.77
   6   9  -2   34.67    3.82
   6   9  -1    2.69    1.61
   6   9   0   22.68    3.07
   6   9   1   11.56    2.40
   6   9   2    1.03    1.52
   6   9   3    2.67    1.70
   6   9   4    1.58    1.84
   6   9   5   19.51    3.07
   6   9   6    6.14    2.10
   6   9   7    2.69    1.70
   6   9   8   -1.91    1.66
   6   9   9    0.13    1.45
   6  10 -12    4.80    2.19
   6  10 -12    3.55    1.95
   6  10 -11    7.57    2.29
   6  10 -10    5.75    2.12
   6  10  -9    3.53    1.78
   6  10  -8   20.78    3.27
   6  10  -7    4.28    1.74
   6  10  -6   83.60    6.04
   6  10  -5   10.34    2.39
   6  10  -4   19.43    2.92
   6  10  -3   11.80    2.33
   6  10  -2   14.38    2.63
   6  10  -1   41.48    4.17
   6  10   0   76.08    5.58
   6  10   1   18.20    2.82
   6  10   2   48.63    4.52
   6  10   3   34.91    3.82
   6  10   4   41.15    4.23
   6  10   5   36.13    4.03
   6  10   6   14.39    2.74
   6  10   7   11.96    2.61
   6  10   8   28.48    3.84
   6  10   9    7.55    2.10
   6  11 -12    1.10    1.72
   6  11 -11    7.08    2.43
   6  11 -10    7.08    2.41
   6  11  -9   33.53    4.10
   6  11  -8   -0.79    1.62
   6  11  -7   25.76    3.46
   6  11  -6   -0.42    1.55
   6  11  -5   28.37    3.49
   6  11  -4    3.35    1.73
   6  11  -3   23.33    3.11
   6  11  -2    6.53    2.02
   6  11  -1   36.15    3.81
   6  11   0   12.86    2.43
   6  11   1    7.03    2.03
   6  11   2    1.45    1.66
   6  11   3    4.09    1.64
   6  11   4    4.93    1.86
   6  11   5   13.27    2.66
   6  11   6    3.83    1.41
   6  11   7    3.10    1.91
   6  11   8    5.73    2.67
   6  11   9   -1.27    1.38
   6  12 -12   -0.01    1.58
   6  12 -11    0.86    1.75
   6  12 -11    0.54    1.68
   6  12 -10    2.15    1.98
   6  12  -9   12.92    2.95
   6  12  -8   20.04    3.13
   6  12  -7    5.18    2.07
   6  12  -6   16.14    2.83
   6  12  -5    4.37    1.76
   6  12  -4   31.79    3.66
   6  12  -3    4.60    1.62
   6  12  -2   32.29    3.66
   6  12  -1    3.59    1.73
   6  12   0   39.71    4.11
   6  12   1   13.44    2.52
   6  12   2  108.76    6.77
   6  12   3    9.12    2.38
   6  12   4   27.67    3.55
   6  12   5   -1.88    2.05
   6  12   6   24.87    3.56
   6  12   7    3.72    1.82
   6  12   8   18.45    3.15
   6  12   9    4.43    2.09
   6  13 -12    7.92    2.63
   6  13 -11   29.43    3.86
   6  13 -11   20.85    3.49
   6  13 -10   34.58    4.60
   6  13  -9   20.96    3.32
   6  13  -8   10.49    2.83
   6  13  -7   56.05    5.01
   6  13  -6   18.83    2.99
   6  13  -5   28.59    3.53
   6  13  -4   51.40    4.74
   6  13  -3   27.19    3.42
   6  13  -2   11.76    2.36
   6  13  -1   10.56    2.34
   6  13   0   19.73    2.88
   6  13   1    0.53    1.38
   6  13   2    9.16    2.19
   6  13   3    7.79    2.25
   6  13   4    5.49    1.90
   6  13   5   -1.87    1.68
   6  13   6    9.25    2.60
   6  13   7    2.97    1.69
   6  13   8    5.88    2.26
   6  13   9    1.02    1.69
   6  14 -12    0.02    1.64
   6  14 -11   12.12    2.60
   6  14 -10    2.63    2.18
   6  14 -10   -0.36    2.11
   6  14  -9    1.17    1.66
   6  14  -8    3.80    1.83
   6  14  -7   28.53    3.80
   6  14  -6    2.78    1.68
   6  14  -5   33.66    3.92
   6  14  -4   -0.69    1.41
   6  14  -3    8.11    2.25
   6  14  -2    2.94    1.85
   6  14  -1   33.40    3.79
   6  14   0    9.93    2.35
   6  14   1   48.72    4.54
   6  14   2    1.22    1.54
   6  14   3   52.12    4.66
   6  14   4    8.18    2.22
   6  14   5   27.78    3.58
   6  14   6    1.85    1.40
   6  14   7   11.43    2.72
   6  14   8    0.49    1.33
   6  15 -11    3.77    2.59
   6  15 -10   22.46    3.59
   6  15 -10   22.19    3.52
   6  15  -9    4.94    2.15
   6  15  -8   16.95    3.08
   6  15  -7    9.43    2.23
   6  15  -6   25.69    3.54
   6  15  -5    2.94    2.20
   6  15  -4   22.97    3.55
   6  15  -3   10.25    2.33
   6  15  -2   27.00    3.37
   6  15  -1   12.54    2.44
   6  15   0   12.26    2.69
   6  15   1    6.13    2.40
   6  15   2   14.15    2.55
   6  15   3   -0.29    1.67
   6  15   4    6.11    2.14
   6  15   5   -0.84    1.50
   6  15   6   -1.41    1.73
   6  15   7    2.27    1.71
   6  15   8    1.48    1.58
   6  16  -9    7.68    2.67
   6  16  -8    9.98    2.61
   6  16  -7    0.04    1.52
   6  16  -6   11.69    2.55
   6  16  -5   10.96    2.54
   6  16  -4   21.95    3.15
   6  16  -3    7.58    2.14
   6  16  -2   16.96    2.78
   6  16  -1    9.00    2.14
   6  16   0   18.26    2.93
   6  16   1    6.68    2.19
   6  16   2   17.24    3.06
   6  16   3   16.97    3.16
   6  16   4   20.93    3.21
   6  16   5    8.65    2.37
   6  16   6   16.57    3.04
   7 -15  -6   16.19    3.35
   7 -15  -5    3.14    1.96
   7 -15  -4   21.32    3.58
   7 -15  -3    7.23    2.29
   7 -15  -2   22.57    3.62
   7 -15  -1    3.38    1.87
   7 -15   0   19.67    3.55
   7 -15   1    2.82    2.47
   7 -15   2   28.29    4.11
   7 -14  -6    7.13    2.39
   7 -14  -5    8.25    2.61
   7 -14  -4    2.86    2.06
   7 -14  -3   19.07    3.47
   7 -14  -2    3.10    1.88
   7 -14  -1    6.76    2.17
   7 -14   0    0.34    1.61
   7 -14   1    3.89    1.88
   7 -14   2    3.43    2.25
   7 -13  -7    3.93    2.07
   7 -13  -6    6.06    2.41
   7 -13  -5    9.84    2.78
   7 -13  -4   18.56    3.31
   7 -13  -3    5.62    2.05
   7 -13  -2   17.33    3.23
   7 -13  -1    2.77    2.37
   7 -13   0    6.40    2.35
   7 -13   1    8.15    2.16
   7 -13   2   10.39    2.94
   7 -13   3    5.77    2.29
   7 -12  -7    2.96    2.04
   7 -12  -6   12.24    2.66
   7 -12  -5   12.48    2.87
   7 -12  -4    3.15    1.92
   7 -12  -3    8.26    2.36
   7 -12  -2    5.99    2.17
   7 -12  -1   -2.44    1.73
   7 -12   0    8.60    2.40
   7 -12   1    2.25    1.85
   7 -12   2    2.94    1.86
   7 -12   3    8.32    2.48
   7 -11  -7   34.94    4.45
   7 -11  -6    3.88    1.98
   7 -11  -5   27.33    3.78
   7 -11  -4    1.59    1.52
   7 -11  -3   65.71    5.68
   7 -11  -2   -1.58    1.94
   7 -11  -1   75.97    6.15
   7 -11   0   13.17    2.82
   7 -11   1   17.26    3.01
   7 -11   2    7.89    2.08
   7 -11   3   45.05    4.84
   7 -10  -8    2.05    1.72
   7 -10  -7    8.72    2.65
   7 -10  -6    6.48    2.12
   7 -10  -5   15.92    3.08
   7 -10  -4    6.27    2.19
   7 -10  -3   13.96    3.00
   7 -10  -2    5.57    1.93
   7 -10  -1    8.55    2.54
   7 -10   0    4.47    2.23
   7 -10   1    3.59    1.93
   7 -10   2    6.09    2.24
   7 -10   3    9.34    2.41
   7 -10   4    3.71    2.10
   7  -9  -8   35.54    4.56
   7  -9  -7   -2.16    1.90
   7  -9  -6   27.53    3.83
   7  -9  -5    2.51    1.59
   7  -9  -4   33.41    4.17
   7  -9  -3   20.53    3.32
   7  -9  -2   65.86    5.72
   7  -9  -1   28.59    3.95
   7  -9   0   40.10    4.49
   7  -9   1   -0.31    1.57
   7  -9   2   78.06    6.22
   7  -9   3    7.35    2.32
   7  -9   4   32.47    4.17
   7  -8  -8    3.42    2.03
   7  -8  -7    4.42    2.05
   7  -8  -6   -1.27    2.07
   7  -8  -5    8.43    2.32
   7  -8  -4   15.43    2.94
   7  -8  -3    4.40    1.80
   7  -8  -2   10.37    2.51
   7  -8  -1    5.45    1.99
   7  -8   0    0.93    1.62
   7  -8   1    0.40    1.61
   7  -8   2    8.91    2.11
   7  -8   3   -0.34    1.55
   7  -8   4    0.56    1.74
   7  -7  -8   19.50    3.38
   7  -7  -7   23.58    3.87
   7  -7  -6   13.21    2.79
   7  -7  -5   36.91    4.33
   7  -7  -4   11.83    2.74
   7  -7  -3   15.63    3.08
   7  -7  -2   18.45    3.27
   7  -7  -1   19.18    3.48
   7  -7   0   25.63    3.69
   7  -7   1   37.10    4.40
   7  -7   2    8.61    2.31
   7  -7   3    4.88    1.69
   7  -7   4   13.73    2.89
   7  -7   5    2.45    1.78
   7  -6  -9    3.15    2.12
   7  -6  -8    8.42    2.37
   7  -6  -7   -2.22    1.82
   7  -6  -6   13.94    2.83
   7  -6  -5    4.54    1.95
   7  -6  -4   22.93    3.44
   7  -6  -3    2.97    2.02
   7  -6  -2   24.60    3.61
   7  -6  -1   -1.46    1.38
   7  -6   0    1.68    1.80
   7  -6   1    7.26    2.06
   7  -6   2    3.67    1.69
   7  -6   3    0.46    1.30
   7  -6   4   -1.22    1.42
   7  -6   5    5.57    2.04
   7  -5  -9    9.48    2.71
   7  -5  -8   13.15    2.64
   7  -5  -7   20.47    3.53
   7  -5  -6    4.11    1.79
   7  -5  -5    6.63    2.05
   7  -5  -4    8.60    2.26
   7  -5  -3   33.58    4.15
   7  -5  -2    7.68    2.41
   7  -5  -1   44.55    4.66
   7  -5   0    3.23    2.02
   7  -5   1   15.79    3.01
   7  -5   2    2.71    1.63
   7  -5   3   33.72    4.17
   7  -5   4   10.23    2.56
   7  -5   5    7.60    2.55
   7  -4  -9   22.46    3.72
   7  -4  -8    2.81    1.63
   7  -4  -7   -1.65    1.84
   7  -4  -6    4.37    1.99
   7  -4  -5    1.33    1.69
   7  -4  -4    2.20    1.53
   7  -4  -3   15.34    2.86
   7  -4  -2    6.28    1.85
   7  -4  -1    1.57    1.69
   7  -4   0    1.20    1.36
   7  -4   1    3.96    1.83
   7  -4   2    0.35    1.40
   7  -4   3   -0.61    1.51
   7  -4   4    4.89    1.98
   7  -4   5    2.67    1.76
   7  -3  -9    6.92    2.31
   7  -3  -8   30.91    4.17
   7  -3  -7   -0.54    1.70
   7  -3  -6   59.71    5.47
   7  -3  -5    1.32    1.42
   7  -3  -4   78.05    6.25
   7  -3  -3    1.30    1.46
   7  -3  -2   43.36    4.59
   7  -3  -1    1.98    1.46
   7  -3   0   41.91    4.50
   7  -3   1   -0.92    1.68
   7  -3   2   16.48    2.99
   7  -3   3    6.33    2.21
   7  -3   4   38.54    4.36
   7  -3   5    2.07    1.74
   7  -2  -9   38.39    4.68
   7  -2  -8    0.28    1.47
   7  -2  -7   23.46    3.55
   7  -2  -6    7.78    2.15
   7  -2  -5   39.74    4.55
   7  -2  -4    2.96    1.90
   7  -2  -3   53.25    5.01
   7  -2  -2   18.09    3.11
   7  -2  -1   29.95    3.94
   7  -2   0    3.14    1.91
   7  -2   1    6.24    2.15
   7  -2   2   17.96    2.93
   7  -2   3    7.25    2.42
   7  -2   4   -1.26    1.87
   7  -2   5    1.43    1.68
   7  -1  -9   29.00    4.16
   7  -1  -8   25.70    3.76
   7  -1  -7   29.91    4.12
   7  -1  -6   20.78    3.34
   7  -1  -5   62.05    5.59
   7  -1  -4   36.64    4.56
   7  -1  -3  114.68    7.51
   7  -1  -2   58.16    5.34
   7  -1  -1   35.23    4.19
   7  -1   0   25.13    3.65
   7  -1   1   29.61    3.89
   7  -1   2   24.32    3.56
   7  -1   3   35.33    4.26
   7  -1   4   36.48    4.42
   7  -1   5   46.07    5.07
   7   0  -9    1.07    1.79
   7   0  -8   18.72    3.34
   7   0  -7    0.03    1.66
   7   0  -6   -0.37    1.44
   7   0  -5    1.48    1.61
   7   0  -4   10.00    2.70
   7   0  -3    1.05    1.52
   7   0  -2   39.42    4.40
   7   0  -1    3.49    1.99
   7   0   0    5.67    2.05
   7   0   1    0.83    1.46
   7   0   2    2.33    1.82
   7   0   3    1.70    1.57
   7   0   4    2.28    1.65
   7   0   5    9.26    2.54
   7   1  -9   22.76    3.61
   7   1  -8   23.62    3.71
   7   1  -7   38.25    4.56
   7   1  -6   17.89    3.42
   7   1  -5   58.16    5.31
   7   1  -4   39.84    4.54
   7   1  -3  125.66    7.84
   7   1  -2   55.99    5.11
   7   1  -1   32.99    4.02
   7   1   0   20.14    3.30
   7   1   1   31.06    3.89
   7   1   2   21.78    3.39
   7   1   3   35.52    4.39
   7   1   4   36.93    4.44
   7   1   5   42.17    4.77
   7   2  -9   39.91    4.75
   7   2  -8    1.10    1.55
   7   2  -7   27.47    3.80
   7   2  -6   11.77    2.71
   7   2  -5   34.86    4.17
   7   2  -4    0.24    1.52
   7   2  -3   58.82    5.35
   7   2  -2   13.36    2.65
   7   2  -1   30.89    3.92
   7   2   0   -1.66    1.74
   7   2   1    2.62    1.43
   7   2   2   19.94    3.31
   7   2   3   -0.68    1.48
   7   2   4    2.23    1.54
   7   2   5    8.18    2.42
   7   3  -9   12.02    3.06
   7   3  -8   41.14    4.66
   7   3  -7    2.81    1.76
   7   3  -6   59.34    5.49
   7   3  -5    2.29    1.54
   7   3  -4   77.97    6.26
   7   3  -3    2.71    1.84
   7   3  -2   39.17    4.40
   7   3  -1    0.60    1.47
   7   3   0   40.18    4.45
   7   3   1   -1.39    1.70
   7   3   2   20.98    3.27
   7   3   3    6.19    2.08
   7   3   4   37.50    4.51
   7   3   5    4.58    1.89
   7   4  -9   17.78    3.32
   7   4  -8    1.05    1.80
   7   4  -7    1.62    1.38
   7   4  -6    7.55    2.12
   7   4  -5    4.52    1.99
   7   4  -4    6.11    2.22
   7   4  -3   17.59    3.21
   7   4  -2    5.80    2.21
   7   4  -1    1.58    1.63
   7   4   0    4.89    2.20
   7   4   1    1.08    1.62
   7   4   2    2.25    1.85
   7   4   3   -0.07    1.35
   7   4   4    6.95    2.35
   7   4   5    3.19    1.81
   7   5  -9    4.91    1.84
   7   5  -8   14.25    3.06
   7   5  -7   12.68    2.59
   7   5  -6   10.24    2.61
   7   5  -5    7.35    2.08
   7   5  -4    6.40    2.24
   7   5  -3   34.29    4.18
   7   5  -2    4.97    1.94
   7   5  -1   47.91    4.86
   7   5   0   -1.16    1.88
   7   5   1   25.33    3.53
   7   5   2    1.55    1.40
   7   5   3   41.13    4.57
   7   5   4   11.52    2.29
   7   5   5    9.65    2.48
   7   6  -9    3.04    2.14
   7   6  -8   11.14    2.77
   7   6  -7   -0.84    1.70
   7   6  -6   20.79    3.39
   7   6  -5    1.09    1.49
   7   6  -4   26.58    3.79
   7   6  -3    1.58    1.48
   7   6  -2   16.65    3.13
   7   6  -1   -2.22    1.87
   7   6   0    0.69    1.61
   7   6   1    9.21    2.33
   7   6   2    5.21    2.06
   7   6   3    0.46    1.56
   7   6   4   -1.07    1.54
   7   6   5    2.24    1.73
   7   7  -9   31.78    4.44
   7   7  -8   14.47    3.04
   7   7  -7   29.48    3.99
   7   7  -6   11.83    2.72
   7   7  -5   47.45    4.95
   7   7  -4   18.04    3.10
   7   7  -3   11.11    2.58
   7   7  -2   20.10    3.22
   7   7  -1   21.83    3.39
   7   7   0   18.31    3.05
   7   7   1   30.24    3.81
   7   7   2    8.32    2.28
   7   7   3    6.91    2.16
   7   7   4    8.87    2.39
   7   7   5    4.45    2.33
   7   8  -9   10.03    2.89
   7   8  -8    2.07    1.90
   7   8  -7    1.81    1.46
   7   8  -6    3.64    2.11
   7   8  -5    8.88    3.07
   7   8  -4    9.46    3.02
   7   8  -3    6.54    2.64
   7   8  -2    7.99    2.27
   7   8  -1   14.80    3.28
   7   8   0    2.92    2.67
   7   8   1    0.37    2.15
   7   8   2    6.53    2.14
   7   8   3    1.09    1.51
   7   8   4    1.76    1.54
   7   8   5   -0.72    2.00
   7   9  -8   30.21    4.13
   7   9  -7   -0.07    1.44
   7   9  -6   23.59    3.55
   7   9  -5    3.24    1.53
   7   9  -4   31.95    4.03
   7   9  -3   18.13    3.14
   7   9  -2   60.61    5.42
   7   9  -1   25.47    3.55
   7   9   0   40.33    4.45
   7   9   1    2.29    1.67
   7   9   2   78.10    6.28
   7   9   3    6.53    2.44
   7   9   4   40.05    4.59
   7  10  -8    3.62    1.82
   7  10  -7    4.88    1.90
   7  10  -6    8.81    2.48
   7  10  -5   18.14    3.27
   7  10  -4    6.71    2.04
   7  10  -3   18.84    3.25
   7  10  -2    4.71    1.72
   7  10  -1   14.42    3.01
   7  10   0    4.33    2.11
   7  10   1    5.12    2.15
   7  10   2    3.36    1.41
   7  10   3    5.70    2.08
   7  10   4    3.28    1.65
   7  11  -8   -0.78    1.70
   7  11  -7   50.29    5.17
   7  11  -6    6.35    2.55
   7  11  -5   36.15    4.50
   7  11  -4    0.95    1.79
   7  11  -3   56.88    5.27
   7  11  -2    0.24    1.43
   7  11  -1   74.93    6.05
   7  11   0   12.26    2.66
   7  11   1   26.02    3.76
   7  11   2   13.64    3.07
   7  11   3   34.76    4.14
   7  11   4    4.55    2.19
   7  12  -8   -0.41    1.84
   7  12  -7    2.10    1.57
   7  12  -6   11.34    2.69
   7  12  -5   15.27    3.24
   7  12  -4    7.62    2.38
   7  12  -3    3.79    1.83
   7  12  -2   11.02    2.52
   7  12  -1    1.12    1.37
   7  12   0    6.10    2.08
   7  12   1    1.78    1.43
   7  12   2    2.58    1.68
   7  12   3    7.42    2.31
   7  12   4    2.99    2.10
   7  13  -7    8.99    2.73
   7  13  -6    2.85    1.69
   7  13  -5    7.78    2.42
   7  13  -4   26.65    4.00
   7  13  -3    5.35    2.13
   7  13  -2   20.06    3.30
   7  13  -1    3.22    1.77
   7  13   0    8.15    2.26
   7  13   1    6.17    2.02
   7  13   2    6.45    2.31
   7  13   3    5.05    1.94
   7  14  -7   20.95    3.51
   7  14  -6    4.80    2.18
   7  14  -5    4.94    1.96
   7  14  -4    5.60    2.19
   7  14  -3   16.46    3.00
   7  14  -2    0.64    1.58
   7  14  -1   10.34    2.29
   7  14   0    4.14    2.00
   7  14   1    2.84    1.75
   7  14   2    2.16    1.78
   7  14   3    6.43    2.48
   7  15  -5    0.60    1.74
   7  15  -4   20.09    3.61
   7  15  -3    8.16    2.66
   7  15  -2   28.06    3.86
   7  15  -1    5.93    2.29
   7  15   0   14.19    3.00
   7  15   1    2.26    1.63
   0   0   0    0.00    0.00


TITL pvl1105a_auto in P2(1)
REM P2(1) (#4 in standard setting)
CELL 0.71073   6.252752  20.155616  15.886152  90.0000  96.3504  90.0000
ZERR   23.00   0.000195   0.000495   0.000609   0.0000   0.0031   0.0000
LATT -1
SYMM -x, y+1/2,-z
SFAC C H N O S Zn
UNIT 23.00 23.00 23.00 23.00 23.00 23.00
REM  CrysAlisPro recorded range (K): Min=289.5; max=290.1; aver:289.8
TEMP 17
TREF
HKLF 4
END
_computing_structure_solution     'SHELXT 2014/5 (Sheldrick, 2014)'
;
_shelx_hkl_checksum   72266

