 
data_pvl1190_auto_a
 
_audit_creation_method            'SHELXL-2019/3'
_shelx_SHELXL_version_number      '2019/3'
_chemical_name_systematic         ?
_chemical_name_common             ?
_chemical_melting_point           ?
_chemical_formula_moiety          ?
_chemical_formula_sum
 'C28 H16 N16 O4 Se2 Zn' 
_chemical_formula_weight          863.86

loop_
 _atom_type_symbol
 _atom_type_description
 _atom_type_scat_dispersion_real
 _atom_type_scat_dispersion_imag
 _atom_type_scat_source
 'C'  'C'   0.0033   0.0016
 'International Tables Vol C Tables 4.2.6.8 and 6.1.1.4'
 'H'  'H'   0.0000   0.0000
 'International Tables Vol C Tables 4.2.6.8 and 6.1.1.4'
 'N'  'N'   0.0061   0.0033
 'International Tables Vol C Tables 4.2.6.8 and 6.1.1.4'
 'O'  'O'   0.0106   0.0060
 'International Tables Vol C Tables 4.2.6.8 and 6.1.1.4'
 'Zn'  'Zn'   0.2839   1.4301
 'International Tables Vol C Tables 4.2.6.8 and 6.1.1.4'
 'Se'  'Se'  -0.0929   2.2259
 'International Tables Vol C Tables 4.2.6.8 and 6.1.1.4'
 
_space_group_crystal_system       triclinic
_space_group_IT_number            2
_space_group_name_H-M_alt         'P -1'
_space_group_name_Hall            '-P 1'
 
_shelx_space_group_comment
;
The symmetry employed for this shelxl refinement is uniquely defined
by the following loop, which should always be used as a source of
symmetry information in preference to the above space-group names.
They are only intended as comments.
;
 
loop_
 _space_group_symop_operation_xyz
 'x, y, z'
 '-x, -y, -z'
 
_cell_length_a                    10.0429(3)
_cell_length_b                    10.9155(3)
_cell_length_c                    13.6638(3)
_cell_angle_alpha                 93.878(2)
_cell_angle_beta                  94.641(2)
_cell_angle_gamma                 99.641(2)
_cell_volume                      1466.84(7)
_cell_formula_units_Z             2
_cell_measurement_temperature     291(2)
_cell_measurement_reflns_used     ?
_cell_measurement_theta_min       ?
_cell_measurement_theta_max       ?
 
_exptl_crystal_description        ?
_exptl_crystal_colour             ?
_exptl_crystal_density_meas       ?
_exptl_crystal_density_method     ?
_exptl_crystal_density_diffrn     1.956          
_exptl_crystal_F_000              852
_exptl_transmission_factor_min    ?
_exptl_transmission_factor_max    ?
_exptl_crystal_size_max           ?
_exptl_crystal_size_mid           ?
_exptl_crystal_size_min           ?
_exptl_absorpt_coefficient_mu     3.389
_shelx_estimated_absorpt_T_min    ?
_shelx_estimated_absorpt_T_max    ?
_exptl_absorpt_correction_type    ?
_exptl_absorpt_correction_T_min   ?
_exptl_absorpt_correction_T_max   ?
_exptl_absorpt_process_details    ?
_exptl_absorpt_special_details    ?
_diffrn_ambient_temperature       291(2)
_diffrn_radiation_wavelength      0.71073
_diffrn_radiation_type            MoK\a
_diffrn_source                    ?
_diffrn_measurement_device_type   ?
_diffrn_measurement_method        ?
_diffrn_detector_area_resol_mean  ?
_diffrn_reflns_number             13198
_diffrn_reflns_av_unetI/netI      0.0381
_diffrn_reflns_av_R_equivalents   0.0241
_diffrn_reflns_limit_h_min        -9
_diffrn_reflns_limit_h_max        13
_diffrn_reflns_limit_k_min        -13
_diffrn_reflns_limit_k_max        14
_diffrn_reflns_limit_l_min        -16
_diffrn_reflns_limit_l_max        17
_diffrn_reflns_theta_min          2.066
_diffrn_reflns_theta_max          29.229
_diffrn_reflns_theta_full         25.242
_diffrn_measured_fraction_theta_max   0.817
_diffrn_measured_fraction_theta_full  0.999
_diffrn_reflns_Laue_measured_fraction_max    0.817
_diffrn_reflns_Laue_measured_fraction_full   0.999
_diffrn_reflns_point_group_measured_fraction_max   0.817
_diffrn_reflns_point_group_measured_fraction_full  0.999
_reflns_number_total              6504
_reflns_number_gt                 5520
_reflns_threshold_expression      'I > 2\s(I)'
_reflns_Friedel_coverage          0.000
_reflns_Friedel_fraction_max      .
_reflns_Friedel_fraction_full     .
 
_reflns_special_details
;
 Reflections were merged by SHELXL according to the crystal
 class for the calculation of statistics and refinement.
 
 _reflns_Friedel_fraction is defined as the number of unique
 Friedel pairs measured divided by the number that would be
 possible theoretically, ignoring centric projections and
 systematic absences.
;
 
_computing_data_collection        ?
_computing_cell_refinement        ?
_computing_data_reduction         ?
_computing_structure_solution     'SHELXT 2014/5 (Sheldrick, 2014)'
_computing_structure_refinement 'SHELXL-2019/2 (Sheldrick, 2019)'
_computing_molecular_graphics     ?
_computing_publication_material   ?
_refine_special_details           ?
_refine_ls_structure_factor_coef  Fsqd
_refine_ls_matrix_type            full
_refine_ls_weighting_scheme       calc
_refine_ls_weighting_details
'w=1/[\s^2^(Fo^2^)+(0.0399P)^2^+0.7204P] where P=(Fo^2^+2Fc^2^)/3'
_atom_sites_solution_primary      ?
_atom_sites_solution_secondary    ?
_atom_sites_solution_hydrogens    geom
_refine_ls_hydrogen_treatment     constr
_refine_ls_extinction_method      none
_refine_ls_extinction_coef        .
_refine_ls_number_reflns          6504
_refine_ls_number_parameters      460
_refine_ls_number_restraints      0
_refine_ls_R_factor_all           0.0458
_refine_ls_R_factor_gt            0.0357
_refine_ls_wR_factor_ref          0.0889
_refine_ls_wR_factor_gt           0.0841
_refine_ls_goodness_of_fit_ref    1.062
_refine_ls_restrained_S_all       1.062
_refine_ls_shift/su_max           0.001
_refine_ls_shift/su_mean          0.000
 
loop_
 _atom_site_label
 _atom_site_type_symbol
 _atom_site_fract_x
 _atom_site_fract_y
 _atom_site_fract_z
 _atom_site_U_iso_or_equiv
 _atom_site_adp_type
 _atom_site_occupancy
 _atom_site_site_symmetry_order  
 _atom_site_calc_flag
 _atom_site_refinement_flags_posn
 _atom_site_refinement_flags_adp
 _atom_site_refinement_flags_occupancy
 _atom_site_disorder_assembly
 _atom_site_disorder_group
Se1_1 Se 1.05436(3) 0.19060(3) 0.75347(2) 0.03372(9) Uani 1 1 d . . . . .
Se2_1 Se 0.30151(3) 0.95858(3) 0.21567(2) 0.03355(9) Uani 1 1 d . . . . .
Zn1_1 Zn 0.69924(3) 0.61365(3) 0.49472(2) 0.02428(9) Uani 1 1 d . . . . .
O1_1 O 0.5523(2) 0.71833(18) 0.50777(15) 0.0311(5) Uani 1 1 d . . . . .
O2_1 O 0.3958(2) 0.56630(17) 0.54874(14) 0.0299(4) Uani 1 1 d . . . . .
O3_1 O -0.0933(2) 0.6096(2) 0.48883(17) 0.0395(5) Uani 1 1 d . . . . .
O4_1 O -0.1395(2) 0.7967(2) 0.50832(19) 0.0490(6) Uani 1 1 d . . . . .
N1_1 N 1.0087(3) 0.2419(2) 1.09017(16) 0.0309(6) Uani 1 1 d . . . . .
N2_1 N 1.1181(4) 0.1268(3) 1.1798(2) 0.0511(8) Uani 1 1 d . . . . .
N3_1 N 0.9852(3) 0.2725(3) 1.18482(18) 0.0419(7) Uani 1 1 d . . . . .
N4_1 N 0.7711(3) 0.4870(2) 0.78213(17) 0.0294(5) Uani 1 1 d . . . . .
N5_1 N 0.6696(3) 0.5516(3) 0.80374(19) 0.0415(7) Uani 1 1 d . . . . .
N6_1 N 0.7161(3) 0.5682(2) 0.64622(17) 0.0312(5) Uani 1 1 d . . . . .
N7_1 N 0.9491(3) 0.3063(2) 0.74406(17) 0.0331(6) Uani 1 1 d . . . . .
N8_1 N 1.0562(3) 0.1931(2) 0.88404(16) 0.0273(5) Uani 1 1 d . . . . .
N9_1 N 0.6745(3) 0.6234(2) 0.33645(18) 0.0315(6) Uani 1 1 d . . . . .
N10_1 N 0.5958(3) 0.6718(2) 0.19303(18) 0.0314(6) Uani 1 1 d . . . . .
N11_1 N 0.6587(3) 0.5722(2) 0.17254(19) 0.0400(7) Uani 1 1 d . . . . .
N12_1 N 0.4140(3) 0.8491(2) 0.22712(17) 0.0341(6) Uani 1 1 d . . . . .
N13_1 N 0.2989(2) 0.9519(2) 0.08459(16) 0.0267(5) Uani 1 1 d . . . . .
N14_1 N 0.3428(3) 0.8935(2) -0.12138(17) 0.0322(6) Uani 1 1 d . . . . .
N15_1 N 0.2345(3) 1.0080(3) -0.21390(18) 0.0388(6) Uani 1 1 d . . . . .
N16_1 N 0.3592(3) 0.8533(3) -0.21595(18) 0.0472(7) Uani 1 1 d . . . . .
C1_1 C 1.0867(4) 0.1556(4) 1.0905(2) 0.0537(10) Uani 1 1 d . . . . .
H1_1 H 1.115632 0.119722 1.034133 0.064 Uiso 1 1 calc R U . . .
C2_1 C 1.0537(4) 0.1995(3) 1.2337(2) 0.0376(8) Uani 1 1 d . . . . .
H2_1 H 1.056741 0.199008 1.301920 0.045 Uiso 1 1 calc R U . . .
C3_1 C 0.9498(3) 0.3005(3) 1.0118(2) 0.0283(6) Uani 1 1 d . . . . .
C4_1 C 0.8650(3) 0.3829(3) 1.0292(2) 0.0318(7) Uani 1 1 d . . . . .
H4_1 H 0.844708 0.399800 1.093377 0.038 Uiso 1 1 calc R U . . .
C5_1 C 0.8064(3) 0.4439(3) 0.9527(2) 0.0335(7) Uani 1 1 d . . . . .
H5_1 H 0.748554 0.499093 0.968100 0.040 Uiso 1 1 calc R U . . .
C6_1 C 0.8325(3) 0.4241(3) 0.8577(2) 0.0285(6) Uani 1 1 d . . . . .
C7_1 C 0.9191(3) 0.3372(3) 0.8339(2) 0.0287(6) Uani 1 1 d . . . . .
C8_1 C 0.9801(3) 0.2747(3) 0.9125(2) 0.0263(6) Uani 1 1 d . . . . .
C9_1 C 0.6415(4) 0.5967(3) 0.7196(2) 0.0407(8) Uani 1 1 d . . . . .
H9_1 H 0.574277 0.645189 0.710973 0.049 Uiso 1 1 calc R U . . .
C10_1 C 0.7974(3) 0.4995(3) 0.6885(2) 0.0304(6) Uani 1 1 d . . . . .
H10_1 H 0.863273 0.464883 0.657653 0.036 Uiso 1 1 calc R U . . .
C11_1 C 0.6068(3) 0.7007(3) 0.2906(2) 0.0319(7) Uani 1 1 d . . . . .
H11_1 H 0.572095 0.765317 0.321594 0.038 Uiso 1 1 calc R U . . .
C12_1 C 0.7025(4) 0.5479(3) 0.2607(2) 0.0392(8) Uani 1 1 d . . . . .
H12_1 H 0.749826 0.482864 0.270813 0.047 Uiso 1 1 calc R U . . .
C13_1 C 0.4308(3) 0.6717(2) 0.51935(19) 0.0237(6) Uani 1 1 d . . . . .
C14_1 C 0.3253(3) 0.7516(2) 0.50015(19) 0.0228(6) Uani 1 1 d . . . . .
C15_1 C 0.1891(3) 0.7048(2) 0.50881(19) 0.0240(6) Uani 1 1 d . . . . .
H15_1 H 0.163852 0.623829 0.526171 0.029 Uiso 1 1 calc R U . . .
C16_1 C 0.0909(3) 0.7785(3) 0.49164(18) 0.0233(6) Uani 1 1 d . . . . .
C17_1 C 0.1305(3) 0.9013(3) 0.46964(19) 0.0265(6) Uani 1 1 d . . . . .
H17_1 H 0.065681 0.952203 0.461003 0.032 Uiso 1 1 calc R U . . .
C18_1 C 0.2664(3) 0.9487(2) 0.46040(19) 0.0258(6) Uani 1 1 d . . . . .
H18_1 H 0.292315 1.030542 0.445134 0.031 Uiso 1 1 calc R U . . .
C19_1 C 0.3619(3) 0.8724(2) 0.47427(19) 0.0250(6) Uani 1 1 d . . . . .
H19_1 H 0.452212 0.902635 0.466111 0.030 Uiso 1 1 calc R U . . .
C20_1 C -0.0562(3) 0.7254(3) 0.49656(19) 0.0276(6) Uani 1 1 d . . . . .
C21_1 C 0.5312(3) 0.7281(3) 0.1157(2) 0.0319(7) Uani 1 1 d . . . . .
C22_1 C 0.4446(3) 0.8147(3) 0.1379(2) 0.0292(6) Uani 1 1 d . . . . .
C23_1 C 0.3795(3) 0.8726(3) 0.0586(2) 0.0271(6) Uani 1 1 d . . . . .
C24_1 C 0.4048(3) 0.8398(3) -0.0413(2) 0.0311(6) Uani 1 1 d . . . . .
C25_1 C 0.4867(4) 0.7560(3) -0.0577(2) 0.0385(8) Uani 1 1 d . . . . .
H25_1 H 0.502352 0.734219 -0.122175 0.046 Uiso 1 1 calc R U . . .
C26_1 C 0.5500(4) 0.6998(3) 0.0203(2) 0.0407(8) Uani 1 1 d . . . . .
H26_1 H 0.605510 0.642296 0.005371 0.049 Uiso 1 1 calc R U . . .
C27_1 C 0.2698(3) 0.9848(3) -0.1237(2) 0.0371(7) Uani 1 1 d . . . . .
H27_1 H 0.246682 1.026976 -0.067858 0.044 Uiso 1 1 calc R U . . .
C28_1 C 0.2915(4) 0.9254(3) -0.2669(2) 0.0441(8) Uani 1 1 d . . . . .
H28_1 H 0.283578 0.919474 -0.335378 0.053 Uiso 1 1 calc R U . . .
 
loop_
 _atom_site_aniso_label
 _atom_site_aniso_U_11
 _atom_site_aniso_U_22
 _atom_site_aniso_U_33
 _atom_site_aniso_U_23
 _atom_site_aniso_U_13
 _atom_site_aniso_U_12
Se1_1 0.0394(2) 0.04175(19) 0.02464(16) 0.00638(12) 0.00708(12) 0.01707(15)
Se2_1 0.03909(19) 0.04164(19) 0.02412(15) 0.00385(12) 0.00389(12) 0.01825(15)
Zn1_1 0.01693(17) 0.02717(18) 0.03045(18) 0.00747(13) 0.00209(12) 0.00673(13)
O1_1 0.0188(10) 0.0274(11) 0.0503(12) 0.0094(9) 0.0074(9) 0.0085(8)
O2_1 0.0267(11) 0.0226(10) 0.0406(11) 0.0072(8) 0.0010(9) 0.0039(8)
O3_1 0.0220(11) 0.0352(13) 0.0612(15) 0.0136(10) 0.0022(10) 0.0011(9)
O4_1 0.0233(12) 0.0427(14) 0.0821(18) -0.0041(12) 0.0087(11) 0.0109(11)
N1_1 0.0360(15) 0.0347(14) 0.0223(12) 0.0017(10) 0.0027(10) 0.0068(11)
N2_1 0.070(2) 0.0591(19) 0.0310(15) 0.0100(13) 0.0003(14) 0.0297(17)
N3_1 0.060(2) 0.0437(16) 0.0235(13) 0.0024(11) 0.0048(12) 0.0137(14)
N4_1 0.0279(14) 0.0303(13) 0.0317(13) 0.0037(10) 0.0018(10) 0.0102(11)
N5_1 0.0370(16) 0.0613(19) 0.0353(14) 0.0122(13) 0.0086(12) 0.0288(14)
N6_1 0.0275(14) 0.0350(14) 0.0318(13) 0.0023(10) -0.0001(10) 0.0086(11)
N7_1 0.0399(16) 0.0352(14) 0.0278(13) 0.0083(10) 0.0038(11) 0.0140(12)
N8_1 0.0297(14) 0.0329(13) 0.0215(11) 0.0049(9) 0.0031(10) 0.0104(11)
N9_1 0.0294(14) 0.0294(13) 0.0379(14) 0.0075(10) 0.0069(11) 0.0074(11)
N10_1 0.0320(15) 0.0324(14) 0.0329(13) 0.0070(10) 0.0038(11) 0.0126(11)
N11_1 0.0457(18) 0.0412(16) 0.0394(15) 0.0054(12) 0.0034(12) 0.0255(13)
N12_1 0.0379(16) 0.0400(15) 0.0274(13) 0.0053(11) 0.0012(11) 0.0154(12)
N13_1 0.0274(13) 0.0314(13) 0.0235(11) 0.0026(9) 0.0041(9) 0.0104(10)
N14_1 0.0348(15) 0.0388(14) 0.0240(12) 0.0044(10) 0.0041(10) 0.0081(12)
N15_1 0.0453(17) 0.0437(16) 0.0297(14) 0.0083(11) -0.0002(12) 0.0137(13)
N16_1 0.058(2) 0.065(2) 0.0232(13) 0.0025(12) 0.0017(12) 0.0280(16)
C1_1 0.074(3) 0.069(3) 0.0288(17) 0.0129(16) 0.0050(17) 0.042(2)
C2_1 0.051(2) 0.0364(18) 0.0252(15) 0.0070(13) -0.0004(14) 0.0071(15)
C3_1 0.0292(16) 0.0279(15) 0.0266(14) 0.0021(11) 0.0015(12) 0.0018(12)
C4_1 0.0365(18) 0.0358(17) 0.0228(14) 0.0004(12) 0.0017(12) 0.0070(14)
C5_1 0.0367(18) 0.0345(17) 0.0304(15) 0.0009(12) 0.0025(13) 0.0105(14)
C6_1 0.0285(16) 0.0271(15) 0.0293(14) 0.0038(11) -0.0014(12) 0.0043(12)
C7_1 0.0310(16) 0.0290(15) 0.0248(14) 0.0021(11) 0.0000(12) 0.0027(13)
C8_1 0.0238(15) 0.0277(15) 0.0269(14) 0.0024(11) 0.0013(11) 0.0034(12)
C9_1 0.043(2) 0.048(2) 0.0362(17) 0.0072(14) 0.0029(14) 0.0216(16)
C10_1 0.0312(17) 0.0323(16) 0.0289(15) 0.0032(12) 0.0012(12) 0.0098(13)
C11_1 0.0336(17) 0.0349(16) 0.0304(15) 0.0086(12) 0.0039(12) 0.0118(13)
C12_1 0.040(2) 0.0414(19) 0.0415(18) 0.0112(14) 0.0051(15) 0.0169(15)
C13_1 0.0214(14) 0.0243(14) 0.0257(13) -0.0003(10) 0.0012(11) 0.0067(11)
C14_1 0.0198(14) 0.0225(14) 0.0260(13) -0.0002(10) 0.0011(10) 0.0048(11)
C15_1 0.0211(14) 0.0226(14) 0.0283(14) 0.0029(10) 0.0037(11) 0.0029(11)
C16_1 0.0205(14) 0.0295(15) 0.0211(13) 0.0012(10) 0.0038(10) 0.0072(11)
C17_1 0.0243(15) 0.0292(15) 0.0284(14) 0.0002(11) 0.0013(11) 0.0125(12)
C18_1 0.0293(16) 0.0189(13) 0.0301(14) 0.0029(10) 0.0039(11) 0.0060(11)
C19_1 0.0198(14) 0.0241(14) 0.0311(14) 0.0038(11) 0.0038(11) 0.0024(11)
C20_1 0.0215(15) 0.0373(17) 0.0245(14) 0.0028(11) 0.0003(11) 0.0075(13)
C21_1 0.0308(17) 0.0339(16) 0.0338(15) 0.0085(12) 0.0030(13) 0.0111(13)
C22_1 0.0302(16) 0.0293(15) 0.0280(14) 0.0051(11) 0.0012(12) 0.0042(12)
C23_1 0.0250(15) 0.0286(15) 0.0282(14) 0.0038(11) 0.0041(11) 0.0045(12)
C24_1 0.0337(17) 0.0351(16) 0.0261(14) 0.0072(12) 0.0030(12) 0.0084(13)
C25_1 0.047(2) 0.0470(19) 0.0268(15) 0.0035(13) 0.0057(14) 0.0222(16)
C26_1 0.050(2) 0.0435(19) 0.0356(17) 0.0055(14) 0.0068(15) 0.0256(16)
C27_1 0.045(2) 0.0417(18) 0.0274(15) 0.0067(13) 0.0015(13) 0.0138(15)
C28_1 0.049(2) 0.062(2) 0.0251(15) 0.0063(15) 0.0001(14) 0.0218(18)
 
_geom_special_details
;
 All esds (except the esd in the dihedral angle between two l.s. planes)
 are estimated using the full covariance matrix.  The cell esds are taken
 into account individually in the estimation of esds in distances, angles
 and torsion angles; correlations between esds in cell parameters are only
 used when they are defined by crystal symmetry.  An approximate (isotropic)
 treatment of cell esds is used for estimating esds involving l.s. planes.
;
 
loop_
 _geom_bond_atom_site_label_1
 _geom_bond_atom_site_label_2
 _geom_bond_distance
 _geom_bond_site_symmetry_2
 _geom_bond_publ_flag
Se1_1 N8_1 1.781(2) . ?
Se1_1 N7_1 1.783(3) . ?
Se2_1 N12_1 1.782(3) . ?
Se2_1 N13_1 1.785(2) . ?
Zn1_1 O1_1 2.023(2) . ?
Zn1_1 O2_1 2.0603(19) 2_666 ?
Zn1_1 O3_1 2.099(2) 1_655 ?
Zn1_1 N6_1 2.161(2) . ?
Zn1_1 N9_1 2.169(2) . ?
Zn1_1 O4_1 2.338(2) 1_655 ?
Zn1_1 C20_1 2.550(3) 1_655 ?
O1_1 C13_1 1.268(3) . ?
O2_1 C13_1 1.248(3) . ?
O3_1 C20_1 1.251(4) . ?
O4_1 C20_1 1.247(4) . ?
N1_1 C1_1 1.322(4) . ?
N1_1 N3_1 1.363(3) . ?
N1_1 C3_1 1.422(4) . ?
N2_1 C1_1 1.307(4) . ?
N2_1 C2_1 1.327(4) . ?
N3_1 C2_1 1.318(4) . ?
N4_1 C10_1 1.338(4) . ?
N4_1 N5_1 1.373(4) . ?
N4_1 C6_1 1.432(4) . ?
N5_1 C9_1 1.309(4) . ?
N6_1 C10_1 1.323(4) . ?
N6_1 C9_1 1.350(4) . ?
N7_1 C7_1 1.323(4) . ?
N8_1 C8_1 1.325(4) . ?
N9_1 C11_1 1.327(4) . ?
N9_1 C12_1 1.355(4) . ?
N10_1 C11_1 1.340(4) . ?
N10_1 N11_1 1.370(3) . ?
N10_1 C21_1 1.423(4) . ?
N11_1 C12_1 1.308(4) . ?
N12_1 C22_1 1.326(4) . ?
N13_1 C23_1 1.330(4) . ?
N14_1 C27_1 1.334(4) . ?
N14_1 N16_1 1.368(3) . ?
N14_1 C24_1 1.423(4) . ?
N15_1 C27_1 1.308(4) . ?
N15_1 C28_1 1.348(4) . ?
N16_1 C28_1 1.320(4) . ?
C1_1 H1_1 0.9300 . ?
C2_1 H2_1 0.9300 . ?
C3_1 C4_1 1.361(4) . ?
C3_1 C8_1 1.435(4) . ?
C4_1 C5_1 1.416(4) . ?
C4_1 H4_1 0.9300 . ?
C5_1 C6_1 1.356(4) . ?
C5_1 H5_1 0.9300 . ?
C6_1 C7_1 1.429(4) . ?
C7_1 C8_1 1.458(4) . ?
C9_1 H9_1 0.9300 . ?
C10_1 H10_1 0.9300 . ?
C11_1 H11_1 0.9300 . ?
C12_1 H12_1 0.9300 . ?
C13_1 C14_1 1.499(4) . ?
C14_1 C19_1 1.386(4) . ?
C14_1 C15_1 1.396(4) . ?
C15_1 C16_1 1.389(4) . ?
C15_1 H15_1 0.9300 . ?
C16_1 C17_1 1.392(4) . ?
C16_1 C20_1 1.502(4) . ?
C17_1 C18_1 1.395(4) . ?
C17_1 H17_1 0.9300 . ?
C18_1 C19_1 1.382(4) . ?
C18_1 H18_1 0.9300 . ?
C19_1 H19_1 0.9300 . ?
C21_1 C26_1 1.355(4) . ?
C21_1 C22_1 1.421(4) . ?
C22_1 C23_1 1.456(4) . ?
C23_1 C24_1 1.441(4) . ?
C24_1 C25_1 1.348(4) . ?
C25_1 C26_1 1.423(4) . ?
C25_1 H25_1 0.9300 . ?
C26_1 H26_1 0.9300 . ?
C27_1 H27_1 0.9300 . ?
C28_1 H28_1 0.9300 . ?
 
loop_
 _geom_angle_atom_site_label_1
 _geom_angle_atom_site_label_2
 _geom_angle_atom_site_label_3
 _geom_angle
 _geom_angle_site_symmetry_1
 _geom_angle_site_symmetry_3
 _geom_angle_publ_flag
N8_1 Se1_1 N7_1 93.84(11) . . ?
N12_1 Se2_1 N13_1 93.49(11) . . ?
O1_1 Zn1_1 O2_1 107.19(8) . 2_666 ?
O1_1 Zn1_1 O3_1 147.48(8) . 1_655 ?
O2_1 Zn1_1 O3_1 104.66(8) 2_666 1_655 ?
O1_1 Zn1_1 N6_1 96.72(9) . . ?
O2_1 Zn1_1 N6_1 90.23(8) 2_666 . ?
O3_1 Zn1_1 N6_1 89.52(9) 1_655 . ?
O1_1 Zn1_1 N9_1 88.87(9) . . ?
O2_1 Zn1_1 N9_1 79.87(8) 2_666 . ?
O3_1 Zn1_1 N9_1 90.37(9) 1_655 . ?
N6_1 Zn1_1 N9_1 169.73(9) . . ?
O1_1 Zn1_1 O4_1 89.14(8) . 1_655 ?
O2_1 Zn1_1 O4_1 160.18(8) 2_666 1_655 ?
O3_1 Zn1_1 O4_1 58.34(8) 1_655 1_655 ?
N6_1 Zn1_1 O4_1 99.12(9) . 1_655 ?
N9_1 Zn1_1 O4_1 89.54(9) . 1_655 ?
O1_1 Zn1_1 C20_1 118.27(9) . 1_655 ?
O2_1 Zn1_1 C20_1 132.95(9) 2_666 1_655 ?
O3_1 Zn1_1 C20_1 29.21(9) 1_655 1_655 ?
N6_1 Zn1_1 C20_1 95.71(9) . 1_655 ?
N9_1 Zn1_1 C20_1 89.16(9) . 1_655 ?
O4_1 Zn1_1 C20_1 29.15(9) 1_655 1_655 ?
C13_1 O1_1 Zn1_1 122.66(18) . . ?
C13_1 O2_1 Zn1_1 143.92(18) . 2_666 ?
C20_1 O3_1 Zn1_1 95.82(18) . 1_455 ?
C20_1 O4_1 Zn1_1 84.92(18) . 1_455 ?
C1_1 N1_1 N3_1 108.6(3) . . ?
C1_1 N1_1 C3_1 131.6(3) . . ?
N3_1 N1_1 C3_1 119.8(3) . . ?
C1_1 N2_1 C2_1 102.1(3) . . ?
C2_1 N3_1 N1_1 101.6(3) . . ?
C10_1 N4_1 N5_1 109.5(2) . . ?
C10_1 N4_1 C6_1 131.2(3) . . ?
N5_1 N4_1 C6_1 119.3(2) . . ?
C9_1 N5_1 N4_1 101.9(3) . . ?
C10_1 N6_1 C9_1 102.8(3) . . ?
C10_1 N6_1 Zn1_1 128.4(2) . . ?
C9_1 N6_1 Zn1_1 128.8(2) . . ?
C7_1 N7_1 Se1_1 107.50(19) . . ?
C8_1 N8_1 Se1_1 107.39(18) . . ?
C11_1 N9_1 C12_1 102.5(3) . . ?
C11_1 N9_1 Zn1_1 125.1(2) . . ?
C12_1 N9_1 Zn1_1 131.7(2) . . ?
C11_1 N10_1 N11_1 109.8(2) . . ?
C11_1 N10_1 C21_1 129.6(3) . . ?
N11_1 N10_1 C21_1 120.6(2) . . ?
C12_1 N11_1 N10_1 101.9(3) . . ?
C22_1 N12_1 Se2_1 108.5(2) . . ?
C23_1 N13_1 Se2_1 107.00(18) . . ?
C27_1 N14_1 N16_1 108.8(2) . . ?
C27_1 N14_1 C24_1 131.6(3) . . ?
N16_1 N14_1 C24_1 119.6(3) . . ?
C27_1 N15_1 C28_1 101.7(3) . . ?
C28_1 N16_1 N14_1 101.4(3) . . ?
N2_1 C1_1 N1_1 111.7(3) . . ?
N2_1 C1_1 H1_1 124.1 . . ?
N1_1 C1_1 H1_1 124.1 . . ?
N3_1 C2_1 N2_1 115.9(3) . . ?
N3_1 C2_1 H2_1 122.0 . . ?
N2_1 C2_1 H2_1 122.0 . . ?
C4_1 C3_1 N1_1 121.1(3) . . ?
C4_1 C3_1 C8_1 118.5(3) . . ?
N1_1 C3_1 C8_1 120.4(3) . . ?
C3_1 C4_1 C5_1 122.2(3) . . ?
C3_1 C4_1 H4_1 118.9 . . ?
C5_1 C4_1 H4_1 118.9 . . ?
C6_1 C5_1 C4_1 121.8(3) . . ?
C6_1 C5_1 H5_1 119.1 . . ?
C4_1 C5_1 H5_1 119.1 . . ?
C5_1 C6_1 C7_1 119.0(3) . . ?
C5_1 C6_1 N4_1 120.3(3) . . ?
C7_1 C6_1 N4_1 120.7(2) . . ?
N7_1 C7_1 C6_1 125.0(3) . . ?
N7_1 C7_1 C8_1 115.6(3) . . ?
C6_1 C7_1 C8_1 119.4(2) . . ?
N8_1 C8_1 C3_1 125.2(3) . . ?
N8_1 C8_1 C7_1 115.7(2) . . ?
C3_1 C8_1 C7_1 119.1(3) . . ?
N5_1 C9_1 N6_1 115.8(3) . . ?
N5_1 C9_1 H9_1 122.1 . . ?
N6_1 C9_1 H9_1 122.1 . . ?
N6_1 C10_1 N4_1 110.1(3) . . ?
N6_1 C10_1 H10_1 124.9 . . ?
N4_1 C10_1 H10_1 124.9 . . ?
N9_1 C11_1 N10_1 110.0(3) . . ?
N9_1 C11_1 H11_1 125.0 . . ?
N10_1 C11_1 H11_1 125.0 . . ?
N11_1 C12_1 N9_1 115.9(3) . . ?
N11_1 C12_1 H12_1 122.1 . . ?
N9_1 C12_1 H12_1 122.1 . . ?
O2_1 C13_1 O1_1 123.9(3) . . ?
O2_1 C13_1 C14_1 119.0(2) . . ?
O1_1 C13_1 C14_1 117.0(2) . . ?
C19_1 C14_1 C15_1 119.4(3) . . ?
C19_1 C14_1 C13_1 120.5(2) . . ?
C15_1 C14_1 C13_1 120.1(2) . . ?
C16_1 C15_1 C14_1 120.4(2) . . ?
C16_1 C15_1 H15_1 119.8 . . ?
C14_1 C15_1 H15_1 119.8 . . ?
C15_1 C16_1 C17_1 119.2(3) . . ?
C15_1 C16_1 C20_1 119.9(2) . . ?
C17_1 C16_1 C20_1 120.8(2) . . ?
C16_1 C17_1 C18_1 120.8(3) . . ?
C16_1 C17_1 H17_1 119.6 . . ?
C18_1 C17_1 H17_1 119.6 . . ?
C19_1 C18_1 C17_1 119.0(3) . . ?
C19_1 C18_1 H18_1 120.5 . . ?
C17_1 C18_1 H18_1 120.5 . . ?
C18_1 C19_1 C14_1 121.1(3) . . ?
C18_1 C19_1 H19_1 119.5 . . ?
C14_1 C19_1 H19_1 119.5 . . ?
O4_1 C20_1 O3_1 120.8(3) . . ?
O4_1 C20_1 C16_1 119.9(3) . . ?
O3_1 C20_1 C16_1 119.3(3) . . ?
O4_1 C20_1 Zn1_1 65.93(17) . 1_455 ?
O3_1 C20_1 Zn1_1 54.98(15) . 1_455 ?
C16_1 C20_1 Zn1_1 173.8(2) . 1_455 ?
C26_1 C21_1 C22_1 119.0(3) . . ?
C26_1 C21_1 N10_1 121.0(3) . . ?
C22_1 C21_1 N10_1 120.1(3) . . ?
N12_1 C22_1 C21_1 125.8(3) . . ?
N12_1 C22_1 C23_1 114.3(3) . . ?
C21_1 C22_1 C23_1 119.9(3) . . ?
N13_1 C23_1 C24_1 124.8(3) . . ?
N13_1 C23_1 C22_1 116.7(2) . . ?
C24_1 C23_1 C22_1 118.5(3) . . ?
C25_1 C24_1 N14_1 120.6(3) . . ?
C25_1 C24_1 C23_1 118.8(3) . . ?
N14_1 C24_1 C23_1 120.6(3) . . ?
C24_1 C25_1 C26_1 122.3(3) . . ?
C24_1 C25_1 H25_1 118.8 . . ?
C26_1 C25_1 H25_1 118.8 . . ?
C21_1 C26_1 C25_1 121.5(3) . . ?
C21_1 C26_1 H26_1 119.2 . . ?
C25_1 C26_1 H26_1 119.2 . . ?
N15_1 C27_1 N14_1 111.9(3) . . ?
N15_1 C27_1 H27_1 124.0 . . ?
N14_1 C27_1 H27_1 124.0 . . ?
N16_1 C28_1 N15_1 116.2(3) . . ?
N16_1 C28_1 H28_1 121.9 . . ?
N15_1 C28_1 H28_1 121.9 . . ?
 
_refine_diff_density_max    0.787
_refine_diff_density_min   -0.498
_refine_diff_density_rms    0.094

_shelx_res_file
;
TITL pvl1190_auto_a.res in P-1
    pvl1190_auto_a.res
    created by SHELXL-2019/3 at 12:14:22 on 13-Sep-2023
REM Old TITL pvl1190_auto in P-1
REM SHELXT solution in P-1
REM R1 0.114,  Rweak 0.007,  Alpha 0.044,  Orientation as input
REM Formula found by SHELXT:  C36 N9 O3 Zn3
CELL  0.71073  10.0429  10.9155  13.6638   93.878   94.641   99.641
ZERR   2  0.0003   0.0003   0.0003    0.002    0.002    0.002
LATT  1
SFAC C H N O ZN SE
UNIT 56 32 32 8 2 4
ACTA
TEMP 18

OMIT 0
L.S. 6
BOND $H
LIST 4
OMIT 1 1 0

FMAP 2
PLAN 20
WGHT    0.039900    0.720400
FVAR       0.20136
RESI 1 M001
SE1   6    1.054365    0.190602    0.753472    11.00000    0.03943    0.04175 =
         0.02464    0.00638    0.00708    0.01707
SE2   6    0.301512    0.958582    0.215669    11.00000    0.03909    0.04164 =
         0.02412    0.00385    0.00389    0.01825
ZN1   5    0.699238    0.613649    0.494721    11.00000    0.01693    0.02717 =
         0.03045    0.00747    0.00209    0.00673
O1    4    0.552333    0.718334    0.507765    11.00000    0.01877    0.02742 =
         0.05031    0.00936    0.00742    0.00853
O2    4    0.395835    0.566295    0.548736    11.00000    0.02669    0.02265 =
         0.04063    0.00725    0.00099    0.00386
O3    4   -0.093292    0.609587    0.488827    11.00000    0.02195    0.03517 =
         0.06125    0.01363    0.00218    0.00113
O4    4   -0.139509    0.796667    0.508323    11.00000    0.02325    0.04267 =
         0.08208   -0.00410    0.00872    0.01094
N1    3    1.008652    0.241896    1.090175    11.00000    0.03595    0.03467 =
         0.02232    0.00169    0.00266    0.00679
N2    3    1.118095    0.126816    1.179799    11.00000    0.06991    0.05913 =
         0.03095    0.01000    0.00034    0.02975
N3    3    0.985175    0.272546    1.184817    11.00000    0.06017    0.04373 =
         0.02346    0.00241    0.00483    0.01373
N4    3    0.771147    0.486976    0.782127    11.00000    0.02789    0.03031 =
         0.03172    0.00366    0.00180    0.01022
N5    3    0.669588    0.551590    0.803742    11.00000    0.03704    0.06131 =
         0.03530    0.01218    0.00857    0.02883
N6    3    0.716116    0.568236    0.646225    11.00000    0.02745    0.03496 =
         0.03183    0.00229   -0.00013    0.00858
N7    3    0.949100    0.306350    0.744058    11.00000    0.03986    0.03521 =
         0.02784    0.00833    0.00383    0.01399
N8    3    1.056211    0.193139    0.884043    11.00000    0.02966    0.03288 =
         0.02151    0.00488    0.00307    0.01043
N9    3    0.674541    0.623365    0.336451    11.00000    0.02939    0.02942 =
         0.03790    0.00753    0.00687    0.00740
N10   3    0.595805    0.671781    0.193028    11.00000    0.03204    0.03242 =
         0.03287    0.00701    0.00382    0.01260
N11   3    0.658739    0.572168    0.172543    11.00000    0.04572    0.04123 =
         0.03941    0.00536    0.00343    0.02549
N12   3    0.413982    0.849116    0.227119    11.00000    0.03787    0.04004 =
         0.02743    0.00534    0.00116    0.01542
N13   3    0.298887    0.951854    0.084593    11.00000    0.02743    0.03140 =
         0.02351    0.00260    0.00407    0.01035
N14   3    0.342773    0.893454   -0.121381    11.00000    0.03482    0.03879 =
         0.02402    0.00444    0.00408    0.00807
N15   3    0.234535    1.008031   -0.213899    11.00000    0.04535    0.04365 =
         0.02972    0.00832   -0.00022    0.01366
N16   3    0.359195    0.853320   -0.215953    11.00000    0.05842    0.06535 =
         0.02318    0.00247    0.00169    0.02797
C1    1    1.086667    0.155579    1.090514    11.00000    0.07447    0.06930 =
         0.02880    0.01289    0.00499    0.04171
AFIX  43
H1    2    1.115632    0.119722    1.034133    11.00000   -1.20000
AFIX   0
C2    1    1.053696    0.199539    1.233744    11.00000    0.05102    0.03641 =
         0.02524    0.00698   -0.00038    0.00705
AFIX  43
H2    2    1.056741    0.199008    1.301920    11.00000   -1.20000
AFIX   0
C3    1    0.949773    0.300516    1.011847    11.00000    0.02917    0.02785 =
         0.02657    0.00213    0.00147    0.00179
C4    1    0.864951    0.382941    1.029150    11.00000    0.03653    0.03575 =
         0.02279    0.00042    0.00175    0.00701
AFIX  43
H4    2    0.844708    0.399800    1.093377    11.00000   -1.20000
AFIX   0
C5    1    0.806448    0.443926    0.952694    11.00000    0.03666    0.03450 =
         0.03039    0.00086    0.00247    0.01050
AFIX  43
H5    2    0.748554    0.499093    0.968100    11.00000   -1.20000
AFIX   0
C6    1    0.832535    0.424081    0.857657    11.00000    0.02854    0.02711 =
         0.02925    0.00378   -0.00143    0.00430
C7    1    0.919107    0.337195    0.833919    11.00000    0.03097    0.02904 =
         0.02479    0.00215    0.00000    0.00275
C8    1    0.980128    0.274714    0.912465    11.00000    0.02383    0.02766 =
         0.02694    0.00235    0.00128    0.00345
C9    1    0.641450    0.596662    0.719618    11.00000    0.04256    0.04836 =
         0.03624    0.00723    0.00287    0.02163
AFIX  43
H9    2    0.574277    0.645189    0.710973    11.00000   -1.20000
AFIX   0
C10   1    0.797431    0.499480    0.688514    11.00000    0.03124    0.03229 =
         0.02889    0.00321    0.00116    0.00979
AFIX  43
H10   2    0.863273    0.464883    0.657653    11.00000   -1.20000
AFIX   0
C11   1    0.606804    0.700659    0.290594    11.00000    0.03356    0.03488 =
         0.03038    0.00861    0.00385    0.01176
AFIX  43
H11   2    0.572095    0.765317    0.321594    11.00000   -1.20000
AFIX   0
C12   1    0.702473    0.547902    0.260712    11.00000    0.03952    0.04141 =
         0.04148    0.01122    0.00506    0.01694
AFIX  43
H12   2    0.749826    0.482864    0.270813    11.00000   -1.20000
AFIX   0
C13   1    0.430829    0.671669    0.519354    11.00000    0.02141    0.02432 =
         0.02572   -0.00031    0.00124    0.00671
C14   1    0.325330    0.751578    0.500150    11.00000    0.01982    0.02248 =
         0.02596   -0.00019    0.00107    0.00483
C15   1    0.189055    0.704813    0.508809    11.00000    0.02107    0.02260 =
         0.02829    0.00290    0.00367    0.00287
AFIX  43
H15   2    0.163852    0.623829    0.526171    11.00000   -1.20000
AFIX   0
C16   1    0.090886    0.778544    0.491641    11.00000    0.02053    0.02949 =
         0.02108    0.00115    0.00378    0.00722
C17   1    0.130534    0.901273    0.469640    11.00000    0.02426    0.02922 =
         0.02839    0.00017    0.00131    0.01250
AFIX  43
H17   2    0.065681    0.952203    0.461003    11.00000   -1.20000
AFIX   0
C18   1    0.266397    0.948730    0.460404    11.00000    0.02925    0.01893 =
         0.03007    0.00294    0.00391    0.00601
AFIX  43
H18   2    0.292315    1.030542    0.445134    11.00000   -1.20000
AFIX   0
C19   1    0.361904    0.872425    0.474272    11.00000    0.01982    0.02408 =
         0.03107    0.00376    0.00384    0.00242
AFIX  43
H19   2    0.452212    0.902635    0.466111    11.00000   -1.20000
AFIX   0
C20   1   -0.056154    0.725356    0.496557    11.00000    0.02152    0.03730 =
         0.02451    0.00277    0.00030    0.00747
C21   1    0.531209    0.728106    0.115739    11.00000    0.03075    0.03389 =
         0.03375    0.00848    0.00298    0.01112
C22   1    0.444646    0.814683    0.137908    11.00000    0.03019    0.02933 =
         0.02799    0.00514    0.00123    0.00418
C23   1    0.379474    0.872620    0.058615    11.00000    0.02497    0.02864 =
         0.02823    0.00376    0.00411    0.00446
C24   1    0.404755    0.839821   -0.041304    11.00000    0.03367    0.03510 =
         0.02607    0.00721    0.00297    0.00839
C25   1    0.486667    0.756035   -0.057674    11.00000    0.04697    0.04701 =
         0.02682    0.00348    0.00569    0.02223
AFIX  43
H25   2    0.502352    0.734219   -0.122175    11.00000   -1.20000
AFIX   0
C26   1    0.549974    0.699801    0.020274    11.00000    0.04973    0.04351 =
         0.03561    0.00550    0.00683    0.02563
AFIX  43
H26   2    0.605510    0.642296    0.005371    11.00000   -1.20000
AFIX   0
C27   1    0.269773    0.984812   -0.123711    11.00000    0.04451    0.04171 =
         0.02744    0.00675    0.00153    0.01383
AFIX  43
H27   2    0.246682    1.026976   -0.067858    11.00000   -1.20000
AFIX   0
C28   1    0.291513    0.925379   -0.266866    11.00000    0.04948    0.06169 =
         0.02515    0.00634    0.00011    0.02178
AFIX  43
H28   2    0.283578    0.919474   -0.335378    11.00000   -1.20000
RESI 0
AFIX   0
HKLF 4




REM  pvl1190_auto_a.res in P-1
REM wR2 = 0.0889, GooF = S = 1.062, Restrained GooF = 1.062 for all data
REM R1 = 0.0357 for 5520 Fo > 4sig(Fo) and 0.0458 for all 6504 data
REM 460 parameters refined using 0 restraints

END

WGHT      0.0400      0.7150

REM Highest difference peak  0.787,  deepest hole -0.498,  1-sigma level  0.094
Q1    1   0.2926  0.9621  0.3256  11.00000  0.05    0.79
Q2    1   0.6941  0.6042  0.5879  11.00000  0.05    0.77
Q3    1   1.0596  0.1951  0.9931  11.00000  0.05    0.64
Q4    1   1.0520  0.1871  0.6492  11.00000  0.05    0.63
Q5    1   1.0555  0.1960  0.8358  11.00000  0.05    0.61
Q6    1   0.2985  0.9566 -0.0162  11.00000  0.05    0.57
Q7    1  -0.0745  0.8079  0.4538  11.00000  0.05    0.56
Q8    1   0.3072  0.9569  0.1326  11.00000  0.05    0.56
Q9    1   0.2933  0.9672  0.5503  11.00000  0.05    0.56
Q10   1   0.3074  0.9568 -0.3598  11.00000  0.05    0.53
Q11   1   0.6955  0.6095  0.9163  11.00000  0.05    0.52
Q12   1   0.6977  0.6075  0.3884  11.00000  0.05    0.51
Q13   1   0.2872  0.9605  0.4200  11.00000  0.05    0.50
Q14   1   0.6981  0.6124  0.0390  11.00000  0.05    0.49
Q15   1   1.0573  0.1887  1.3319  11.00000  0.05    0.47
Q16   1  -0.0606  0.8153  0.5666  11.00000  0.05    0.46
Q17   1   0.7021  0.6092  0.8328  11.00000  0.05    0.45
Q18   1   0.2934  0.9638 -0.2423  11.00000  0.05    0.45
Q19   1   0.7015  0.6142  0.1380  11.00000  0.05    0.43
Q20   1   1.0477  0.1942  1.0904  11.00000  0.05    0.43
;
_shelx_res_checksum   15869

_shelx_hkl_file
;
   0   0   2    7.09    0.41
   0   0  -2    6.18    0.40
   0   0  -2    6.49    0.31
   0   0   2    6.39    0.32
   0   0  -3 2468.78   40.76
   0   0   3 2439.21   40.76
   0   0   3 2431.00   40.42
   0   0  -3 2423.34   40.37
   0   0   4 2512.69   41.82
   0   0  -4 2461.56   41.86
   0   0  -4 2499.29   40.96
   0   0  -4 2469.33   41.31
   0   0   4 2459.20   41.39
   0   0  -5  229.70    5.15
   0   0   5  230.57    5.14
   0   0  -5  228.17    4.19
   0   0   5  216.45    4.60
   0   0  -5  223.58    4.57
   0   0   6   41.07    1.79
   0   0  -6   38.65    1.75
   0   0  -6   40.33    1.12
   0   0  -6   38.66    1.38
   0   0   7  913.50   17.17
   0   0  -7  910.89   17.19
   0   0  -7  921.91   15.60
   0   0  -7  901.03   16.19
   0   0  -8  311.37    6.46
   0   0   8  325.64    7.48
   0   0  -8  316.22    7.47
   0   0  -8  316.45    5.82
   0   0  -8  307.53    6.45
   0   0  -9    1.86    0.40
   0   0  -9    1.40    0.38
   0   0  -9    1.37    0.47
   0   0   9    1.64    0.53
   0   0  -9    1.71    0.24
   0   0 -10   40.99    1.71
   0   0  10   39.81    2.25
   0   0 -10   41.15    2.34
   0   0 -10   41.03    1.18
   0   0 -10   41.07    1.71
   0   0 -11  120.67    3.47
   0   0  11  126.84    4.55
   0   0 -11  120.42    2.47
   0   0 -11  119.81    3.44
   0   0  12   18.21    1.70
   0   0 -12   20.97    1.25
   0   0 -12   18.79    1.21
   0   0  13   11.04    1.43
   0   0 -13   10.73    0.91
   0   0 -13   12.29    0.97
   0   0  14    9.86    1.38
   0   0  15   14.11    1.78
   0   0  16    4.45    1.15
   0   0  17    6.05    1.40
   0  -1  17    1.99    1.04
   0  -1  16    4.85    1.17
   0  -1  15   20.01    2.03
   0  -1  14    0.22    0.53
   0  -1  13    4.92    1.02
   0   1 -13    4.90    0.55
   0   1 -13    5.05    0.57
   0  -1  12    8.97    1.24
   0   1 -12    8.71    0.72
   0   1 -12    8.87    0.71
   0  -1  11    6.30    0.99
   0   1 -11    5.23    0.55
   0   1 -11    5.40    0.56
   0   1 -10   23.47    1.76
   0  -1  10   21.76    1.67
   0   1 -10   20.14    1.04
   0   1 -10   21.71    1.08
   0  -1   9   36.09    2.06
   0   1  -9   37.19    2.12
   0   1  -9   33.96    1.06
   0   1  -9   34.19    1.35
   0   1  -8    4.96    0.47
   0   1  -8    4.41    0.65
   0  -1   8    5.06    0.73
   0   1  -8    4.91    0.36
   0  -1   8    4.25    0.37
   0  -1   7   15.36    1.17
   0   1  -7   14.12    1.13
   0  -1   7   13.86    0.66
   0   1  -7   13.85    0.62
   0   1  -7   14.06    0.74
   0   1  -6  346.64    7.45
   0  -1   6  344.20    7.40
   0  -1   6  339.02    6.24
   0   1  -6  345.70    6.17
   0   1  -6  327.28    6.35
   0   1  -5   22.97    1.25
   0  -1   5   22.93    1.23
   0  -1   5   22.66    0.79
   0   1  -5   22.96    0.78
   0   1  -5   22.68    0.84
   0   1  -4    9.95    0.73
   0  -1   4    9.71    0.74
   0   1  -4   10.79    0.48
   0  -1   4   10.41    0.47
   0   1  -3   39.75    1.40
   0  -1   3   41.59    1.42
   0  -1   3   41.21    1.05
   0   1  -3   39.97    1.05
   0   1  -2  414.02    7.70
   0  -1   2  432.23    7.69
   0   1  -2  424.58    7.38
   0  -1   2  427.81    7.38
   0  -1   1    3.76    0.26
   0   1  -1    4.02    0.27
   0   1   1 1322.30   22.22
   0  -1  -1 1329.02   22.23
   0  -1  -1 1318.10   22.23
   0   1   1 1333.77   22.22
   0   1   2  237.23    4.33
   0  -1  -2  229.23    4.33
   0  -1  -2  237.48    4.53
   0  -1  -2  230.86    4.51
   0   1   2  232.97    4.54
   0  -1  -3  377.73    7.01
   0   1   3  382.49    7.00
   0  -1  -3  383.43    7.08
   0  -1  -3  372.90    7.07
   0   1   3  375.61    7.14
   0   1   4   21.39    0.99
   0  -1  -4   19.79    0.95
   0  -1  -4   21.89    0.98
   0   1   4   18.58    0.94
   0  -1  -4   19.69    0.93
   0  -1  -5  362.53    7.04
   0   1   5  362.53    7.23
   0  -1  -5  361.74    7.25
   0  -1  -5  344.93    6.66
   0  -1  -5  355.51    7.02
   0   1   5  354.10    7.10
   0  -1  -6  614.51   11.41
   0  -1  -6  592.23   11.74
   0   1   6  621.34   11.74
   0  -1  -6  617.00   10.95
   0   1   6  601.88   11.51
   0  -1  -6  610.45   11.41
   0  -1  -7  202.83    4.71
   0   1   7  199.62    5.05
   0  -1  -7  200.67    5.10
   0  -1  -7  202.59    4.20
   0   1   7  192.40    4.78
   0  -1  -7  197.63    4.66
   0  -1  -8   27.03    1.43
   0  -1  -8   29.55    1.79
   0   1   8   30.79    1.79
   0  -1  -8   24.76    1.03
   0  -1  -8   25.69    1.38
   0   1   8   23.93    1.41
   0  -1  -9  519.09   10.38
   0  -1  -9  523.26   11.20
   0   1   9  506.69   11.08
   0  -1  -9  526.87    9.48
   0  -1  -9  521.50   10.38
   0   1   9  505.70   10.56
   0  -1 -10   -0.19    0.22
   0  -1 -10    0.09    0.23
   0  -1 -10    0.25    0.26
   0   1  10    0.38    0.51
   0  -1 -10    0.31    0.22
   0  -1 -11   34.25    1.75
   0  -1 -11   30.84    2.08
   0   1  11   31.28    2.08
   0  -1 -11   30.41    1.11
   0  -1 -11   29.61    1.64
   0  -1 -12  119.71    3.76
   0   1  12  117.50    4.54
   0  -1 -12  116.79    2.55
   0  -1 -12  115.70    3.69
   0   1  13   95.67    4.20
   0  -1 -13   94.25    3.31
   0  -1 -13   90.13    3.24
   0   1  14    0.72    0.60
   0   1  15    0.21    0.44
   0   1  16   22.12    2.21
   0   1  17   11.86    1.73
   0  -2  16   58.49    3.81
   0  -2  15   15.99    1.87
   0  -2  14   13.56    1.66
   0  -2  13   13.59    1.56
   0   2 -13   14.10    0.78
   0   2 -13   13.69    0.76
   0  -2  12   95.23    4.13
   0   2 -12   88.11    2.35
   0   2 -12   84.18    2.33
   0  -2  11   -0.65    0.46
   0   2 -11    0.30    0.19
   0   2 -11    0.00    0.15
   0  -2  10    1.00    0.32
   0   2 -10    1.81    0.58
   0   2 -10    2.60    0.35
   0  -2  10    1.74    0.30
   0   2  -9   22.48    1.68
   0  -2   9   20.82    1.58
   0  -2   9   21.11    0.96
   0   2  -9   20.83    0.93
   0  -2   8   30.32    1.82
   0   2  -8   32.85    1.89
   0  -2   8   28.79    1.13
   0   2  -8   28.30    1.07
   0   2  -7    9.91    0.95
   0  -2   7   10.36    0.99
   0  -2   7    9.90    0.62
   0   2  -7    9.17    0.56
   0   2  -6    5.98    0.71
   0  -2   6    5.67    0.68
   0  -2   6    6.17    0.47
   0   2  -5    0.93    0.29
   0  -2   5    0.65    0.30
   0  -2   5    0.79    0.20
   0   2  -4    8.18    0.68
   0  -2   4    9.27    0.72
   0  -2   4    8.53    0.53
   0  -2   3   56.58    1.78
   0   2  -3   55.56    1.77
   0  -2   3   55.20    1.57
   0  -2   2   70.84    1.88
   0   2  -2   70.35    1.87
   0   2  -2   72.84    1.70
   0   2  -1   11.39    0.53
   0  -2   1   11.48    0.53
   0   2  -1   12.37    0.59
   0  -2   1   11.84    0.58
   0   2   0  100.66    2.42
   0   2   0  104.35    2.42
   0  -2   0  103.93    2.41
   0  -2  -1    8.80    0.40
   0  -2  -1    7.70    0.56
   0   2   1    8.14    0.56
   0  -2  -1    8.34    0.56
   0   2   1    8.48    0.57
   0  -2  -2  412.86    7.32
   0   2   2  424.70    7.33
   0  -2  -2  427.07    8.02
   0   2   2  422.93    8.01
   0   2   2  428.67    8.02
   0  -2  -2  422.00    7.99
   0  -2  -3   12.52    0.61
   0   2   3   12.11    0.60
   0  -2  -3   12.84    0.81
   0   2   3   13.05    0.83
   0  -2  -3   12.61    0.79
   0  -2  -4  143.60    3.35
   0   2   4  151.62    3.38
   0  -2  -4  151.78    3.72
   0  -2  -4  148.92    3.70
   0   2   4  152.33    3.77
   0  -2  -5  763.47   14.10
   0   2   5  793.50   14.13
   0  -2  -5  785.05   14.42
   0   2   5  777.34   14.47
   0  -2  -5  784.04   14.40
   0   2   6   10.72    0.84
   0  -2  -6   10.47    0.82
   0  -2  -6    9.11    0.81
   0  -2  -6    9.63    0.82
   0   2   6    9.58    0.85
   0  -2  -7   58.42    2.25
   0  -2  -7   56.58    2.24
   0   2   7   62.43    2.31
   0  -2  -7   54.32    1.91
   0   2   7   55.48    2.27
   0  -2  -7   59.92    2.27
   0  -2  -8  358.82    7.81
   0  -2  -8  351.23    7.94
   0   2   8  367.64    8.01
   0  -2  -8  345.24    7.15
   0  -2  -8  355.68    7.78
   0   2   8  341.34    7.89
   0  -2  -9  151.63    4.37
   0  -2  -9  150.36    4.61
   0   2   9  148.97    4.58
   0  -2  -9  168.93    3.92
   0  -2  -9  155.24    4.41
   0   2   9  154.66    4.62
   0  -2 -10   41.14    2.03
   0  -2 -10   37.10    2.15
   0   2  10   38.96    2.18
   0  -2 -10   40.52    1.60
   0  -2 -10   38.38    1.96
   0   2  10   39.05    2.12
   0  -2 -11    4.31    0.77
   0   2  11    5.45    0.91
   0  -2 -11    4.30    0.67
   0  -2 -11    4.10    0.69
   0   2  11    2.51    0.62
   0  -2 -11    4.54    0.51
   0  -2 -12  169.31    5.02
   0   2  12  168.86    5.57
   0  -2 -12  171.18    3.92
   0  -2 -12  162.02    4.93
   0  -2 -13    0.77    0.43
   0  -2 -13    0.71    0.44
   0  -2 -13    0.39    0.19
   0   2  13    0.62    0.48
   0   2  14   63.86    3.52
   0   2  15    7.24    1.21
   0   2  16   21.04    2.22
   0   2  17    2.58    0.75
   0  -3  16   13.23    1.89
   0  -3  15   30.14    2.64
   0  -3  14   90.24    4.49
   0  -3  13    2.04    0.63
   0   3 -13    1.68    0.17
   0   3 -12   23.61    0.86
   0  -3  12   24.75    2.10
   0  -3  12   22.24    1.05
   0   3 -12   22.62    0.84
   0  -3  11   27.30    2.07
   0  -3  11   26.29    1.20
   0   3 -11   26.27    0.97
   0  -3  10  228.38    6.62
   0  -3  10  229.97    4.95
   0   3 -10  223.16    4.52
   0   3  -9    0.35    0.32
   0  -3   9    0.24    0.36
   0  -3   9    1.04    0.31
   0   3  -9    0.63    0.17
   0   3  -8   59.42    2.74
   0  -3   8   58.71    2.68
   0  -3   8   46.09    1.70
   0  -3   7  253.48    6.32
   0   3  -7  257.54    6.41
   0  -3   7  248.57    5.34
   0  -3   6   72.66    2.70
   0   3  -6   74.28    2.74
   0  -3   6   73.27    2.20
   0  -3   5   28.61    1.50
   0   3  -5   28.81    1.49
   0  -3   5   28.80    1.24
   0   3  -5   27.72    0.99
   0   3  -4  128.94    3.48
   0  -3   4  135.49    3.53
   0  -3   4  131.22    3.26
   0   3  -4  135.08    2.94
   0   3  -3  118.31    3.02
   0  -3   3  115.69    2.98
   0  -3   3  112.74    2.94
   0   3  -3  120.58    2.73
   0   3  -2   75.05    2.04
   0  -3   2   75.16    2.03
   0  -3   2   74.61    2.03
   0   3  -2   76.62    2.04
   0  -3   1   75.33    1.84
   0   3  -1   76.14    1.86
   0   3  -1   73.19    2.11
   0  -3   1   76.85    2.12
   0   3  -1   78.91    2.15
   0  -3   0    1.89    0.18
   0   3   0    2.40    0.36
   0   3   0    2.10    0.35
   0  -3   0    2.47    0.36
   0  -3  -1   40.94    1.60
   0   3   1   41.25    1.59
   0   3   1   41.28    1.11
   0   3   1   44.19    1.63
   0  -3  -1   41.20    1.58
   0  -3  -2  298.30    5.34
   0   3   2  311.10    6.48
   0  -3  -2  315.59    5.79
   0  -3  -2  309.12    6.46
   0  -3  -2  307.51    6.43
   0   3   2  313.96    6.47
   0  -3  -3   18.97    0.72
   0  -3  -3   19.62    1.14
   0   3   3   17.82    1.11
   0  -3  -3   20.11    0.93
   0   3   3   19.44    1.16
   0  -3  -3   20.22    1.14
   0  -3  -4   21.18    0.91
   0   3   4   21.07    0.91
   0  -3  -4   21.91    1.28
   0  -3  -4   21.45    1.25
   0   3   4   22.24    1.30
   0   3   5   11.04    0.73
   0  -3  -5   10.87    0.73
   0  -3  -5   12.18    0.97
   0   3   5   11.97    1.01
   0  -3  -5   11.56    0.94
   0  -3  -6  420.85    8.45
   0   3   6  426.79    8.43
   0  -3  -6  421.29    8.98
   0   3   6  421.84    9.10
   0  -3  -6  421.21    8.98
   0   3   7   16.47    1.11
   0  -3  -7   16.99    1.11
   0  -3  -7   15.77    1.20
   0   3   7   16.38    1.27
   0  -3  -7   16.72    1.24
   0   3   8  106.32    3.36
   0  -3  -8  104.82    3.37
   0  -3  -8  103.52    3.51
   0   3   8   98.25    3.56
   0  -3  -8  107.25    3.55
   0  -3  -9   22.14    1.54
   0   3   9   22.98    1.53
   0  -3  -9   21.82    1.48
   0  -3  -9   22.66    1.37
   0   3   9   21.77    1.66
   0  -3  -9   22.40    1.53
   0  -3 -10  102.32    3.65
   0  -3 -10   97.15    3.63
   0   3  10  103.28    3.69
   0  -3 -10  103.76    3.22
   0   3  10   94.10    3.71
   0  -3 -10   96.30    3.57
   0  -3 -11   11.22    1.17
   0   3  11   12.46    1.28
   0  -3 -11   11.77    1.24
   0  -3 -11   11.63    0.94
   0   3  11   12.23    1.32
   0  -3 -11   12.20    1.20
   0  -3 -12   84.82    3.50
   0   3  12   82.86    3.62
   0  -3 -12   88.69    2.83
   0   3  12   81.23    3.66
   0  -3 -12   80.09    3.38
   0   3  13   18.98    1.72
   0  -3 -13   18.93    1.12
   0  -3 -13   18.43    1.57
   0   3  14   35.90    2.55
   0   3  15   26.61    2.30
   0   3  16   10.64    1.60
   0   3  17   24.34    2.39
   0  -4  16   18.04    2.16
   0  -4  15   30.98    2.73
   0  -4  14    2.33    0.73
   0  -4  13  146.40    5.75
   0  -4  12   35.95    2.53
   0  -4  12   30.65    1.43
   0  -4  11   49.05    2.85
   0  -4  11   46.99    1.85
   0   4 -11   48.54    1.29
   0   4 -11   45.47    1.31
   0   4 -10    0.44    0.16
   0  -4  10    0.58    0.39
   0  -4  10    0.58    0.27
   0   4 -10    0.47    0.18
   0  -4   9  464.33   10.89
   0   4  -9  492.91   11.11
   0  -4   9  484.05    9.51
   0   4  -9  472.73    8.66
   0  -4   8   17.74    1.44
   0   4  -8   21.19    1.58
   0  -4   8   19.04    1.13
   0   4  -8   17.96    0.84
   0   4  -7   92.11    3.37
   0  -4   7   91.84    3.31
   0  -4   7   90.22    2.78
   0   4  -7   88.87    2.30
   0  -4   6  397.40    8.73
   0   4  -6  406.65    8.81
   0  -4   6  395.65    8.16
   0   4  -6  399.85    7.57
   0  -4   5   31.83    1.64
   0   4  -5   36.11    1.74
   0  -4   5   32.16    1.50
   0   4  -5   31.49    1.24
   0   4  -4    0.52    0.21
   0  -4   4    0.95    0.30
   0  -4   4    1.07    0.34
   0   4  -4    0.54    0.24
   0  -4   3    0.46    0.22
   0   4  -3    1.00    0.28
   0   4  -3    0.40    0.22
   0  -4   2  136.75    3.19
   0   4  -2  137.28    3.24
   0   4  -2  137.55    3.44
   0   4  -2  136.16    3.42
   0  -4   2  131.60    3.39
   0  -4   1   51.02    1.49
   0   4  -1   54.59    1.98
   0  -4   1   51.54    1.90
   0   4  -1   59.25    2.02
   0  -4   0    0.74    0.14
   0  -4   0    0.96    0.29
   0   4   0    0.61    0.30
   0   4   0    0.78    0.29
   0   4   1  147.24    3.05
   0   4   1  153.36    3.98
   0   4   1  150.45    3.94
   0  -4  -1  146.19    3.89
   0   4   2  153.82    4.12
   0  -4  -2  150.96    4.09
   0   4   2  154.89    4.10
   0  -4  -2  147.18    4.04
   0  -4  -3   29.62    0.89
   0  -4  -3   32.06    1.65
   0  -4  -3   32.29    1.24
   0   4   3   29.80    1.60
   0   4   3   30.99    1.64
   0  -4  -3   29.09    1.57
   0  -4  -4   37.81    1.22
   0  -4  -4   39.83    1.93
   0  -4  -4   40.19    1.56
   0   4   4   39.79    1.93
   0  -4  -4   40.60    1.93
   0   4   5   44.71    1.53
   0  -4  -5   42.93    1.51
   0  -4  -5   41.71    2.06
   0   4   5   45.25    2.19
   0  -4  -5   47.05    2.16
   0  -4  -6    1.93    0.34
   0   4   6    1.59    0.32
   0  -4  -6    2.46    0.54
   0  -4  -6    2.04    0.48
   0   4   6    2.37    0.55
   0   4   7   41.93    1.77
   0  -4  -7   41.39    1.78
   0  -4  -7   43.72    2.22
   0   4   7   43.27    2.29
   0  -4  -7   43.58    2.21
   0  -4  -8  109.40    3.44
   0   4   8  114.46    3.47
   0  -4  -8  117.72    4.02
   0   4   8  106.78    3.98
   0  -4  -8  116.60    3.99
   0  -4  -9   10.60    1.02
   0   4   9   11.38    1.03
   0  -4  -9   11.08    1.18
   0   4   9   11.66    1.28
   0  -4  -9   10.24    1.12
   0  -4 -10    6.76    0.86
   0   4  10    6.82    0.86
   0  -4 -10    7.55    1.01
   0  -4 -10    7.32    0.96
   0  -4 -10    7.56    0.88
   0   4  10    7.05    1.01
   0  -4 -11   44.82    2.56
   0   4  11   46.59    2.45
   0  -4 -11   48.29    2.54
   0  -4 -11   42.63    2.15
   0   4  11   45.42    2.70
   0  -4 -11   46.43    2.56
   0   4  12    3.32    0.78
   0  -4 -12    1.82    0.45
   0   4  12    1.34    0.44
   0   4  13   19.25    1.74
   0  -4 -13   16.63    1.24
   0   4  13   16.97    1.78
   0   4  14    9.85    1.34
   0   4  14    8.38    1.28
   0   4  15   35.15    2.63
   0   4  16    3.67    1.00
   0   4  17   28.87    2.58
   0  -5  15   68.79    4.16
   0  -5  14    1.03    0.68
   0  -5  13    9.12    1.43
   0  -5  12   55.81    3.28
   0  -5  12   57.51    2.27
   0   5 -11  184.03    3.72
   0  -5  11  187.11    6.21
   0  -5  11  185.53    4.82
   0   5 -11  178.81    3.81
   0   5 -11  183.04    3.71
   0  -5  10   70.86    3.40
   0  -5  10   68.06    2.57
   0   5 -10   70.06    1.94
   0  -5   9   17.05    1.59
   0  -5   9   17.64    1.26
   0   5  -9   17.21    0.88
   0  -5   8  239.26    6.64
   0   5  -8  249.62    6.78
   0  -5   8  248.37    5.97
   0   5  -8  250.78    5.23
   0   5  -7   73.28    3.00
   0  -5   7   69.30    2.90
   0  -5   7   70.17    2.60
   0   5  -7   70.55    2.15
   0   5  -6   78.61    2.99
   0  -5   6   78.43    2.95
   0  -5   6   77.19    2.75
   0   5  -6   77.93    2.35
   0   5  -5   59.85    2.06
   0   5  -5   58.11    2.37
   0  -5   5   58.16    2.36
   0  -5   5   60.06    2.35
   0   5  -5   59.73    2.05
   0   5  -4  163.15    4.08
   0  -5   4  163.62    4.25
   0   5  -4  162.53    4.27
   0  -5   4  161.99    4.43
   0   5  -4  166.15    4.08
   0   5  -3   45.76    1.79
   0  -5   3   46.29    1.77
   0   5  -3   47.94    1.89
   0   5  -3   47.84    1.87
   0  -5   2   88.50    2.44
   0   5  -2   85.38    2.45
   0   5  -2   90.98    2.85
   0  -5   2   89.47    2.82
   0   5  -2   92.88    2.84
   0  -5   1  108.91    2.60
   0   5  -1  107.49    3.29
   0   5  -1  118.50    3.39
   0  -5   1  111.95    3.33
   0  -5   0  254.70    4.82
   0   5   0  265.57    6.16
   0   5   0  271.66    6.19
   0  -5   0  253.40    6.05
   0   5   1   12.72    0.64
   0   5   1   13.92    1.09
   0  -5  -1   13.70    1.08
   0   5   1   14.44    1.12
   0   5   2   17.37    1.36
   0   5   2   19.75    1.36
   0  -5  -2   20.11    1.35
   0  -5  -3  117.60    2.29
   0   5   3  125.25    3.93
   0  -5  -3  122.32    3.87
   0   5   3  125.41    3.92
   0  -5  -3  117.74    3.82
   0  -5  -4   45.25    1.28
   0  -5  -4   46.27    2.27
   0  -5  -4   48.67    1.76
   0  -5  -4   45.02    2.23
   0   5   4   46.89    2.30
   0  -5  -5    0.47    0.17
   0  -5  -5    0.82    0.31
   0   5   5    0.69    0.34
   0  -5  -5    0.83    0.36
   0  -5  -5    0.75    0.42
   0  -5  -6   13.93    0.85
   0  -5  -6   15.82    1.37
   0  -5  -6   15.20    1.12
   0   5   6   15.07    1.39
   0  -5  -6   18.05    1.45
   0  -5  -7   54.70    2.02
   0  -5  -7   55.69    2.72
   0  -5  -7   57.89    2.44
   0  -5  -7   56.53    2.74
   0   5   7   57.72    2.84
   0  -5  -8   34.32    1.69
   0  -5  -8   39.94    2.34
   0  -5  -8   37.22    2.04
   0  -5  -8   36.32    2.21
   0   5   8   38.33    2.36
   0  -5  -9   13.74    1.12
   0   5   9   12.46    1.07
   0  -5  -9   14.62    1.43
   0   5   9   11.65    1.34
   0  -5  -9   13.29    1.37
   0   5  10    4.66    0.74
   0  -5 -10    4.19    0.69
   0  -5 -10    4.90    0.93
   0   5  10    2.05    0.56
   0   5  11    2.75    0.67
   0  -5 -11    1.90    0.54
   0  -5 -11    1.57    0.50
   0   5  11    1.70    0.55
   0  -5 -12    4.60    0.82
   0   5  12    4.92    0.90
   0   5  12    3.71    0.84
   0  -5 -12    5.41    0.87
   0   5  13   24.97    1.93
   0  -5 -13   23.70    1.69
   0   5  13   22.63    2.16
   0   5  14    3.99    0.85
   0   5  14    2.89    0.95
   0  -5 -15    0.62    0.60
   0  -5 -16    8.67    1.49
   0  -6  15    2.04    0.83
   0  -6  14    7.97    1.36
   0  -6  13    4.97    1.09
   0  -6  12    6.79    1.19
   0  -6  12    7.30    0.88
   0   6 -11   12.60    0.72
   0  -6  11   12.54    1.53
   0  -6  11   12.74    1.13
   0   6 -11   12.26    0.72
   0   6 -10   52.42    1.77
   0  -6  10   49.68    2.87
   0  -6  10   51.42    2.37
   0   6 -10   52.11    1.78
   0   6  -9   16.14    0.98
   0  -6   9   15.37    1.51
   0  -6   9   16.40    1.31
   0   6  -9   18.33    1.03
   0   6  -8  148.32    3.85
   0  -6   8  150.42    4.98
   0   6  -8  156.34    5.08
   0  -6   8  151.03    4.51
   0   6  -8  157.31    3.90
   0   6  -7    7.97    0.74
   0   6  -7    9.00    1.03
   0  -6   7    7.56    0.94
   0  -6   7    8.00    0.90
   0   6  -7    9.44    0.80
   0   6  -6  156.17    4.12
   0   6  -6  162.21    4.77
   0  -6   6  151.95    4.57
   0  -6   6  160.12    4.67
   0   6  -6  161.04    4.14
   0   6  -5   38.85    1.78
   0   6  -5   40.79    2.00
   0  -6   5   39.11    1.92
   0  -6   5   38.08    2.01
   0   6  -5   41.17    1.81
   0   6  -4  210.48    5.21
   0  -6   4  208.64    5.16
   0   6  -4  208.80    5.21
   0  -6   4  206.99    5.59
   0   6  -4  211.78    5.19
   0  -6   3  133.55    3.59
   0   6  -3  135.89    3.92
   0   6  -3  134.03    3.64
   0   6  -3  138.19    3.92
   0  -6   2  319.24    6.56
   0   6  -2  321.97    7.35
   0   6  -2  337.36    7.42
   0  -6   2  317.52    7.30
   0  -6   1   41.43    1.41
   0   6  -1   33.44    1.90
   0  -6   1   39.14    2.02
   0   6  -1   38.82    2.08
   0  -6   0    1.38    0.22
   0   6   0    1.77    0.52
   0   6   0    2.45    0.54
   0  -6   0    1.57    0.45
   0   6   1  401.18    8.84
   0   6   1  369.26    7.09
   0  -6  -1  396.03    8.75
   0   6   1  398.80    8.80
   0   6   2  140.05    4.44
   0  -6  -2  136.97    4.34
   0   6   2  136.64    4.36
   0   6   3    8.85    1.01
   0   6   3   11.42    1.15
   0  -6  -3    8.51    0.98
   0  -6  -4   51.66    1.20
   0  -6  -4   55.76    2.64
   0   6   4   56.15    2.71
   0  -6  -5  128.54    2.84
   0  -6  -5  135.58    3.67
   0  -6  -5  134.02    4.55
   0   6   5  129.36    4.56
   0  -6  -6    4.37    0.44
   0   6   6    4.37    0.83
   0  -6  -6    5.78    0.88
   0  -6  -6    4.68    0.63
   0  -6  -7    0.07    0.18
   0  -6  -7    0.10    0.24
   0   6   7    0.32    0.48
   0  -6  -8   73.68    2.54
   0  -6  -8   77.78    3.10
   0   6   8   80.91    3.74
   0  -6  -9   39.42    1.89
   0  -6  -9   42.27    2.34
   0   6   9   36.87    2.53
   0  -6 -10   -0.15    0.33
   0  -6 -10    0.19    0.36
   0   6  10   -0.64    0.62
   0  -6 -11    0.23    0.33
   0  -6 -11   -0.07    0.47
   0   6  11    0.39    0.60
   0  -6 -12    9.54    1.29
   0  -6 -12    5.46    0.93
   0   6  12    7.61    1.33
   0  -6 -13   10.22    1.42
   0   6  13    9.66    1.47
   0  -6 -14    7.35    1.32
   0   6  14    7.36    1.32
   0  -6 -15    0.87    0.68
   0   6  15    2.99    1.06
   0  -6 -16   -0.36    0.55
   0  -7  14    3.29    0.96
   0  -7  13    0.45    0.59
   0  -7  12   13.82    1.71
   0  -7  11   29.97    2.34
   0  -7  11   29.75    1.91
   0   7 -11   31.68    1.37
   0   7 -10   26.67    1.35
   0  -7  10   24.73    2.06
   0  -7  10   24.61    1.75
   0   7 -10   24.82    1.31
   0   7  -9    2.07    0.46
   0   7  -9    2.18    0.51
   0  -7   9    1.26    0.66
   0  -7   9    1.85    0.62
   0   7  -8    8.30    0.89
   0   7  -8    9.50    1.32
   0  -7   8    8.04    1.16
   0  -7   8    5.41    0.87
   0   7  -8   11.38    1.03
   0   7  -7  110.81    3.44
   0   7  -7  111.10    4.06
   0  -7   7  108.92    3.99
   0  -7   7  108.37    3.93
   0   7  -7  113.50    3.46
   0   7  -6   27.22    1.57
   0  -7   6   27.71    1.75
   0   7  -6   27.51    1.78
   0  -7   6   28.68    1.84
   0   7  -6   27.37    1.57
   0   7  -5   26.24    1.56
   0  -7   5   25.96    1.58
   0   7  -5   26.50    1.63
   0  -7   5   27.39    1.83
   0   7  -5   24.50    1.51
   0   7  -4    1.74    0.48
   0   7  -4    0.75    0.32
   0  -7   4    1.15    0.34
   0   7  -4    0.64    0.21
   0  -7   4    1.53    0.45
   0  -7   3  145.92    3.89
   0   7  -3  155.24    4.55
   0   7  -3  153.44    4.52
   0  -7   2   23.34    1.17
   0   7  -2   24.04    1.60
   0   7  -2   24.92    1.62
   0  -7   2   23.86    1.59
   0  -7   1  157.47    3.55
   0   7  -1  152.84    4.75
   0   7  -1  163.48    4.87
   0  -7   1  157.73    4.79
   0  -7   0    4.33    0.35
   0   7   0    5.79    0.86
   0   7   0    5.02    0.78
   0   7   0    3.79    0.37
   0  -7   0    4.74    0.75
   0   7   1  381.34    7.35
   0   7   1  416.88    9.46
   0  -7  -1  404.14    9.33
   0   7   1  414.93    9.41
   0   7   2  138.70    4.66
   0   7   2  133.91    4.59
   0  -7  -2  128.79    4.47
   0   7   3  123.59    4.44
   0   7   3  118.82    4.36
   0  -7  -3  120.49    4.35
   0  -7  -4   47.46    2.61
   0   7   4   49.01    2.70
   0   7   5   58.97    3.09
   0  -7  -6   75.59    1.91
   0  -7  -6   81.03    2.82
   0   7   6   76.32    3.66
   0  -7  -7   23.09    1.06
   0  -7  -7   23.55    1.52
   0   7   7   22.41    1.99
   0  -7  -8   15.14    0.98
   0  -7  -8   18.50    1.43
   0   7   8   17.45    1.88
   0  -7  -9    1.39    0.48
   0  -7  -9    2.91    0.78
   0   7   9    2.84    1.04
   0  -7 -10   27.79    2.00
   0   7  10   26.59    2.38
   0  -7 -11   -0.64    0.56
   0   7  11   -0.07    0.58
   0  -7 -12    2.33    0.70
   0   7  12    2.92    0.87
   0  -7 -13    8.91    1.33
   0   7  13    7.26    1.39
   0  -7 -14    9.27    1.44
   0   7  14    7.09    1.33
   0  -7 -15    0.57    0.55
   0   7  15    1.06    0.76
   0  -8  14    8.48    1.49
   0  -8  13    0.74    0.52
   0  -8  12   12.84    1.65
   0  -8  11   39.41    2.77
   0  -8  10   31.99    2.37
   0  -8  10   32.78    2.19
   0   8 -10   34.53    1.71
   0   8  -9   17.79    1.27
   0  -8   9   16.94    1.66
   0  -8   9   18.16    1.66
   0   8  -9   17.92    1.28
   0   8  -8   13.36    1.11
   0  -8   8   12.83    1.39
   0  -8   8   10.97    1.25
   0   8  -8   12.65    1.11
   0   8  -7    9.87    1.01
   0   8  -7   11.34    1.06
   0   8  -7   11.00    1.22
   0  -8   7   11.25    1.20
   0  -8   7    9.86    1.19
   0   8  -6   65.52    2.92
   0   8  -6   65.76    2.77
   0  -8   6   62.48    2.80
   0  -8   6   64.99    3.11
   0   8  -6   65.58    2.76
   0   8  -5  102.78    3.64
   0   8  -5  106.27    3.74
   0  -8   5  103.10    3.56
   0  -8   5  106.50    4.12
   0   8  -5  106.00    3.73
   0   8  -4    0.62    0.31
   0   8  -4    0.03    0.28
   0  -8   4    0.60    0.37
   0  -8   4    0.44    0.30
   0   8  -3    0.15    0.26
   0   8  -3   -0.06    0.33
   0  -8   3    0.03    0.25
   0  -8   3   -0.29    0.27
   0  -8   2  112.78    3.07
   0   8  -2  109.39    4.01
   0  -8   2  105.72    3.94
   0   8  -2  111.28    4.02
   0  -8   1   77.75    2.18
   0   8  -1   80.17    3.38
   0  -8   1   74.74    3.27
   0   8  -1   78.45    3.34
   0  -8   0   27.94    0.95
   0   8   0   29.33    2.00
   0   8   0   25.86    1.06
   0  -8   0   26.85    1.92
   0   8   0   26.88    1.90
   0  -8  -1    0.47    0.45
   0   8   1    1.29    0.60
   0   8   1    0.98    0.47
   0   8   2  214.44    6.49
   0   8   3   14.04    1.50
   0   8   4   24.10    1.99
   0   8   5   30.02    2.31
   0   8   6   91.03    4.25
   0   8   7   26.61    2.28
   0  -8  -8   43.24    2.24
   0   8   8   40.78    2.91
   0  -8  -9   31.67    2.15
   0   8   9   30.86    2.68
   0  -8 -10   67.90    3.22
   0   8  10   62.74    3.86
   0  -8 -11   -0.20    0.38
   0   8  11   -0.53    0.52
   0  -8 -12    3.99    0.94
   0   8  12    3.39    1.02
   0  -8 -13   16.61    1.80
   0   8  13   12.95    1.92
   0   8  14    4.59    1.33
   0  -9  13   25.97    2.48
   0  -9  12    1.26    0.51
   0  -9  11    0.78    0.51
   0  -9  10   43.84    2.90
   0   9 -10   46.60    2.21
   0  -9   9   12.24    1.50
   0   9  -9   14.54    1.27
   0   9  -9   16.59    1.34
   0  -9   8    0.96    0.41
   0   9  -8    0.21    0.35
   0   9  -8    0.65    0.37
   0   9  -7    9.07    1.15
   0  -9   7   10.83    1.24
   0   9  -7    8.48    1.02
   0   9  -7   12.52    1.22
   0  -9   6   25.49    1.77
   0   9  -6   26.91    1.82
   0   9  -6   26.94    1.83
   0  -9   5   24.75    1.63
   0   9  -5   25.51    1.82
   0   9  -5   23.60    1.76
   0  -9   4   45.84    2.12
   0   9  -4   43.01    2.45
   0   9  -4   45.71    2.51
   0  -9   3   14.37    1.05
   0   9  -3   13.25    1.34
   0   9  -3   14.35    1.42
   0  -9   2    0.28    0.25
   0   9  -2   -0.68    0.54
   0  -9   1   31.54    1.25
   0   9  -1   33.77    2.23
   0  -9   0   93.71    2.04
   0   9   0   88.33    2.31
   0   9   0  102.18    4.16
   0   9   1    4.98    0.93
   0   9   2   15.35    1.59
   0   9   3   18.49    1.83
   0   9   4   96.22    4.41
   0   9   5    7.75    1.27
   0   9   6    2.33    0.95
   0   9   7   81.24    4.33
   0   9   8   54.48    3.61
   0   9   9    9.22    1.55
   0   9  10    8.86    1.51
   0   9  11   42.82    3.37
   0   9  12    5.77    1.39
   0 -10  13    0.78    0.62
   0 -10  12   17.70    2.08
   0 -10  11   12.58    1.66
   0 -10  10    0.69    0.51
   0 -10   9    0.76    0.57
   0  10  -9    0.59    0.42
   0 -10   8   41.70    2.59
   0  10  -8   39.00    2.32
   0 -10   7    1.56    0.60
   0  10  -7    1.61    0.61
   0  10  -7    0.58    0.47
   0 -10   6    2.84    0.67
   0  10  -6    3.12    0.75
   0 -10   5   30.02    1.83
   0  10  -5   31.64    2.17
   0 -10   4   49.51    2.25
   0  10  -4   49.39    2.79
   0 -10   3    0.15    0.22
   0  10  -3    0.23    0.41
   0 -10   2    0.07    0.21
   0  10  -2    0.21    0.38
   0 -10   1   15.29    0.81
   0  10  -1   14.52    1.62
   0  10  -1   14.45    0.79
   0  10   0   15.61    1.69
   0  10   1   25.52    2.18
   0  10   2   14.24    1.65
   0  10   3    3.54    0.91
   0  10   4   12.67    1.75
   0  10   5   35.35    2.85
   0  10   6   29.77    2.65
   0  10   7   20.75    2.28
   0  10   8   68.89    4.30
   0  10   9   20.02    2.36
   0  10  10    1.39    0.84
   0 -11  12   17.52    2.06
   0 -11  11   -0.51    0.67
   0 -11  10    5.59    1.05
   0 -11   9    7.34    1.24
   0  11  -9    8.00    1.09
   0 -11   8   57.59    3.16
   0  11  -8   61.59    3.14
   0 -11   7   10.12    1.22
   0  11  -7   11.25    1.35
   0 -11   6    1.75    0.53
   0  11  -6    2.26    0.61
   0 -11   5   48.88    2.43
   0  11  -5   46.64    2.89
   0 -11   4    2.08    0.47
   0  11  -4    2.18    0.73
   0 -11   3    5.69    0.67
   0  11  -3    4.82    0.93
   0 -11   2    2.65    0.43
   0  11  -2    3.09    0.77
   0  11  -1    7.75    1.25
   0  11   0    0.52    0.44
   0  11   1    7.85    1.30
   0  11   2    2.15    0.79
   0  11   3    0.10    0.54
   0  11   4    0.50    0.62
   0  11   5    1.63    0.81
   0  11   6    2.50    1.14
   0  11   7    2.42    0.82
   0  11   8   -0.06    0.64
   0 -12  11   19.53    2.13
   0 -12  10    9.46    1.44
   0 -12   9    1.27    0.59
   0 -12   8   18.94    1.79
   0  12  -8   17.31    1.74
   0 -12   7   55.42    2.96
   0  12  -7   55.33    3.23
   0  12  -6    1.76    0.69
   0  12  -5   -0.08    0.46
   0  12  -4   49.81    3.21
   0  12  -3   17.47    1.91
   0  12  -2   11.11    1.59
   0  12  -1    1.30    0.75
   0  12   0   34.32    2.84
   0  12   1   14.10    1.85
   0  12   2    0.59    0.58
   0  12   3   -0.21    0.57
   0  12   4   14.77    1.97
   0  12   5    2.33    0.98
   0  13  -7    0.08    0.45
   0  13  -6   12.66    1.62
   0  13  -5    6.53    1.25
   0  13  -4   12.65    1.75
   0  13  -3    4.39    1.10
   0  13  -2   43.77    3.28
   0  13  -1    7.48    1.37
   0  13   0    7.39    1.44
   0  13   1    7.94    1.45
   0  13   2   22.65    2.54
   0  14  -6    0.27    0.59
   0  14  -5    4.55    1.13
   0  14  -4   16.08    2.04
   0  14  -3    6.81    1.42
  -1  14  -1   -0.16    0.60
  -1  14  -2    1.97    0.92
  -1  14  -3   23.03    2.43
  -1  14  -4   -0.16    0.49
  -1  14  -5    1.32    0.78
  -1  13   3   -0.18    0.72
  -1  13   2    2.34    0.83
  -1  13   1    2.47    1.00
  -1  13   0    2.82    0.91
  -1  13  -1    4.43    1.18
  -1  13  -2   10.64    1.64
  -1  13  -3    0.67    0.73
  -1  13  -4    3.67    1.09
  -1  13  -5    0.31    0.51
  -1  13  -6    1.31    0.76
  -1  12   6   18.57    2.31
  -1  12   5    5.22    1.33
  -1  12   4    6.32    1.40
  -1  12   3    3.76    1.07
  -1  12   2   29.28    2.69
  -1  12   1    3.71    1.09
  -1  12   0    0.92    0.60
  -1  12  -1    0.15    0.49
  -1  12  -2    4.04    1.00
  -1  12  -3    1.60    0.73
  -1  12  -4   12.73    1.60
   1 -12   5    1.85    0.50
  -1  12  -5    0.71    0.41
   1 -12   6    0.75    0.36
  -1  12  -6    1.27    0.70
   1 -12   7   -0.10    0.39
  -1  12  -7    2.41    0.67
   1 -12   8    4.39    0.96
   1 -12   9   -0.30    0.43
   1 -12  10   -0.45    0.63
   1 -12  11   11.21    1.66
  -1  11   8   19.70    2.38
  -1  11   7   32.25    2.97
  -1  11   6    6.43    1.46
  -1  11   5   22.77    2.35
  -1  11   4   78.97    4.40
  -1  11   3    6.47    1.28
  -1  11   2    0.81    0.58
  -1  11   1   72.15    3.98
  -1  11   0   73.45    3.96
   1 -11   1    0.81    0.28
  -1  11  -1    1.55    0.84
   1 -11   2    2.17    0.40
  -1  11  -2    1.83    0.64
   1 -11   3   23.37    1.49
  -1  11  -3   24.03    2.09
   1 -11   4   52.26    2.45
  -1  11  -4   49.47    3.00
   1 -11   5    0.71    0.42
  -1  11  -5    0.42    0.36
   1 -11   6    5.85    0.92
  -1  11  -6    4.58    0.85
   1 -11   7    3.39    0.79
  -1  11  -7    2.30    0.67
   1 -11   8    2.78    0.80
  -1  11  -8    4.68    0.85
   1 -11   9    7.73    1.27
   1 -11  10    3.72    0.92
   1 -11  11    0.34    0.54
   1 -11  12    4.25    1.16
  -1  10  10   18.27    2.28
  -1  10   9    5.07    1.19
  -1  10   8   15.41    2.04
  -1  10   7   10.07    1.58
  -1  10   6   71.55    4.13
  -1  10   5   -0.06    0.53
  -1  10   4   12.20    1.66
  -1  10   3   55.40    3.40
  -1  10   2   96.81    4.51
   1 -10  -1    8.79    0.44
  -1  10   1    9.31    0.77
  -1  10   1   12.31    1.58
   1 -10   0    0.25    0.18
  -1  10   0   -0.39    0.45
  -1  10   0   -0.08    0.22
   1 -10   1  106.72    3.01
  -1  10  -1  115.36    4.65
   1 -10   2   10.30    0.90
  -1  10  -2   11.80    1.40
   1 -10   3    0.19    0.26
  -1  10  -3    0.25    0.42
   1 -10   4    1.38    0.49
  -1  10  -4    1.01    0.45
   1 -10   5  133.57    4.41
  -1  10  -5  139.36    4.87
   1 -10   6    0.73    0.38
  -1  10  -6    0.50    0.37
   1 -10   7   -0.16    0.37
  -1  10  -7    0.35    0.36
   1 -10   8   38.49    2.54
  -1  10  -8   42.58    2.32
   1 -10   9   13.10    1.58
  -1  10  -9   11.86    1.15
   1 -10  10   12.20    1.58
   1 -10  11   13.53    1.73
   1 -10  12    3.58    0.97
   1 -10  13    4.14    1.10
  -1   9  12    0.52    0.86
  -1   9  11    0.94    0.76
  -1   9  10    5.93    1.30
  -1   9   9    5.61    1.22
  -1   9   8   40.38    3.06
  -1   9   7   78.92    4.23
  -1   9   6    6.94    1.22
  -1   9   5   74.82    3.93
  -1   9   4    1.78    0.75
  -1   9   3   52.29    3.09
   1  -9  -2    3.48    0.24
   1  -9  -2    3.48    0.24
  -1   9   2    4.71    0.89
   1  -9  -1  145.90    3.13
  -1   9   1  133.87    3.67
  -1   9   1  156.12    5.41
   1  -9   0   27.00    1.17
  -1   9   0   24.58    1.32
  -1   9   0   27.32    2.05
   1  -9   1   64.06    2.18
  -1   9  -1   68.57    3.31
   1  -9   2   75.00    2.57
   1  -9   2   75.98    3.37
  -1   9  -2   79.85    3.47
   1  -9   3   52.17    2.19
  -1   9  -3   48.21    2.60
   1  -9   3   44.79    2.48
   1  -9   4   48.94    2.27
  -1   9  -4   46.67    2.50
   1  -9   5    2.71    0.58
  -1   9  -5    2.07    0.62
   1  -9   6   30.09    1.97
  -1   9  -6   32.87    1.97
   1  -9   7   23.06    1.81
  -1   9  -7   27.67    1.75
   1  -9   8   24.20    1.96
  -1   9  -8   27.80    1.74
   1  -9   9   16.60    1.76
  -1   9  -9   17.85    1.33
   1  -9  10   17.97    1.84
   1  -9  11    5.06    1.03
   1  -9  12    0.66    0.56
   1  -9  13    4.44    1.14
   1  -8 -14    2.35    0.84
  -1   8  14    1.86    0.85
   1  -8 -13    0.86    0.53
  -1   8  13    0.27    0.68
   1  -8 -12    2.56    0.74
   1  -8 -12    1.16    0.55
  -1   8  12    1.36    0.62
   1  -8 -11   -0.65    0.56
  -1   8  11   -1.01    0.76
   1  -8 -10    2.06    0.61
  -1   8  10    1.56    0.75
   1  -8  -9   33.95    2.21
  -1   8   9   33.75    2.74
   1  -8  -8    0.03    0.18
   1  -8  -8   -0.25    0.52
  -1   8   8    0.49    0.50
   1  -8  -7    1.80    0.31
   1  -8  -7    2.22    0.67
  -1   8   7    2.63    0.83
   1  -8  -6   26.13    1.03
   1  -8  -6   24.75    2.11
  -1   8   6   24.38    2.16
   1  -8  -5   13.74    0.62
   1  -8  -5   13.34    1.52
  -1   8   5   15.04    1.62
   1  -8  -4    6.38    0.37
  -1   8   4    6.78    1.08
   1  -8  -3    1.31    0.16
   1  -8  -3    1.27    0.17
  -1   8   3    0.82    0.51
   1  -8  -2   38.33    1.15
  -1   8   2   36.64    1.59
  -1   8   2   40.39    2.46
   1  -8  -1   80.57    2.09
  -1   8   1   75.08    2.44
   1  -8  -1   85.95    3.56
  -1   8   1   84.34    3.59
   1  -8   0   48.11    1.66
   1  -8   0   52.17    2.65
  -1   8   0   52.87    2.69
   1  -8   1    2.53    0.48
  -1   8  -1    2.26    0.77
   1  -8   1    2.39    0.66
   1  -8   2  208.32    5.01
  -1   8  -2  214.50    5.97
   1  -8   2  199.86    5.79
  -1   8  -2  212.61    5.94
   1  -8   3    0.63    0.29
   1  -8   3    0.04    0.30
  -1   8  -3    1.04    0.41
  -1   8  -3    0.70    0.37
   1  -8   4   89.46    3.16
  -1   8  -4   88.58    3.36
  -1   8  -4   98.47    3.49
   1  -8   5   47.03    2.32
  -1   8  -5   47.18    2.27
  -1   8  -5   49.64    2.33
  -1   8  -6  170.53    4.81
   1  -8   6  166.82    5.16
   1  -8   6  170.34    5.40
  -1   8  -6  176.13    4.86
   1  -8   7   24.48    1.82
   1  -8   7   24.54    1.80
  -1   8  -7   22.97    1.44
   1  -8   8  108.87    4.28
   1  -8   8  107.91    4.10
  -1   8  -8  112.48    3.46
   1  -8   9   32.26    2.34
   1  -8   9   33.71    2.19
  -1   8  -9   36.13    1.72
   1  -8  10   66.27    3.54
   1  -8  10   70.06    3.18
  -1   8 -10   71.56    2.33
   1  -8  11   67.02    3.70
   1  -8  12    6.29    1.18
   1  -8  13   17.48    2.05
   1  -8  14    0.62    0.83
   1  -7 -15    2.92    0.79
  -1   7  15    1.73    0.75
   1  -7 -14   17.46    1.99
  -1   7  14   13.83    1.88
   1  -7 -13   22.79    2.15
   1  -7 -13   20.70    1.90
  -1   7  13   20.44    2.31
   1  -7 -12    5.96    1.11
   1  -7 -12    4.10    0.98
  -1   7  12    6.14    1.21
   1  -7 -11    0.19    0.35
   1  -7 -11    0.66    0.66
  -1   7  11    0.21    0.46
   1  -7 -10   22.11    1.48
   1  -7 -10   25.42    2.23
   1  -7 -10   24.16    1.88
  -1   7  10   20.73    2.10
   1  -7  -9   16.82    1.21
   1  -7  -9   21.25    1.70
   1  -7  -9   19.28    1.91
  -1   7   9   20.67    2.00
   1  -7  -8    0.64    0.29
   1  -7  -8    0.91    0.41
   1  -7  -8    0.85    0.53
  -1   7   8    3.09    0.94
   1  -7  -7   15.66    0.98
   1  -7  -7   16.46    1.64
   1  -7  -7   16.98    1.35
  -1   7   7   14.83    1.60
   1  -7  -6    7.28    0.59
   1  -7  -6    7.60    1.12
  -1   7   6    6.45    1.06
   1  -7  -5   11.00    0.66
   1  -7  -5   12.44    1.36
  -1   7   5   12.90    1.46
   1  -7  -4   41.82    1.30
   1  -7  -4   43.89    2.52
   1  -7  -4   43.23    2.47
  -1   7   4   45.28    2.60
   1  -7  -3   61.53    1.63
   1  -7  -3   59.62    2.93
  -1   7   3   73.99    3.28
   1  -7  -3   64.34    3.00
   1  -7  -2    3.75    0.35
   1  -7  -2    4.62    0.82
  -1   7   2    4.23    0.52
  -1   7   2    5.83    0.98
   1  -7  -2    4.40    0.81
   1  -7  -1   78.83    2.10
  -1   7   1   79.73    2.47
   1  -7  -1   82.01    3.30
  -1   7   1   92.95    3.54
   1  -7   0  336.64    6.72
  -1   7   0  361.76    8.32
   1  -7   0  337.06    8.13
   1  -7   1   24.83    1.23
  -1   7  -1   26.43    1.72
  -1   7  -1   28.12    1.82
   1  -7   1   25.25    1.65
   1  -7   2    1.02    0.32
  -1   7  -2    1.11    0.47
  -1   7  -2    1.10    0.37
   1  -7   2    1.38    0.42
   1  -7   3  136.21    3.85
  -1   7  -3  136.90    4.15
  -1   7  -3  140.66    4.19
   1  -7   3  133.87    4.08
   1  -7   4  263.59    6.34
  -1   7  -4  262.73    6.35
   1  -7   4  256.39    6.26
  -1   7  -4  268.01    6.38
  -1   7  -5    0.47    0.28
  -1   7  -5    0.72    0.36
   1  -7   5    1.05    0.44
  -1   7  -6    3.15    0.51
  -1   7  -6    3.24    0.51
   1  -7   6    2.42    0.56
   1  -7   6    2.90    0.65
  -1   7  -7  224.81    6.37
  -1   7  -7  214.87    5.17
   1  -7   7  207.28    6.10
   1  -7   7  209.33    5.87
  -1   7  -7  221.55    5.21
   1  -7   8   46.76    2.64
   1  -7   8   42.76    2.28
  -1   7  -8   50.58    1.93
   1  -7   9   69.55    3.40
   1  -7   9   68.16    2.94
  -1   7  -9   75.40    2.30
   1  -7  10    1.18    0.63
   1  -7  10    1.78    0.59
  -1   7 -10    0.36    0.20
   1  -7  11  219.15    5.89
   1  -7  11  214.97    7.13
   1  -7  12    1.04    0.62
   1  -7  13   42.76    3.12
   1  -7  14    5.03    1.19
   1  -6 -15   23.42    2.36
   1  -6 -14    4.65    1.07
  -1   6  14    4.25    1.15
   1  -6 -13    2.87    0.94
   1  -6 -13    3.01    0.85
   1  -6 -13    1.42    0.52
  -1   6  13    1.02    0.63
   1  -6 -12   71.46    3.79
   1  -6 -12   72.56    3.72
   1  -6 -12   69.08    3.37
  -1   6  12   67.73    3.93
   1  -6 -11   26.43    2.08
   1  -6 -11   25.75    2.15
   1  -6 -11   25.30    1.76
   1  -6 -11   25.35    1.97
  -1   6  11   24.85    2.24
   1  -6 -10   24.48    1.62
   1  -6 -10   26.56    2.17
   1  -6 -10   29.47    2.10
  -1   6  10   28.55    2.30
   1  -6  -9   20.46    1.38
   1  -6  -9   21.57    1.85
   1  -6  -9   20.05    1.64
  -1   6   9   22.01    1.98
   1  -6  -8  180.84    4.75
   1  -6  -8  196.87    5.57
   1  -6  -8  185.15    5.97
  -1   6   8  188.33    6.16
   1  -6  -7    2.36    0.41
   1  -6  -7    1.60    0.56
   1  -6  -7    2.37    0.50
  -1   6   7    2.62    0.69
   1  -6  -6    1.35    0.30
   1  -6  -6    1.45    0.44
   1  -6  -6    1.24    0.45
   1  -6  -6    0.89    0.40
  -1   6   6    1.68    0.53
   1  -6  -5  112.72    2.86
   1  -6  -5  111.32    4.13
   1  -6  -5  117.55    4.21
  -1   6   5  116.29    4.26
   1  -6  -4   80.36    2.13
   1  -6  -4   83.73    3.36
   1  -6  -4   83.30    3.35
  -1   6   4   84.66    3.45
   1  -6  -3   33.13    1.12
   1  -6  -3   33.34    1.97
  -1   6   3   34.06    2.05
   1  -6  -3   35.20    2.01
   1  -6  -2   62.12    2.72
  -1   6   2   63.65    2.10
  -1   6   2   68.07    2.86
   1  -6  -2   65.81    2.78
   1  -6  -1   89.72    2.26
   1  -6  -1   90.25    3.28
  -1   6   1   85.10    2.53
  -1   6   1   94.71    3.36
   1  -6  -1   90.76    3.26
   1  -6   0   72.65    2.08
   1  -6   0   72.30    2.81
  -1   6   0   75.28    2.86
   1  -6   0   73.49    2.82
   1  -6   1  197.60    4.44
  -1   6  -1  199.75    5.20
   1  -6   1  192.99    5.09
  -1   6  -1  197.38    5.17
   1  -6   2   58.28    2.06
  -1   6  -2   60.80    2.39
   1  -6   2   57.54    2.30
  -1   6  -2   61.71    2.39
   1  -6   3    2.61    0.46
  -1   6  -3    2.25    0.42
   1  -6   3    2.81    0.45
  -1   6  -3    3.57    0.56
   1  -6   4   69.86    2.61
  -1   6  -4   68.98    2.44
   1  -6   4   69.40    2.41
  -1   6  -4   68.23    2.42
   1  -6   5  255.48    6.38
  -1   6  -5  254.64    5.79
  -1   6  -5  268.90    6.57
  -1   6  -5  259.31    5.81
  -1   6  -6   22.06    1.62
  -1   6  -6   19.75    1.13
   1  -6   6   17.86    1.40
   1  -6   6   18.52    1.38
  -1   6  -6   20.19    1.15
  -1   6  -7    4.93    0.52
  -1   6  -7    5.06    0.55
  -1   6  -7    4.53    0.79
   1  -6   7    5.37    0.80
   1  -6   7    4.38    0.63
  -1   6  -8   69.28    3.22
   1  -6   8   66.13    3.11
   1  -6   8   65.49    2.61
  -1   6  -8   66.55    2.02
   1  -6   9   80.89    3.62
   1  -6   9   79.87    2.95
  -1   6  -9   82.62    2.12
   1  -6  10    9.52    1.02
   1  -6  10    9.53    1.27
   1  -6  11    0.57    0.34
   1  -6  11    1.09    0.61
   1  -6  12   86.53    4.25
   1  -6  13   66.56    3.83
   1  -6  14   23.08    2.29
   1  -6  15    0.31    0.51
   1  -5 -16   19.63    2.28
   1  -5 -15    0.74    0.70
   1  -5 -14   49.96    3.17
   1  -5 -14   56.75    3.54
   1  -5 -13   17.56    1.83
   1  -5 -13   15.59    1.69
   1  -5 -13   13.70    1.33
  -1   5  13   17.01    1.87
   1  -5 -12   17.79    1.77
   1  -5 -12   17.43    1.76
   1  -5 -12   17.32    1.50
  -1   5  12   18.04    1.90
   1  -5 -11    7.71    1.02
   1  -5 -11    7.40    1.10
   1  -5 -11    7.34    1.09
  -1   5  11    7.92    1.23
   1  -5 -11    5.93    0.87
   1  -5 -10   73.36    3.35
   1  -5 -10   65.19    3.23
   1  -5 -10   64.84    2.83
   1  -5 -10   63.16    2.96
  -1   5  10   63.61    3.35
   1  -5  -9   12.14    1.11
   1  -5  -9   15.59    1.52
   1  -5  -9   13.87    1.32
   1  -5  -9   13.68    1.38
  -1   5   9   13.66    1.54
   1  -5  -8   73.02    2.69
   1  -5  -8   78.45    3.42
   1  -5  -8   71.98    3.06
  -1   5   8   74.24    3.45
   1  -5  -8   79.14    3.41
   1  -5  -7   64.31    2.32
   1  -5  -7   69.55    2.80
   1  -5  -7   60.25    2.88
   1  -5  -7   66.54    3.02
  -1   5   7   65.42    3.07
   1  -5  -6   55.32    1.97
   1  -5  -6   55.42    2.67
   1  -5  -6   58.76    2.41
   1  -5  -6   59.35    2.75
  -1   5   6   58.91    2.80
   1  -5  -5   32.71    1.34
   1  -5  -5   32.81    1.65
   1  -5  -5   34.36    2.00
  -1   5   5   33.57    2.01
   1  -5  -5   34.07    1.99
   1  -5  -4    6.61    0.51
   1  -5  -4    6.71    0.86
   1  -5  -4    7.18    0.87
   1  -5  -4    7.44    0.72
  -1   5   4    7.57    0.94
   1  -5  -3  146.89    3.22
   1  -5  -3  147.35    4.38
   1  -5  -3  147.58    4.40
  -1   5   3  151.66    4.50
  -1   5   2   29.98    1.31
   1  -5  -2   33.21    1.77
  -1   5   2   34.42    1.82
   1  -5  -2   31.52    1.72
   1  -5  -1   10.53    0.94
  -1   5   1    9.08    0.67
  -1   5   1    9.91    0.93
   1  -5  -1    9.23    0.88
   1  -5   0   31.14    1.58
   1  -5   0   26.65    1.08
  -1   5   0   27.79    1.52
   1  -5   0   25.16    1.43
   1  -5   1   99.11    2.65
   1  -5   1   98.69    3.04
  -1   5  -1  101.00    3.08
   1  -5   1   99.39    3.04
  -1   5  -1  104.54    3.11
   1  -5   2    2.82    0.41
  -1   5  -2    3.53    0.52
   1  -5   2    3.11    0.45
  -1   5  -2    3.41    0.50
   1  -5   3    2.64    0.44
  -1   5  -3    3.24    0.44
  -1   5  -3    3.28    0.48
   1  -5   3    3.42    0.47
   1  -5   4   14.70    1.07
  -1   5  -4   13.61    1.05
  -1   5  -4   13.72    0.88
  -1   5  -4   14.13    0.89
   1  -5   4   12.27    0.81
   1  -5   5    8.80    0.90
  -1   5  -5    9.04    0.92
  -1   5  -5    8.66    0.67
  -1   5  -5    8.99    0.67
  -1   5  -6   42.17    1.48
   1  -5   6   42.15    2.11
  -1   5  -6   44.74    2.22
   1  -5   6   41.45    1.86
  -1   5  -6   43.49    1.49
  -1   5  -7   28.78    1.09
   1  -5   7   28.43    1.82
  -1   5  -7   31.86    1.95
   1  -5   7   26.97    1.45
  -1   5  -7   27.98    1.09
  -1   5  -8   12.63    1.39
   1  -5   8   11.39    1.30
   1  -5   8    8.01    0.80
  -1   5  -8   10.08    0.55
   1  -5   9    7.83    0.92
   1  -5   9    8.72    1.26
   1  -5  10   57.21    2.14
   1  -5  10   57.17    3.04
   1  -5  11    1.28    0.40
   1  -5  11    1.89    0.58
   1  -5  12    0.92    0.28
   1  -5  12    0.81    0.52
   1  -5  13   31.47    2.59
   1  -5  14   57.28    3.64
   1  -5  15   11.12    1.77
   1  -4 -16    3.34    0.81
   1  -4 -15   18.19    2.07
   1  -4 -15   17.20    1.73
  -1   4  14    6.32    1.05
   1  -4 -14    5.27    0.97
  -1   4  13    4.73    0.94
   1  -4 -13    3.89    0.79
   1  -4 -13    3.23    0.60
  -1   4  12    2.78    0.67
   1  -4 -12    4.22    0.83
   1  -4 -12    3.37    0.64
  -1   4  12    3.48    0.80
   1  -4 -11   23.66    1.83
  -1   4  11   21.80    1.67
   1  -4 -11   20.95    1.65
   1  -4 -11   21.18    1.53
  -1   4  11   22.20    1.92
   1  -4 -10    3.92    0.74
  -1   4  10    4.08    0.75
   1  -4 -10    3.87    0.75
   1  -4 -10    3.09    0.60
  -1   4  10    3.35    0.74
   1  -4 -10    3.15    0.60
   1  -4  -9   54.14    2.66
   1  -4  -9   48.39    2.29
  -1   4   9   51.54    2.37
   1  -4  -9   49.18    2.35
  -1   4   9   53.43    2.77
   1  -4  -9   49.83    2.58
   1  -4  -8   60.84    2.50
   1  -4  -8   61.70    2.78
   1  -4  -8   65.51    2.96
   1  -4  -8   62.68    2.86
  -1   4   8   61.06    3.01
   1  -4  -7  121.57    3.54
   1  -4  -7  124.96    3.96
   1  -4  -7  124.28    4.13
   1  -4  -7  122.94    4.10
  -1   4   7  122.79    4.20
   1  -4  -6    0.41    0.24
   1  -4  -6    0.49    0.27
   1  -4  -6   -0.27    0.31
   1  -4  -6    0.18    0.34
  -1   4   6    0.31    0.34
   1  -4  -5   75.35    2.28
   1  -4  -5   82.47    2.71
   1  -4  -5   76.33    2.91
  -1   4   5   77.34    2.97
   1  -4  -5   76.35    2.91
   1  -4  -4   43.07    1.48
   1  -4  -4   43.55    1.76
   1  -4  -4   43.80    2.04
  -1   4   4   46.01    2.12
   1  -4  -4   43.06    2.02
   1  -4  -3  172.44    3.72
   1  -4  -3  174.94    4.65
   1  -4  -3  183.13    4.20
   1  -4  -3  175.97    4.65
  -1   4   3  179.05    4.75
  -1   4   2   30.52    1.26
   1  -4  -2   30.96    1.57
   1  -4  -2   30.77    1.55
  -1   4   2   33.26    1.64
   1  -4  -1   15.43    1.05
   1  -4  -1   15.73    1.04
  -1   4   1   16.20    1.08
   1  -4   0  259.09    5.71
   1  -4   0  250.09    5.67
  -1   4   0  266.93    5.77
   1  -4   1   59.91    1.83
   1  -4   1   61.52    2.04
  -1   4  -1   61.25    2.04
   1  -4   1   59.67    2.01
  -1   4  -1   62.85    2.07
   1  -4   2  119.42    3.10
  -1   4  -2  124.23    3.11
   1  -4   2  120.03    3.05
  -1   4  -2  123.23    3.10
   1  -4   3   13.72    0.93
  -1   4  -3   12.93    0.76
  -1   4  -3   14.11    0.95
   1  -4   3   12.21    0.73
  -1   4  -3   13.05    0.77
  -1   4  -4   35.73    1.69
   1  -4   4   33.79    1.63
  -1   4  -4   37.66    1.31
  -1   4  -4   37.98    1.31
   1  -4   5   11.81    1.02
  -1   4  -5   12.79    1.04
  -1   4  -5   11.16    0.61
  -1   4  -5   11.60    0.62
  -1   4  -6   10.82    0.54
  -1   4  -6   11.64    1.08
   1  -4   6   11.24    1.04
   1  -4   6   10.70    0.79
  -1   4  -6   10.84    0.54
  -1   4  -7    0.19    0.11
   1  -4   7    0.25    0.17
   1  -4   7    0.04    0.27
  -1   4  -7    0.02    0.32
   1  -4   8    1.36    0.29
  -1   4  -8    2.08    0.57
   1  -4   8    1.92    0.61
   1  -4   9    0.38    0.34
  -1   4  -9    0.90    0.44
   1  -4   9    0.69    0.53
   1  -4  10   -0.07    0.18
   1  -4  10    0.22    0.39
   1  -4  11   21.41    1.03
   1  -4  11   21.36    1.88
   1  -4  12   17.37    0.77
   1  -4  12   17.31    1.79
   1  -4  13   -0.37    0.60
   1  -4  14    1.32    0.80
   1  -4  15   43.27    3.25
   1  -4  16    2.48    0.84
  -1   3  17   15.78    1.98
  -1   3  16   15.48    1.82
   1  -3 -15    0.50    0.39
  -1   3  15    0.95    0.53
   1  -3 -14   30.93    2.17
  -1   3  14   27.65    2.27
   1  -3 -13   88.33    3.75
  -1   3  13   85.00    3.95
   1  -3 -13   92.08    3.09
   1  -3 -12   48.75    2.64
  -1   3  12   51.31    2.80
   1  -3 -12   50.80    2.19
   1  -3 -12   45.01    2.55
  -1   3  11    8.19    1.05
   1  -3 -11    8.36    1.04
   1  -3 -11    6.79    0.95
   1  -3 -11    7.71    1.00
  -1   3  11    7.06    1.04
   1  -3 -11    7.58    0.84
   1  -3 -10   50.44    2.48
  -1   3  10   47.81    2.46
   1  -3 -10   49.58    2.49
   1  -3 -10   49.41    2.16
   1  -3 -10   50.83    2.51
  -1   3  10   48.59    2.63
   1  -3  -9  245.31    6.56
  -1   3   9  238.71    6.37
   1  -3  -9  237.59    6.35
   1  -3  -9  291.40    6.43
   1  -3  -9  247.27    6.56
  -1   3   9  256.98    6.98
   1  -3  -8    3.94    0.65
  -1   3   8    3.42    0.65
   1  -3  -8    4.64    0.72
   1  -3  -8    3.30    0.62
  -1   3   8    3.86    0.77
   1  -3  -8    2.69    0.50
   1  -3  -7    5.01    0.65
  -1   3   7    4.83    0.62
   1  -3  -7    4.92    0.70
   1  -3  -7    4.25    0.64
  -1   3   7    4.63    0.69
  -1   3   6  283.19    6.15
   1  -3  -6  276.32    6.10
   1  -3  -6  275.22    6.57
   1  -3  -6  278.35    6.60
  -1   3   6  267.97    6.64
   1  -3  -5   22.44    1.13
   1  -3  -5   24.33    1.34
   1  -3  -5   22.20    1.38
   1  -3  -5   23.33    1.39
  -1   3   5   23.80    1.45
   1  -3  -4  164.35    3.77
   1  -3  -4  173.54    4.16
   1  -3  -4  165.76    4.34
  -1   3   4  172.73    4.45
   1  -3  -4  164.73    4.33
   1  -3  -3    0.00    0.12
   1  -3  -3    0.19    0.21
   1  -3  -3    0.28    0.21
   1  -3  -3   -0.06    0.22
  -1   3   3    0.43    0.24
   1  -3  -2  273.40    5.97
  -1   3   2  277.19    5.55
   1  -3  -2  268.73    5.93
  -1   3   2  283.39    6.04
   1  -3  -1  111.21    2.99
   1  -3  -1  107.48    2.93
  -1   3   1  117.51    3.06
   1  -3   0  443.62    8.50
   1  -3   0  436.17    8.43
  -1   3   0  457.98    8.55
   1  -3   1   63.84    1.86
   1  -3   1   62.61    1.82
  -1   3  -1   65.16    1.88
   1  -3   1   64.26    1.85
   1  -3   2  254.55    5.25
   1  -3   2  249.35    4.94
  -1   3  -2  253.48    4.96
   1  -3   2  246.28    4.92
   1  -3   3   19.41    1.07
  -1   3  -3   20.15    1.10
  -1   3  -3   19.25    0.78
  -1   3  -3   19.94    0.78
   1  -3   3   18.40    0.74
   1  -3   4    9.25    0.79
  -1   3  -4    8.67    0.78
  -1   3  -4    8.60    0.44
  -1   3  -4    8.72    0.45
   1  -3   5   10.55    0.93
  -1   3  -5   10.70    0.94
   1  -3   5   10.39    0.66
  -1   3  -5   10.58    0.42
   1  -3   6  481.96   10.15
  -1   3  -6  502.16   10.30
   1  -3   6  478.69    8.96
   1  -3   7   45.28    2.21
  -1   3  -7   48.07    2.30
   1  -3   7   44.47    1.46
   1  -3   8   13.34    1.29
  -1   3  -8   12.75    1.29
   1  -3   8   11.87    0.67
  -1   3  -9  133.50    4.63
   1  -3   9  134.19    4.59
   1  -3   9  131.42    2.96
   1  -3  10    1.67    0.55
   1  -3  10    1.68    0.22
   1  -3  11    1.27    0.50
   1  -3  12    1.91    0.63
   1  -3  13    2.01    0.73
   1  -3  14   -0.26    0.44
   1  -3  15    2.40    0.80
   1  -3  16    1.65    0.78
  -1   2  17    8.02    1.50
  -1   2  16   -0.16    0.70
   1  -2 -15    1.62    0.53
  -1   2  15    0.80    0.53
   1  -2 -14    6.97    0.99
  -1   2  14    6.21    1.11
   1  -2 -13    5.55    0.85
   1  -2 -13    4.73    0.78
  -1   2  13    5.40    0.97
   1  -2 -13    7.17    0.69
   1  -2 -12   35.20    2.09
  -1   2  12   34.95    2.32
   1  -2 -12   35.15    1.63
   1  -2 -12   33.20    2.02
   1  -2 -11   21.94    1.61
  -1   2  11   26.56    1.90
   1  -2 -11   25.42    1.88
   1  -2 -11   25.18    1.38
   1  -2 -11   22.58    1.60
   1  -2 -10    4.14    0.70
  -1   2  10    2.82    0.62
   1  -2 -10    4.74    0.71
   1  -2 -10    3.80    0.60
   1  -2 -10    4.07    0.57
  -1   2   9    0.46    0.35
   1  -2  -9    0.72    0.30
   1  -2  -9    0.69    0.39
   1  -2  -9    0.88    0.35
  -1   2   9    0.32    0.34
   1  -2  -9    0.92    0.32
   1  -2  -8  227.64    5.70
   1  -2  -8  233.69    5.83
  -1   2   8  229.03    5.80
   1  -2  -8  222.06    5.24
   1  -2  -8  225.96    5.71
  -1   2   8  219.89    5.86
  -1   2   7  245.66    5.87
   1  -2  -7  248.01    5.89
   1  -2  -7  246.58    5.59
  -1   2   7  239.50    6.05
   1  -2  -7  244.04    5.90
  -1   2   6  180.39    4.38
   1  -2  -6  173.83    4.32
   1  -2  -6  160.14    4.13
   1  -2  -6  168.90    4.45
  -1   2   6  172.63    4.57
  -1   2   5  195.98    4.46
   1  -2  -5  191.18    4.42
   1  -2  -5  177.66    4.38
  -1   2   5  191.91    4.73
   1  -2  -5  187.71    4.64
  -1   2   4  408.58    7.73
   1  -2  -4  398.97    7.69
   1  -2  -4  389.04    8.03
  -1   2   4  391.82    8.08
   1  -2  -3   60.85    1.73
   1  -2  -3   60.52    1.89
  -1   2   3   58.56    2.00
   1  -2  -3   59.44    1.99
   1  -2  -2  179.81    3.72
  -1   2   2  165.55    3.64
  -1   2   2  167.04    3.88
   1  -2  -2  163.61    3.84
  -1   2   1  799.20   13.93
   1  -2  -1  804.58   14.15
  -1   2   1  799.50   14.16
   1  -2   0 2552.84   42.88
  -1   2   0 2591.33   42.88
   1  -2   1   16.49    0.68
   1  -2   1   16.22    0.67
  -1   2  -1   16.93    0.69
   1  -2   2   98.04    2.48
   1  -2   2   92.60    1.99
  -1   2  -2   96.28    2.01
   1  -2   2   94.56    1.99
   1  -2   3 1052.73   18.53
  -1   2  -3 1046.31   18.53
  -1   2  -4  454.21    9.06
   1  -2   4  459.36    9.04
   1  -2   5    7.85    0.45
  -1   2  -5    8.26    0.79
   1  -2   5    9.08    0.83
   1  -2   6  133.01    2.73
   1  -2   6  137.86    3.97
  -1   2  -6  135.11    3.97
   1  -2   7  420.05    7.42
  -1   2  -7  432.51    9.35
   1  -2   7  421.75    9.22
   1  -2   8   34.23    2.07
  -1   2  -8   33.46    2.03
  -1   2  -9   17.04    1.47
   1  -2   9   14.11    1.28
   1  -2  10  208.97    6.16
   1  -2  11    2.02    0.60
   1  -2  12   17.66    1.74
   1  -2  13    4.06    0.94
   1  -2  14   24.80    2.24
   1  -2  15    6.42    1.29
   1  -2  16    0.13    0.53
  -1   1  17   -0.08    0.67
  -1   1  16   18.31    2.13
   1  -1 -15    4.00    0.70
  -1   1  15    4.57    1.05
   1  -1 -14   13.49    1.24
  -1   1  14   12.13    1.56
   1  -1 -13    0.15    0.37
   1  -1 -13    0.28    0.27
  -1   1  13    0.44    0.39
   1  -1 -13    0.47    0.29
   1  -1 -12   14.85    1.26
  -1   1  12   18.04    1.66
   1  -1 -12   16.76    0.99
   1  -1 -12   15.29    1.27
   1  -1 -11    0.62    0.30
   1  -1 -11    0.53    0.28
  -1   1  11    1.00    0.56
   1  -1 -11    0.68    0.27
   1  -1 -10    1.24    0.48
  -1   1  10    1.71    0.47
   1  -1 -10    0.63    0.33
   1  -1 -10    1.11    0.30
   1  -1  -9    0.98    0.45
  -1   1   9    0.81    0.35
   1  -1  -9    1.06    0.36
   1  -1  -9    1.82    0.45
  -1   1   8    9.46    1.00
   1  -1  -8   10.62    1.06
   1  -1  -8    8.90    0.70
   1  -1  -8    8.98    0.86
   1  -1  -7   17.46    1.21
  -1   1   7   18.90    1.25
   1  -1  -7   17.64    0.97
   1  -1  -7   16.76    1.11
   1  -1  -6   15.46    1.04
  -1   1   6   15.80    1.08
   1  -1  -6   15.93    0.89
   1  -1  -6   15.57    1.02
  -1   1   5  134.15    3.45
   1  -1  -5  134.55    3.44
   1  -1  -5  126.16    3.11
  -1   1   5  126.01    3.38
   1  -1  -5  124.25    3.31
  -1   1   4   17.11    0.93
   1  -1  -4   17.05    0.92
   1  -1  -4   16.19    0.86
  -1   1   4   15.52    0.94
   1  -1  -4   16.01    0.91
   1  -1  -3   74.60    2.02
  -1   1   3   78.64    2.06
   1  -1  -3   71.73    2.00
   1  -1  -3   70.25    2.06
  -1   1   3   76.70    2.17
   1  -1  -2   85.49    2.10
   1  -1  -2   79.50    1.98
   1  -1  -2   79.30    2.05
  -1   1   2   82.53    2.16
   1  -1  -2   80.31    2.10
  -1   1   1  182.41    3.57
   1  -1  -1  173.99    3.61
  -1   1   1  177.05    3.65
  -1   1   0   34.27    1.00
   1  -1   0   34.24    1.01
   1  -1   1  595.75   10.12
   1  -1   2    1.51    0.25
  -1   1  -2    2.09    0.31
  -1   1  -3    5.85    0.55
   1  -1   3    6.40    0.56
  -1   1  -4  306.76    6.43
   1  -1   4  308.15    6.41
  -1   1  -5  990.19   18.15
   1  -1   5 1007.87   18.17
  -1   1  -6   52.15    2.16
   1  -1   6   53.61    2.15
  -1   1  -6   51.10    1.24
  -1   1  -7    3.10    0.59
   1  -1   7    3.84    0.61
  -1   1  -7    3.15    0.27
  -1   1  -8  300.07    7.30
   1  -1   8  305.42    7.27
  -1   1  -8  289.91    5.51
  -1   1  -9  226.01    6.17
   1  -1   9  217.92    6.03
  -1   1  -9  213.86    4.33
  -1   1 -10   14.47    1.43
   1  -1  10   11.73    1.24
  -1   1 -10   11.77    0.64
   1  -1  11   27.17    2.00
  -1   1 -11   26.58    1.08
   1  -1  12  254.04    7.46
  -1   1 -12  247.97    5.10
   1  -1  13   52.21    3.12
  -1   1 -13   52.78    1.65
   1  -1  14   12.29    1.59
   1  -1  15   13.70    1.73
   1  -1  16   45.28    3.33
   1  -1  17    1.63    0.85
  -1   0  17   13.35    1.83
  -1   0  16   27.61    2.58
  -1   0  15    3.94    1.04
   1   0 -15    3.19    0.56
  -1   0  14   19.45    1.92
   1   0 -14   20.08    1.44
   1   0 -13   24.22    1.53
  -1   0  13   24.74    2.09
   1   0 -13   24.82    1.12
   1   0 -13   24.52    1.54
   1   0 -12   46.51    2.16
  -1   0  12   47.35    2.78
   1   0 -12   47.30    1.68
   1   0 -12   44.19    2.08
  -1   0  11   36.78    2.34
   1   0 -11   38.04    1.47
   1   0 -11   34.46    1.78
   1   0 -10   10.50    1.16
  -1   0  10    9.49    1.09
   1   0 -10    8.88    0.67
   1   0 -10    8.88    0.83
  -1   0   9   66.77    2.88
   1   0  -9   64.46    2.85
   1   0  -9   66.95    2.05
   1   0  -9   63.82    2.36
  -1   0   8    0.29    0.29
   1   0  -8    0.19    0.36
   1   0  -8    0.18    0.20
   1   0  -8    0.31    0.23
  -1   0   7   26.25    1.53
   1   0  -7   28.58    1.59
   1   0  -7   27.47    1.15
  -1   0   7   26.23    1.20
   1   0  -7   25.26    1.28
  -1   0   6    1.54    0.38
   1   0  -6    1.49    0.37
   1   0  -6    1.46    0.26
  -1   0   6    1.79    0.31
   1   0  -6    1.48    0.32
   1   0  -5    0.23    0.19
  -1   0   5    0.16    0.24
  -1   0   5   -0.02    0.15
   1   0  -5    0.29    0.20
   1   0  -5    0.06    0.12
   1   0  -4    3.56    0.45
  -1   0   4    4.02    0.46
  -1   0   4    3.94    0.39
   1   0  -4    3.84    0.42
   1   0  -4    3.48    0.34
  -1   0   3    4.77    0.45
   1   0  -3    5.18    0.48
  -1   0   3    4.83    0.39
   1   0  -3    4.02    0.35
  -1   0   2   12.39    0.58
   1   0  -2   11.83    0.56
   1   0  -2   12.21    0.62
  -1   0   2   12.60    0.62
  -1   0   1  157.92    3.08
   1   0  -1  159.17    3.07
  -1   0   1  153.98    3.09
   1   0  -1  151.71    3.07
   1   0   0    7.30    0.37
   1   0   1   15.48    0.50
  -1   0  -1   14.76    0.49
   1   0   2  155.25    3.25
  -1   0  -2  152.72    3.26
   1   0   2  152.82    2.91
   1   0   3    3.83    0.40
  -1   0  -3    3.29    0.37
   1   0   3    3.27    0.27
   1   0   3    3.77    0.28
  -1   0  -3    3.59    0.26
   1   0   4  119.88    3.01
  -1   0  -4  114.96    3.00
   1   0   4  114.06    2.47
   1   0   4  111.83    2.47
  -1   0  -4  114.29    2.44
   1   0   5    6.60    0.64
  -1   0  -5    6.27    0.63
  -1   0  -5    7.11    0.46
   1   0   5    7.18    0.49
  -1   0  -6  429.85    8.78
   1   0   6  436.16    8.75
   1   0   6  405.83    7.83
  -1   0  -6  420.07    7.75
   1   0   7    2.00    0.48
  -1   0  -7    1.78    0.48
  -1   0  -7    1.53    0.27
   1   0   7    1.22    0.25
   1   0   8  257.27    6.33
  -1   0  -8  258.92    6.42
  -1   0  -8  247.39    5.17
   1   0   8  239.26    5.33
  -1   0  -9   58.48    2.76
   1   0   9   56.84    2.66
  -1   0  -9   57.32    1.90
  -1   0 -10   73.57    3.24
   1   0  10   73.61    3.20
  -1   0 -10   71.29    2.24
   1   0  11    1.62    0.58
  -1   0 -11    1.10    0.21
   1   0  12  181.69    5.89
  -1   0 -12  172.65    4.29
   1   0  13   89.03    4.09
  -1   0 -13   89.48    2.77
   1   0  14  103.16    4.67
   1   0  15   46.87    3.21
   1   0  16    0.61    0.67
   1   0  17   19.89    2.21
  -1  -1  17    6.06    1.20
  -1  -1  16    3.40    0.97
  -1  -1  15  108.43    5.05
   1   1 -14    0.21    0.26
  -1  -1  14   -0.20    0.50
   1   1 -13    3.20    0.51
   1   1 -13    3.44    0.52
   1   1 -13    3.61    0.42
  -1  -1  13    2.44    0.69
   1   1 -12    6.90    0.73
  -1  -1  12    6.65    1.09
   1   1 -12    7.34    0.62
  -1  -1  11  192.06    6.02
   1   1 -11  192.03    4.33
   1   1 -11  184.18    4.77
   1   1 -10   16.73    1.49
  -1  -1  10   17.04    1.49
  -1  -1  10   15.41    0.97
   1   1 -10   15.67    0.90
   1   1 -10   15.55    1.04
   1   1  -9   73.14    3.06
  -1  -1   9   68.96    2.99
   1   1  -9   70.77    2.13
  -1  -1   9   68.98    2.24
   1   1  -9   63.63    2.27
   1   1  -8  155.34    4.54
  -1  -1   8  157.82    4.56
  -1  -1   8  133.29    3.41
   1   1  -8  136.48    3.33
   1   1  -8  128.67    3.54
  -1  -1   7  368.91    8.08
   1   1  -7  356.40    8.02
  -1  -1   7  357.98    7.10
   1   1  -7  359.39    6.99
   1   1  -7  346.71    7.26
   1   1  -6    4.23    0.59
  -1  -1   6    4.56    0.62
   1   1  -6    4.47    0.44
  -1  -1   6    4.32    0.44
  -1  -1   5    1.96    0.41
   1   1  -5    2.59    0.44
   1   1  -5    2.69    0.34
  -1  -1   5    2.65    0.33
  -1  -1   4  143.08    3.16
   1   1  -4  137.70    3.13
  -1  -1   4  140.14    3.50
   1   1  -4  137.00    3.46
   1   1  -3   41.87    1.34
  -1  -1   3   42.87    1.34
  -1  -1   3   43.15    1.49
   1   1  -3   43.49    1.48
   1   1  -2   43.93    1.32
  -1  -1   2   43.88    1.31
   1   1  -2   42.55    1.33
  -1  -1   2   45.61    1.35
   1   1  -1    8.30    0.40
   1   1  -1    8.93    0.50
  -1  -1   1    8.19    0.49
   1   1  -1    7.89    0.43
   1   1   0    4.62    0.36
  -1  -1   0    4.20    0.34
   1   1   1    3.56    0.34
  -1  -1  -1    3.44    0.29
   1   1   1    4.09    0.31
   1   1   2    5.93    0.39
  -1  -1  -2    6.11    0.37
   1   1   2    5.82    0.45
  -1  -1  -2    6.04    0.44
   1   1   3   95.63    2.34
  -1  -1  -3   94.04    2.33
   1   1   3   95.02    2.30
  -1  -1  -3   93.60    2.06
  -1  -1  -3   91.79    2.30
   1   1   3   93.03    2.34
   1   1   4  122.06    2.99
  -1  -1  -4  118.17    2.99
   1   1   4  120.10    2.90
  -1  -1  -4  118.01    2.85
   1   1   4  120.83    2.92
   1   1   5   12.16    0.84
  -1  -1  -5   12.26    0.85
  -1  -1  -5   13.66    0.79
   1   1   5   12.86    0.80
  -1  -1  -6   90.52    2.84
   1   1   6   88.99    2.79
  -1  -1  -6   90.32    2.52
   1   1   6   86.38    2.57
   1   1   7  117.15    3.52
  -1  -1  -7  114.18    3.54
  -1  -1  -7  115.91    2.51
  -1  -1  -7  114.45    3.08
   1   1   7  110.12    3.13
  -1  -1  -8   38.85    2.01
   1   1   8   38.42    1.97
  -1  -1  -8   39.56    1.12
  -1  -1  -8   40.48    1.68
   1   1   8   35.77    1.67
   1   1   9  138.69    4.35
  -1  -1  -9  139.13    4.43
  -1  -1  -9  133.02    2.65
  -1  -1  -9  140.70    2.69
   1   1   9  130.52    3.80
  -1  -1  -9  133.06    3.63
  -1  -1 -10    5.41    0.83
   1   1  10    5.10    0.85
  -1  -1 -10    4.83    0.60
   1   1  10    5.05    0.69
   1   1  11   58.46    2.87
   1   1  11   51.32    2.31
  -1  -1 -11   54.25    2.18
   1   1  12    0.48    0.38
  -1  -1 -12    0.72    0.34
   1   1  13   16.41    1.66
  -1  -1 -13   17.25    1.24
   1   1  14   11.17    1.42
   1   1  15   49.09    3.21
   1   1  16    7.23    1.30
   1   1  17   10.96    1.70
  -1  -2  16    0.53    0.62
  -1  -2  15   57.80    3.66
  -1  -2  14  109.41    4.93
   1   2 -14  107.63    3.20
  -1  -2  13  150.39    5.66
   1   2 -13  144.31    3.93
  -1  -2  12  131.71    5.02
  -1  -2  12  124.49    3.43
   1   2 -12  122.14    3.53
  -1  -2  11    6.05    1.01
   1   2 -11    6.46    0.61
   1   2 -11    5.92    0.63
  -1  -2  11    6.70    0.67
  -1  -2  10  139.94    4.78
   1   2 -10  138.95    4.80
  -1  -2  10  136.67    3.62
   1   2 -10  137.68    3.50
   1   2 -10  130.56    3.59
  -1  -2   9  172.15    5.47
   1   2  -9  171.06    5.47
   1   2  -9  170.84    4.29
   1   2  -9  180.94    4.57
   1   2  -8  140.70    4.41
  -1  -2   8  136.03    4.31
  -1  -2   8  130.33    3.40
   1   2  -8  136.69    3.42
  -1  -2   7    6.67    0.81
   1   2  -7    6.94    0.78
  -1  -2   7    6.69    0.61
   1   2  -7    6.62    0.60
   1   2  -6  694.66   13.74
  -1  -2   6  721.18   13.79
  -1  -2   6  718.95   13.02
   1   2  -6  714.97   12.97
   1   2  -5   30.76    1.51
  -1  -2   5   31.43    1.53
  -1  -2   5   31.89    1.30
   1   2  -5   31.97    1.30
   1   2  -4   22.15    1.15
  -1  -2   4   23.59    1.19
  -1  -2   4   22.77    1.05
   1   2  -4   22.55    1.06
  -1  -2   3   29.98    1.24
   1   2  -3   28.64    1.20
  -1  -2   3   30.73    1.22
   1   2  -3   30.61    1.22
  -1  -2   2  299.57    5.73
   1   2  -2  290.75    5.70
  -1  -2   2  292.90    5.89
   1   2  -2  305.50    5.92
   1   2  -1    1.44    0.35
   1   2  -1    2.93    0.66
  -1  -2   1    5.83    0.74
   1   2   0   74.00    1.55
  -1  -2   0   76.58    2.07
   1   2   0   76.50    2.07
  -1  -2  -1  649.01   11.72
   1   2   1  662.91   11.83
  -1  -2  -1  655.09   11.83
   1   2   2  102.46    2.14
   1   2   2  106.53    2.75
  -1  -2  -2  105.44    2.72
   1   2   2  106.15    2.74
  -1  -2  -3    6.47    0.44
   1   2   3    6.35    0.43
   1   2   3    6.66    0.59
   1   2   3    7.29    0.62
  -1  -2  -3    6.62    0.59
   1   2   4   80.66    2.14
  -1  -2  -4   77.16    2.16
   1   2   4   77.21    2.41
  -1  -2  -4   77.85    2.38
   1   2   4   79.97    2.43
   1   2   5  132.20    3.28
  -1  -2  -5  127.57    3.29
   1   2   5  127.80    3.47
   1   2   5  131.20    3.51
  -1  -2  -5  128.49    3.43
  -1  -2  -6   74.43    2.47
   1   2   6   75.83    2.43
   1   2   6   74.87    2.55
  -1  -2  -6   75.12    2.48
   1   2   7  165.22    4.35
  -1  -2  -7  162.54    4.37
  -1  -2  -7  164.45    4.27
   1   2   7  164.05    4.41
  -1  -2  -8   55.12    2.37
   1   2   8   53.94    2.30
  -1  -2  -8   52.66    2.15
   1   2   8   52.18    2.25
  -1  -2  -9    2.87    0.57
   1   2   9    3.50    0.64
  -1  -2  -9    3.00    0.51
   1   2   9    3.93    0.63
  -1  -2  -9    3.39    0.42
  -1  -2 -10   39.96    2.24
   1   2  10   40.54    2.21
  -1  -2 -10   38.08    1.31
  -1  -2 -10   38.65    1.38
  -1  -2 -10   38.99    1.93
   1   2  10   36.69    1.99
  -1  -2 -11   97.80    3.93
   1   2  11  100.04    3.87
  -1  -2 -11  101.92    2.42
  -1  -2 -11  102.26    2.37
  -1  -2 -11   94.59    3.35
   1   2  11   93.64    3.57
  -1  -2 -12    2.54    0.52
   1   2  12    2.61    0.66
  -1  -2 -12    2.89    0.23
  -1  -2 -12    2.31    0.20
   1   2  12    2.56    0.67
   1   2  13    5.05    0.92
  -1  -2 -13    4.75    0.73
   1   2  14   32.73    2.46
   1   2  15   14.55    1.69
   1   2  16   10.58    1.61
   1   2  17    6.78    1.35
  -1  -3  16   40.76    3.23
  -1  -3  15   15.04    1.84
  -1  -3  14   11.78    1.57
  -1  -3  13   34.75    2.58
  -1  -3  13   34.01    1.62
   1   3 -13   31.01    1.47
  -1  -3  12  233.96    7.27
  -1  -3  12  239.32    5.56
   1   3 -12  222.44    5.28
  -1  -3  11   17.90    1.68
  -1  -3  11   17.48    1.12
   1   3 -11   15.19    1.01
  -1  -3  10    4.05    0.80
  -1  -3  10    3.10    0.48
   1   3 -10    2.65    0.46
   1   3  -9  135.40    4.66
  -1  -3   9  135.21    4.62
  -1  -3   9  147.71    3.84
   1   3  -9  133.71    3.67
   1   3  -8  269.83    6.79
  -1  -3   8  250.06    6.57
   1   3  -8  252.21    5.67
  -1  -3   8  237.16    5.61
   1   3  -7    9.41    0.95
  -1  -3   7   11.77    1.09
  -1  -3   7   12.72    0.91
   1   3  -7   12.24    0.89
   1   3  -6    1.23    0.37
  -1  -3   6    0.96    0.39
  -1  -3   6    0.95    0.27
   1   3  -6    0.53    0.26
   1   3  -5  549.31   10.92
  -1  -3   5  555.09   10.96
  -1  -3   5  557.83   10.66
   1   3  -5  559.59   10.65
   1   3  -4  157.56    3.94
  -1  -3   4  159.03    3.97
  -1  -3   4  157.78    3.90
   1   3  -4  159.82    3.92
  -1  -3   3   54.29    1.80
   1   3  -3   51.31    1.75
  -1  -3   3   52.53    1.88
   1   3  -2   10.29    0.63
  -1  -3   2   10.62    0.64
  -1  -3   2   11.28    0.81
   1   3  -2   10.69    0.73
   1   3  -1  446.67    8.12
  -1  -3   1  460.17    8.14
  -1  -3   1  463.97    8.88
   1   3  -1  464.01    8.79
   1   3   0   52.08    1.18
  -1  -3   0   55.25    1.90
   1   3   0   55.05    1.89
   1   3   1  204.35    4.68
  -1  -3  -1  203.02    4.68
   1   3   2   12.15    0.89
  -1  -3  -2   12.07    0.87
   1   3   2   12.55    0.91
   1   3   3  260.27    4.87
   1   3   3  269.20    5.98
  -1  -3  -3  261.56    5.89
   1   3   3  274.62    6.00
   1   3   4   44.58    1.38
  -1  -3  -4   43.60    1.42
   1   3   4   43.62    1.88
  -1  -3  -4   43.54    1.87
   1   3   4   46.37    1.94
  -1  -3  -5    3.52    0.43
   1   3   5    3.77    0.41
   1   3   5    3.02    0.51
   1   3   5    4.16    0.62
  -1  -3  -5    3.08    0.51
   1   3   6  239.61    5.27
  -1  -3  -6  233.69    5.31
  -1  -3  -6  237.90    5.78
   1   3   6  234.33    5.85
  -1  -3  -7  250.34    5.91
   1   3   7  260.36    5.88
   1   3   7  258.60    6.40
  -1  -3  -7  258.94    6.25
  -1  -3  -8   45.04    2.08
   1   3   8   47.44    2.08
   1   3   8   44.12    2.25
  -1  -3  -8   46.11    2.17
  -1  -3  -9   41.02    2.10
   1   3   9   41.56    2.07
  -1  -3  -9   40.80    2.08
   1   3   9   38.87    2.13
   1   3  10   40.85    2.17
  -1  -3 -10   38.68    2.18
  -1  -3 -10   39.32    1.73
  -1  -3 -10   41.13    2.15
   1   3  10   41.31    2.28
   1   3  11   35.06    2.15
  -1  -3 -11   32.14    2.10
  -1  -3 -11   36.29    1.49
  -1  -3 -11   36.46    1.61
  -1  -3 -11   34.48    2.03
   1   3  11   35.22    2.18
   1   3  12   65.78    3.18
  -1  -3 -12   67.18    2.08
  -1  -3 -12   71.10    2.23
  -1  -3 -12   65.87    2.96
   1   3  12   63.41    3.16
   1   3  13   22.45    1.91
  -1  -3 -13   23.64    1.74
   1   3  13   19.85    1.76
   1   3  14    0.56    0.61
   1   3  14    0.58    0.47
   1   3  15   16.93    1.82
   1   3  16   29.75    2.51
   1   3  17    0.46    0.50
  -1  -4  16   -0.75    0.74
  -1  -4  15    0.87    0.58
  -1  -4  14    4.69    1.17
  -1  -4  13    0.20    0.43
  -1  -4  12    6.32    1.08
   1   4 -12    6.11    0.64
  -1  -4  12    7.09    0.79
  -1  -4  11    1.85    0.56
  -1  -4  11    1.26    0.35
   1   4 -11    1.47    0.33
  -1  -4  10  123.10    4.60
  -1  -4  10  126.06    3.74
   1   4  -9   32.52    2.09
  -1  -4   9   31.97    2.08
  -1  -4   9   33.57    1.70
   1   4  -8    2.60    0.80
  -1  -4   8    1.78    0.69
  -1  -4   8    0.16    0.26
   1   4  -7  177.31    5.06
  -1  -4   7  173.93    5.01
  -1  -4   7  172.99    4.54
   1   4  -6   40.51    1.99
  -1  -4   6   41.15    2.00
  -1  -4   6   42.50    1.88
   1   4  -5   56.97    2.24
  -1  -4   5   55.46    2.21
  -1  -4   5   55.04    2.17
   1   4  -4   86.99    2.71
  -1  -4   4   85.91    2.69
  -1  -4   4   88.64    2.84
   1   4  -4   86.13    2.58
  -1  -4   3  418.23    8.16
   1   4  -3  413.06    8.16
  -1  -4   3  418.22    8.64
   1   4  -3  417.75    8.32
  -1  -4   2   63.01    1.86
   1   4  -2   63.73    1.87
  -1  -4   2   62.67    2.30
   1   4  -2   65.58    2.21
  -1  -4   1   99.59    2.27
   1   4  -1   91.55    2.23
  -1  -4   1  104.56    3.12
   1   4  -1   99.48    2.98
   1   4   0  827.87   14.15
  -1  -4   0  861.54   15.66
  -1  -4   0  858.94   15.62
   1   4   0  866.58   15.61
   1   4   1  477.70    9.72
  -1  -4  -1  474.01    9.68
   1   4   1  487.06    9.72
   1   4   2   72.88    2.62
  -1  -4  -2   74.15    1.69
  -1  -4  -2   68.81    2.54
   1   4   2   70.38    2.57
   1   4   3    2.46    0.18
   1   4   3    3.32    0.58
   1   4   3    2.57    0.52
  -1  -4  -3    2.83    0.49
   1   4   4  235.46    4.54
   1   4   4  236.30    5.93
  -1  -4  -4  236.93    5.88
   1   4   4  239.25    5.92
  -1  -4  -5  169.71    3.81
   1   4   5  171.83    3.74
   1   4   5  170.02    4.87
  -1  -4  -5  174.44    4.82
   1   4   5  169.91    4.82
   1   4   6   90.68    2.53
  -1  -4  -6   84.05    2.52
   1   4   6   85.39    3.25
   1   4   6   89.69    3.31
  -1  -4  -6   85.72    3.19
   1   4   7  121.45    3.32
  -1  -4  -7  114.33    3.32
   1   4   7  117.12    4.03
  -1  -4  -7  114.50    3.89
  -1  -4  -8  151.18    4.27
   1   4   8  157.58    4.23
   1   4   8  153.32    4.92
  -1  -4  -8  159.50    4.82
   1   4   9    0.17    0.28
  -1  -4  -9    0.35    0.27
  -1  -4  -9    0.59    0.38
   1   4   9    0.11    0.31
  -1  -4 -10    6.08    0.83
   1   4  10    7.51    0.90
  -1  -4 -10    6.94    0.98
   1   4  10    5.71    0.87
  -1  -4 -11   12.75    1.25
   1   4  11   11.69    1.18
  -1  -4 -11   11.19    1.03
  -1  -4 -11   12.18    0.97
   1   4  11   12.30    1.39
  -1  -4 -11   13.20    1.32
  -1  -4 -12   18.62    1.66
   1   4  12   18.51    1.58
  -1  -4 -12   19.01    1.29
   1   4  12   16.76    1.68
   1   4  13    0.67    0.53
   1   4  13    0.19    0.53
   1   4  14    2.89    0.74
   1   4  14    2.64    0.80
   1   4  15   -0.46    0.62
   1   4  16    0.89    0.68
  -1  -5  15   -0.24    0.47
  -1  -5  14    2.00    0.84
  -1  -5  13    1.60    0.60
  -1  -5  12   10.04    1.39
   1   5 -12    9.69    0.77
  -1  -5  12    9.47    0.98
   1   5 -12    8.87    0.80
  -1  -5  11   27.52    2.16
  -1  -5  11   28.38    1.71
   1   5 -11   28.43    1.34
  -1  -5  10    6.85    1.03
  -1  -5  10    6.88    0.82
   1   5 -10    7.71    0.71
  -1  -5   9   10.20    1.22
  -1  -5   9   10.99    1.04
   1   5  -9   11.39    0.86
   1   5  -8  115.71    4.14
  -1  -5   8  116.12    4.14
  -1  -5   8  114.53    3.70
   1   5  -8  121.07    3.33
   1   5  -7  232.20    6.17
  -1  -5   7  231.59    6.16
  -1  -5   7  232.08    5.90
   1   5  -7  233.07    5.36
   1   5  -6   38.08    1.95
  -1  -5   6   36.81    1.92
  -1  -5   6   36.45    1.87
   1   5  -6   35.47    1.62
   1   5  -5   42.68    1.95
  -1  -5   5   43.51    1.97
  -1  -5   5   44.33    2.08
   1   5  -5   45.73    1.87
  -1  -5   4  191.92    4.72
   1   5  -4  190.82    4.71
  -1  -5   4  194.49    5.12
   1   5  -4  193.37    4.76
   1   5  -3  230.93    5.23
  -1  -5   3  241.31    5.27
  -1  -5   3  238.41    5.91
   1   5  -3  243.49    5.63
   1   5  -2    2.70    0.50
  -1  -5   2    1.04    0.37
  -1  -5   2    1.63    0.30
   1   5  -2    1.54    0.26
   1   5  -1    3.81    0.62
   1   5  -1    2.86    0.32
  -1  -5   1    3.04    0.33
  -1  -5   1    2.77    0.53
   1   5   0  468.57    9.81
  -1  -5   0  458.65    9.74
   1   5   0  472.87    9.80
   1   5   1    7.31    0.84
  -1  -5  -1    8.08    0.86
   1   5   1    8.30    0.86
   1   5   2   49.09    2.26
   1   5   2   50.59    2.28
  -1  -5  -2   46.84    2.21
  -1  -5  -3   13.32    0.68
   1   5   3   12.41    1.13
   1   5   3   13.03    1.15
  -1  -5  -3   11.80    1.11
  -1  -5  -4  162.64    3.75
   1   5   4  161.71    4.87
  -1  -5  -4  164.46    4.84
   1   5   4  155.61    4.77
   1   5   5    0.54    0.28
  -1  -5  -5    0.58    0.36
   1   5   5    1.05    0.47
   1   5   6   73.62    2.10
  -1  -5  -6   70.79    2.13
   1   5   6   71.88    3.14
   1   5   6   70.57    3.09
  -1  -5  -6   70.20    3.04
  -1  -5  -7    6.31    0.64
   1   5   7    7.65    0.68
  -1  -5  -7    7.58    0.99
   1   5   7    7.35    1.01
   1   5   8   32.02    1.54
  -1  -5  -8   29.01    1.54
  -1  -5  -8   30.86    2.02
   1   5   8   30.41    2.11
   1   5   9   51.16    2.27
  -1  -5  -9   48.02    2.31
   1   5   9   53.88    3.08
   1   5  10    3.78    0.62
  -1  -5 -10    3.41    0.60
   1   5  10    3.49    0.68
   1   5  11   35.34    2.03
  -1  -5 -11   33.13    2.03
  -1  -5 -11   34.48    1.86
   1   5  11   32.68    2.40
   1   5  12    2.39    0.61
  -1  -5 -12    1.16    0.49
   1   5  12    1.04    0.50
   1   5  13    8.45    1.10
   1   5  13    7.68    1.23
   1   5  14    1.03    0.48
   1   5  14   -0.09    0.50
   1   5  15    8.23    1.39
  -1  -6  15   24.79    2.51
  -1  -6  14    0.82    0.76
  -1  -6  13   -0.66    0.58
  -1  -6  12   23.54    2.17
  -1  -6  12   24.93    1.72
   1   6 -12   26.02    1.29
  -1  -6  11   42.50    2.78
  -1  -6  11   41.24    2.24
   1   6 -11   43.81    1.82
   1   6 -10    6.25    0.69
  -1  -6  10    6.67    1.03
  -1  -6  10    6.20    0.86
  -1  -6   9   10.16    1.22
  -1  -6   9   10.37    1.12
   1   6  -9    9.22    0.84
   1   6  -8   47.14    2.52
  -1  -6   8   45.32    2.47
  -1  -6   8   42.92    2.25
   1   6  -8   44.19    1.94
   1   6  -7   50.68    2.50
  -1  -6   7   52.79    2.53
  -1  -6   7   54.46    2.54
   1   6  -7   54.57    2.20
  -1  -6   6  113.61    3.76
   1   6  -6  112.41    3.77
  -1  -6   6  114.34    3.90
   1   6  -6  114.08    3.48
  -1  -6   5   53.93    2.28
   1   6  -5   54.17    2.30
  -1  -6   5   55.36    2.55
   1   6  -5   56.13    2.29
   1   6  -4   15.17    1.07
  -1  -6   4   16.66    1.12
  -1  -6   4   15.13    1.29
   1   6  -4   17.16    1.24
  -1  -6   3   54.58    1.98
   1   6  -3   54.75    1.99
  -1  -6   3   54.19    2.51
   1   6  -3   56.59    2.35
   1   6  -2  346.27    7.84
  -1  -6   2  340.71    6.75
   1   6  -2  328.75    6.75
  -1  -6   2  340.25    8.04
   1   6  -2  345.29    7.80
   1   6  -1   22.50    1.54
   1   6  -1   21.81    0.95
  -1  -6   1   24.80    0.98
  -1  -6   1   22.20    1.57
   1   6  -1   22.25    1.55
   1   6   0    0.70    0.36
   1   6   0    0.31    0.24
  -1  -6   0    0.70    0.33
   1   6   1  152.05    4.63
  -1  -6  -1  146.32    4.55
   1   6   1  147.21    4.55
   1   6   2  219.73    6.08
  -1  -6  -2  223.05    6.08
   1   6   2  224.29    6.10
  -1  -6  -3    0.61    0.38
   1   6   3    0.78    0.42
   1   6   3    0.06    0.34
   1   6   4   -0.12    0.29
  -1  -6  -4    0.86    0.23
   1   6   4    0.68    0.44
  -1  -6  -4    0.28    0.26
  -1  -6  -5  157.03    3.88
   1   6   5  152.82    5.08
  -1  -6  -5  151.46    4.99
   1   6   5  145.93    4.97
   1   6   6   57.42    2.95
  -1  -6  -6   54.17    2.13
  -1  -6  -6   54.89    2.81
   1   6   6   51.51    2.79
   1   6   7    1.31    0.59
  -1  -6  -7    2.37    0.52
   1   6   8    1.19    0.82
  -1  -6  -8    0.89    0.48
  -1  -6  -9   91.33    3.09
  -1  -6  -9  100.30    3.69
   1   6   9   98.19    4.32
   1   6  10    5.58    0.74
  -1  -6 -10    5.41    0.72
   1   6  10    3.99    0.89
   1   6  11    0.96    0.41
   1   6  11    0.61    0.56
   1   6  12    1.49    0.45
   1   6  12    1.24    0.71
  -1  -6 -13   15.66    1.72
   1   6  13   14.01    1.76
  -1  -6 -14    0.91    0.57
   1   6  14    0.90    0.70
  -1  -6 -15    3.94    1.06
   1   6  15    4.29    1.21
  -1  -7  14   37.07    2.99
  -1  -7  13   23.44    2.31
  -1  -7  12    0.56    0.43
   1   7 -11    5.55    0.68
  -1  -7  11    5.07    1.04
  -1  -7  11    6.04    0.94
  -1  -7  10   62.32    3.30
  -1  -7  10   59.27    2.91
   1   7 -10   62.03    2.43
  -1  -7   9   13.19    1.44
  -1  -7   9   10.80    1.32
   1   7  -9   13.67    1.13
   1   7  -8    2.84    0.66
   1   7  -8    2.21    0.74
  -1  -7   8    1.07    0.49
  -1  -7   8    0.44    0.43
   1   7  -7   46.67    2.45
  -1  -7   7   46.55    2.44
  -1  -7   7   50.88    2.60
   1   7  -7   49.02    2.23
   1   7  -6   70.18    2.90
  -1  -7   6   68.35    2.86
  -1  -7   6   73.10    3.18
   1   7  -6   69.60    2.78
   1   7  -5   25.20    1.63
  -1  -7   5   28.94    1.66
   1   7  -5   25.94    1.59
  -1  -7   5   28.12    1.90
   1   7  -5   28.33    1.71
   1   7  -4   22.28    1.55
  -1  -7   4   23.51    1.38
   1   7  -4   22.92    1.37
  -1  -7   4   21.87    1.67
   1   7  -4   22.05    1.52
   1   7  -3    8.98    0.99
   1   7  -3   10.12    1.05
  -1  -7   3    9.08    1.08
  -1  -7   3   10.05    0.82
   1   7  -3    9.73    0.81
   1   7  -2    9.08    1.02
   1   7  -2    7.72    0.93
   1   7  -2    8.13    0.67
  -1  -7   2    8.22    0.65
  -1  -7   2    8.89    1.07
   1   7  -1   58.58    2.72
  -1  -7   1   59.15    1.69
  -1  -7   1   60.43    2.85
   1   7  -1   56.71    2.67
   1   7   0   11.63    1.21
  -1  -7   0   10.15    1.15
  -1  -7   0   10.76    1.14
   1   7   0   12.07    1.24
   1   7   1    4.41    0.76
   1   7   1    2.74    0.61
  -1  -7  -1    2.62    0.58
   1   7   2   23.51    1.76
   1   7   2   22.51    1.75
  -1  -7  -2   23.71    1.79
   1   7   3   84.10    3.58
  -1  -7  -3   78.52    3.45
   1   7   3   75.50    3.40
   1   7   4    0.18    0.41
   1   7   5   16.77    1.60
  -1  -7  -6   30.23    1.52
   1   7   6   28.80    2.16
  -1  -7  -7   77.02    2.80
   1   7   7   76.44    3.75
  -1  -7  -8    8.34    0.98
   1   7   8    8.44    1.46
  -1  -7  -9    0.22    0.33
   1   7   9    1.57    0.70
  -1  -7 -10   51.69    2.68
   1   7  10   44.98    3.10
  -1  -7 -11   13.28    1.47
   1   7  11   12.43    1.63
  -1  -7 -12    0.90    0.34
   1   7  12   -0.39    0.57
  -1  -7 -13    2.91    0.66
   1   7  13    1.60    0.82
  -1  -7 -14   39.06    2.83
   1   7  14   36.56    3.10
   1   7  15    2.05    0.85
  -1  -8  14   17.75    2.14
  -1  -8  13   23.73    2.38
  -1  -8  12   48.77    3.24
  -1  -8  11    1.58    0.65
   1   8 -11    1.46    0.38
  -1  -8  10    4.60    0.94
   1   8 -10    5.63    0.78
   1   8 -10    4.96    0.73
  -1  -8   9   41.84    2.61
   1   8  -9   38.79    2.07
   1   8  -9   42.65    2.15
  -1  -8   8   53.89    2.83
   1   8  -8   49.38    2.42
   1   8  -8   54.45    2.50
  -1  -8   7    1.05    0.50
   1   8  -7    1.31    0.51
   1   8  -7    2.17    0.57
   1   8  -7    2.65    0.62
  -1  -8   6    2.45    0.57
   1   8  -6    2.79    0.59
   1   8  -6    2.72    0.60
   1   8  -6    3.10    0.62
  -1  -8   5  121.96    3.89
   1   8  -5  118.41    3.88
   1   8  -5  120.94    4.19
   1   8  -5  121.02    4.17
   1   8  -4   35.36    1.79
  -1  -8   4   36.44    1.79
   1   8  -4   35.34    2.11
   1   8  -4   37.48    2.17
  -1  -8   3   11.57    0.89
   1   8  -3   10.25    0.85
   1   8  -3   10.32    1.12
   1   8  -3   10.78    1.19
  -1  -8   2   10.49    0.76
   1   8  -2   10.72    1.19
   1   8  -2   10.69    1.17
  -1  -8   1   55.44    1.63
   1   8  -1   58.92    2.91
   1   8  -1   55.91    2.83
   1   8   0    7.65    1.09
   1   8   1   14.64    1.48
   1   8   2   12.77    1.41
   1   8   3    6.14    1.03
   1   8   4   15.11    1.63
   1   8   5   32.23    2.39
   1   8   6    0.52    0.55
  -1  -8  -7   -0.05    0.25
   1   8   7    0.03    0.43
  -1  -8  -8   91.60    3.28
   1   8   8   83.10    4.30
  -1  -8  -9   20.47    1.55
   1   8   9   19.57    2.10
  -1  -8 -10   12.57    1.29
   1   8  10    8.03    1.43
  -1  -8 -11    6.78    1.06
   1   8  11    4.38    1.09
   1   8  12   26.39    2.55
   1   8  13   -0.37    0.58
   1   8  14    1.48    0.85
  -1  -9  13   42.28    3.21
  -1  -9  12    6.71    1.26
  -1  -9  11   56.66    3.43
  -1  -9  10    1.11    0.68
   1   9 -10    2.57    0.70
  -1  -9   9   65.57    3.42
   1   9  -9   68.37    3.04
   1   9  -9   74.80    3.15
  -1  -9   8    1.62    0.64
   1   9  -8    1.37    0.59
   1   9  -8    1.96    0.62
  -1  -9   7   43.83    2.47
   1   9  -7   42.64    2.47
   1   9  -7   41.03    2.35
   1   9  -7   45.25    2.46
   1   9  -6    6.85    0.91
  -1  -9   6    7.34    0.94
   1   9  -6    8.74    1.09
   1   9  -6    6.58    0.96
  -1  -9   5   34.38    1.90
   1   9  -5   31.18    1.85
   1   9  -5   31.62    2.12
   1   9  -5   33.51    2.16
  -1  -9   4   27.82    1.57
   1   9  -4   30.04    2.09
  -1  -9   3    9.33    0.82
   1   9  -3    8.86    1.16
  -1  -9   2   27.04    1.25
   1   9  -2   27.79    2.06
   1   9  -1    8.80    1.21
   1   9   0   38.68    2.52
   1   9   1    2.20    0.71
   1   9   2    3.73    0.84
   1   9   3    4.85    1.02
   1   9   4    3.44    0.81
   1   9   5    1.20    0.62
   1   9   6    0.75    0.49
   1   9   7    8.00    1.34
   1   9   8    2.02    0.89
   1   9   9    8.26    1.50
   1   9  10   10.59    1.68
   1   9  11    0.99    0.69
   1   9  12    1.32    0.74
  -1 -10  13    2.65    1.07
  -1 -10  12   11.14    1.61
  -1 -10  11   64.18    3.75
  -1 -10  10    6.45    1.13
   1  10 -10    6.47    0.96
  -1 -10   9    0.55    0.43
   1  10  -9    0.74    0.58
  -1 -10   8   71.01    3.45
   1  10  -8   78.65    3.53
  -1 -10   7   56.11    2.86
   1  10  -7   57.32    3.02
  -1 -10   6    3.97    0.66
   1  10  -6    4.12    0.82
  -1 -10   5    0.59    0.35
   1  10  -5    0.93    0.49
  -1 -10   4  141.71    4.13
   1  10  -4  141.93    5.23
  -1 -10   3   49.95    1.99
   1  10  -3   47.73    2.89
   1  10  -2    4.63    0.89
   1  10  -1   34.14    2.47
   1  10   0  147.45    5.61
   1  10   1    1.36    0.71
   1  10   2    1.46    0.70
   1  10   3   15.17    1.79
   1  10   4   32.83    2.64
   1  10   5    2.11    0.97
   1  10   6    0.66    0.51
   1  10   7    7.76    1.41
   1  10   8    8.15    1.49
   1  10   9    2.23    0.95
   1  10  10   -0.35    0.80
  -1 -11  12    1.62    0.63
  -1 -11  11    6.87    1.31
  -1 -11  10   19.25    1.98
  -1 -11   9   17.00    1.76
   1  11  -9   17.87    1.72
  -1 -11   8    2.96    0.75
   1  11  -8    3.94    0.94
  -1 -11   7   23.64    1.87
   1  11  -7   24.43    2.05
  -1 -11   6   37.20    2.22
   1  11  -6   38.14    2.61
  -1 -11   5    9.04    0.98
   1  11  -5   10.08    1.37
  -1 -11   4    0.98    0.40
   1  11  -4    1.05    0.58
   1  11  -3   49.16    3.10
   1  11  -2   58.88    3.45
   1  11  -1    1.96    0.94
   1  11   0    1.07    0.72
   1  11   1   93.59    4.65
   1  11   2   15.31    1.87
   1  11   3    2.82    0.93
   1  11   4    3.03    0.92
   1  11   5   45.71    3.44
   1  11   6   10.96    1.70
   1  11   7   18.05    2.24
   1  12  -8   12.17    1.47
   1  12  -7    0.42    0.44
   1  12  -6   -0.33    0.44
   1  12  -5   57.46    3.48
   1  12  -4    2.20    0.80
   1  12  -3    0.37    0.50
   1  12  -2    1.98    0.89
   1  12  -1   35.04    2.85
   1  12   0    0.09    0.48
   1  12   1    3.90    1.14
   1  12   2   18.43    2.14
   1  12   3   10.50    1.69
   1  12   4    6.88    1.48
   1  13  -7    1.41    0.74
   1  13  -6    1.08    0.72
   1  13  -5    1.63    0.67
   1  13  -4    3.45    1.04
   1  13  -3    1.11    0.66
   1  13  -2    1.75    0.78
   1  13  -1    5.61    1.35
   1  13   0    7.73    1.53
   1  13   1   12.09    1.81
   1  14  -6    1.64    0.85
   1  14  -5   -0.44    0.72
  -2  14  -1    2.33    0.87
  -2  14  -2    2.09    0.79
  -2  14  -3    0.84    0.60
  -2  14  -4    0.59    0.67
  -2  14  -5    0.58    0.50
  -2  13   3    0.49    0.68
  -2  13   2    0.45    0.70
  -2  13   1   31.03    2.87
  -2  13   0    4.86    1.20
  -2  13  -1    0.27    0.68
  -2  13  -2    2.15    0.89
  -2  13  -3   34.11    2.76
  -2  13  -4    3.70    0.94
  -2  13  -5   -0.30    0.52
  -2  13  -6    0.21    0.54
  -2  12   6    1.29    0.80
  -2  12   5    1.63    0.81
  -2  12   4   10.34    1.67
  -2  12   3   13.07    1.80
  -2  12   2   10.40    1.62
  -2  12   1    4.57    1.19
  -2  12   0   43.04    3.10
  -2  12  -1   57.23    3.56
  -2  12  -2    7.50    1.31
   2 -12   3   20.66    1.49
  -2  12  -3   19.73    2.03
   2 -12   4   45.24    2.39
  -2  12  -4   44.15    2.96
   2 -12   5   21.06    1.67
  -2  12  -5   20.75    1.97
   2 -12   6    0.53    0.36
  -2  12  -6   -1.11    0.53
   2 -12   7    6.52    1.09
  -2  12  -7    6.64    1.09
   2 -12   8   36.57    2.64
   2 -12   9    6.56    1.19
   2 -12  10    1.35    0.78
   2 -12  11    8.58    1.44
  -2  11   8    1.15    0.87
  -2  11   7    3.87    0.99
  -2  11   6   22.04    2.40
  -2  11   5   36.78    3.03
  -2  11   4    0.41    0.49
  -2  11   3   -0.42    0.73
  -2  11   2   50.26    3.30
   2 -11  -1   15.31    0.87
  -2  11   1   16.62    1.87
   2 -11   0   19.42    1.14
  -2  11   0   20.90    2.06
   2 -11   1   14.39    1.06
  -2  11  -1   12.05    1.59
   2 -11   2  107.45    3.50
  -2  11  -2  105.66    4.63
   2 -11   3   33.04    1.89
  -2  11  -3   32.50    2.41
   2 -11   4    8.40    1.00
  -2  11  -4    6.80    1.13
   2 -11   5    4.31    0.78
  -2  11  -5    3.50    0.81
   2 -11   6   15.94    1.54
  -2  11  -6   15.81    1.56
   2 -11   7   -0.26    0.43
  -2  11  -7   -0.26    0.35
   2 -11   8    0.52    0.37
  -2  11  -8    0.80    0.53
   2 -11   9   17.74    1.89
   2 -11  10    8.86    1.46
   2 -11  11    1.56    0.64
   2 -11  12    0.62    0.57
   2 -10 -12    2.98    0.97
  -2  10  10   -0.01    0.77
  -2  10   9    2.38    1.13
  -2  10   8    0.79    0.73
  -2  10   7   -0.29    0.59
  -2  10   6    4.68    1.09
  -2  10   5    0.80    0.72
   2 -10  -4   12.88    0.64
  -2  10   4   15.98    1.83
   2 -10  -3    0.07    0.17
   2 -10  -3    0.00    0.15
  -2  10   3   -0.78    0.65
   2 -10  -2   18.60    0.96
  -2  10   2   16.69    1.26
  -2  10   2   17.27    1.81
   2 -10  -1    6.71    0.61
  -2  10   1    7.01    0.80
  -2  10   1    7.89    1.24
   2 -10   0   46.46    1.86
  -2  10   0   39.38    2.00
  -2  10   0   47.39    2.91
   2 -10   1    5.40    0.66
  -2  10  -1    5.25    0.96
   2 -10   2    0.81    0.37
  -2  10  -2    0.66    0.55
   2 -10   3    6.24    0.80
  -2  10  -3    7.10    1.09
   2 -10   4   47.83    2.40
  -2  10  -4   48.79    2.74
   2 -10   4   42.97    2.50
   2 -10   5   47.44    2.53
  -2  10  -5   51.01    2.72
   2 -10   6    7.29    1.06
  -2  10  -6    8.57    1.06
   2 -10   7   63.26    3.24
  -2  10  -7   63.63    2.90
   2 -10   8    9.08    1.29
  -2  10  -8    9.41    1.07
   2 -10   9   45.59    2.95
   2 -10  10    0.22    0.41
   2 -10  11   18.98    2.09
   2 -10  12    2.73    0.98
  -2   9  12    3.04    0.92
   2  -9 -12    2.71    0.84
   2  -9 -11   -0.42    0.62
  -2   9  11    0.39    0.61
   2  -9 -10   24.87    2.47
  -2   9  10   25.71    2.59
   2  -9  -9    1.43    0.79
  -2   9   9   -0.14    0.62
   2  -9  -8    0.52    0.72
  -2   9   8    1.52    1.07
   2  -9  -7    6.10    1.16
  -2   9   7    8.67    1.47
   2  -9  -6    6.35    0.56
   2  -9  -6    5.95    1.06
  -2   9   6    6.43    1.25
   2  -9  -5    6.67    0.56
   2  -9  -5    6.18    1.09
  -2   9   5    7.88    1.28
   2  -9  -4    2.75    0.37
   2  -9  -4    2.55    0.65
  -2   9   4    2.22    0.71
   2  -9  -3    2.72    0.77
  -2   9   3    2.38    0.72
   2  -9  -2   11.26    0.78
  -2   9   2   10.02    0.94
   2  -9  -2   10.84    1.37
  -2   9   2   11.27    1.44
   2  -9  -1   52.83    1.91
  -2   9   1   45.80    2.13
  -2   9   1   54.85    3.00
   2  -9   0   37.63    1.68
  -2   9   0   42.68    2.59
   2  -9   1    2.62    0.56
   2  -9   1    2.08    0.63
  -2   9  -1    2.89    0.80
   2  -9   2    3.77    0.56
  -2   9  -2    3.08    0.72
   2  -9   2    3.75    0.75
   2  -9   3   83.17    3.10
  -2   9  -3   90.28    3.65
   2  -9   3   80.50    3.39
   2  -9   4   78.16    3.13
  -2   9  -4   82.26    3.40
   2  -9   4   76.79    3.21
   2  -9   5   18.24    1.51
  -2   9  -5   15.57    1.37
   2  -9   5   14.74    1.30
   2  -9   6   64.15    3.06
  -2   9  -6   71.10    2.94
   2  -9   7  116.50    4.49
  -2   9  -7  125.23    3.99
   2  -9   8   32.94    2.34
  -2   9  -8   33.01    1.78
   2  -9   9    1.16    0.67
  -2   9  -9    0.55    0.29
   2  -9  10   66.14    3.67
   2  -9  11   22.90    2.17
   2  -9  12    5.33    1.11
   2  -9  13    3.79    1.07
   2  -8 -15   -0.24    0.62
   2  -8 -14    4.00    1.08
  -2   8  14    4.41    1.21
   2  -8 -13   16.78    2.03
   2  -8 -13   14.98    1.75
  -2   8  13   17.56    2.28
   2  -8 -13   15.24    1.81
   2  -8 -12   30.48    2.44
   2  -8 -12   31.14    2.75
   2  -8 -12   26.86    2.44
  -2   8  12   28.40    2.75
   2  -8 -11    0.89    0.48
   2  -8 -11    0.04    0.46
  -2   8  11   -0.33    0.72
   2  -8 -11    0.65    0.45
   2  -8 -10    4.98    0.94
   2  -8 -10    6.78    1.34
  -2   8  10    6.05    1.24
   2  -8  -9   28.52    2.49
  -2   8   9   26.34    2.45
   2  -8  -8  125.22    3.67
   2  -8  -8  126.51    5.24
  -2   8   8  136.04    5.61
   2  -8  -7   83.15    2.68
   2  -8  -7   87.11    4.13
  -2   8   7   87.16    4.26
   2  -8  -6   21.81    1.18
   2  -8  -6   24.16    2.08
  -2   8   6   22.44    2.05
   2  -8  -5   50.70    1.82
   2  -8  -5   50.60    2.98
  -2   8   5   51.62    3.06
   2  -8  -4    8.33    0.66
   2  -8  -4    8.76    1.18
  -2   8   4    8.52    1.19
   2  -8  -3    0.32    0.38
  -2   8   3    0.47    0.27
  -2   8   3    0.34    0.45
  -2   8   2   14.47    1.12
   2  -8  -2   17.24    1.57
   2  -8  -2   16.96    1.56
  -2   8   2   16.85    1.57
  -2   8   1   45.40    2.06
   2  -8  -1   55.14    2.80
   2  -8  -1   51.33    1.88
   2  -8  -1   52.48    2.74
  -2   8   1   51.88    2.76
   2  -8   0   25.94    1.35
   2  -8   0   27.01    1.88
  -2   8   0   27.46    1.95
   2  -8   0   25.39    1.82
   2  -8   1   45.12    1.93
   2  -8   1   42.79    2.34
  -2   8  -1   44.81    2.46
   2  -8   2    8.42    0.85
   2  -8   2    9.78    1.06
  -2   8  -2   10.19    1.12
   2  -8   3    4.16    0.65
   2  -8   3    4.74    0.73
  -2   8  -3    3.36    0.64
   2  -8   4  131.78    4.17
  -2   8  -4  141.02    4.33
   2  -8   4  122.75    4.03
   2  -8   5  123.75    4.23
  -2   8  -5  133.52    4.10
   2  -8   5  123.94    3.89
   2  -8   6    2.46    0.60
  -2   8  -6    3.09    0.58
   2  -8   7    6.53    0.95
  -2   8  -7    7.05    0.76
   2  -8   8  116.84    4.58
   2  -8   8  117.41    4.27
  -2   8  -8  128.23    3.57
   2  -8   9    6.56    1.08
   2  -8   9    6.67    0.95
  -2   8  -9    7.46    0.66
   2  -8  10    1.66    0.53
   2  -8  10    2.78    0.90
   2  -8  11   37.08    2.76
   2  -8  12   54.26    3.46
   2  -8  13    1.34    0.70
   2  -8  14    5.43    1.39
   2  -7 -15   28.27    2.65
   2  -7 -15   27.11    2.60
   2  -7 -14    8.94    1.54
   2  -7 -14    6.44    1.27
   2  -7 -13   18.26    2.03
   2  -7 -13   19.59    2.03
   2  -7 -13   19.39    1.93
  -2   7  13   18.07    2.16
   2  -7 -12    3.65    0.89
   2  -7 -12    4.04    1.07
  -2   7  12    3.68    1.08
   2  -7 -12    1.86    0.72
   2  -7 -11   69.00    3.86
   2  -7 -11   78.73    3.83
   2  -7 -11   72.28    3.75
  -2   7  11   72.25    4.21
   2  -7 -10    8.80    0.98
   2  -7 -10    7.44    1.22
   2  -7 -10    9.18    1.21
  -2   7  10    9.51    1.47
   2  -7  -9   54.58    2.41
   2  -7  -9   60.15    3.05
   2  -7  -9   54.97    3.23
  -2   7   9   54.80    3.38
   2  -7  -8   60.29    2.43
   2  -7  -8   63.07    3.42
   2  -7  -8   65.36    3.07
  -2   7   8   65.89    3.65
   2  -7  -7  126.21    3.64
   2  -7  -7  129.67    4.97
  -2   7   7  134.20    5.17
   2  -7  -6    9.91    0.83
   2  -7  -6   11.83    1.38
  -2   7   6   12.01    1.42
   2  -7  -5    2.07    0.36
   2  -7  -5    1.78    0.63
  -2   7   5    1.21    0.50
   2  -7  -4  133.39    3.43
   2  -7  -4  136.39    4.80
  -2   7   4  142.22    4.96
   2  -7  -4  137.83    4.83
   2  -7  -3   27.31    1.94
  -2   7   3   24.93    1.45
  -2   7   3   25.26    1.88
   2  -7  -3   29.47    2.00
  -2   7   2   26.70    1.47
   2  -7  -2   25.60    1.81
  -2   7   2   28.70    1.94
   2  -7  -2   30.09    1.95
   2  -7  -1    0.72    0.50
   2  -7  -1    0.89    0.48
  -2   7   1    0.99    0.55
   2  -7   0  201.31    5.57
   2  -7   0  184.21    4.61
  -2   7   0  214.53    5.77
   2  -7   0  193.89    5.50
   2  -7   1   81.41    2.69
   2  -7   1   83.53    3.16
  -2   7  -1   85.42    3.24
   2  -7   1   79.92    3.09
   2  -7   2    0.41    0.30
   2  -7   2    0.58    0.30
  -2   7  -2    1.14    0.42
   2  -7   3   27.54    1.61
   2  -7   3   24.62    1.52
  -2   7  -3   27.20    1.65
   2  -7   4   72.45    2.88
  -2   7  -4   83.52    2.93
   2  -7   4   73.44    2.69
   2  -7   5   25.75    1.69
  -2   7  -5   28.57    1.54
   2  -7   5   24.89    1.40
   2  -7   6   18.31    1.50
  -2   7  -6   19.84    1.23
   2  -7   7    6.07    0.96
  -2   7  -7    6.99    0.67
   2  -7   8    2.55    0.69
   2  -7   8    1.96    0.53
  -2   7  -8    1.39    0.30
   2  -7   9   12.50    1.56
   2  -7   9   11.39    1.24
  -2   7  -9   12.10    0.74
   2  -7  10   35.48    1.95
   2  -7  10   35.01    2.52
   2  -7  11    1.23    0.63
   2  -7  12    2.83    0.84
   2  -7  13   20.90    2.17
   2  -7  14    4.24    1.03
   2  -6 -16    1.13    0.86
   2  -6 -15   13.14    1.82
   2  -6 -15   12.25    1.71
   2  -6 -14    2.19    0.88
   2  -6 -14    2.52    0.91
   2  -6 -13   12.40    1.61
   2  -6 -13   15.22    1.80
   2  -6 -13   11.36    1.37
   2  -6 -12   22.90    2.09
   2  -6 -12   22.28    2.08
   2  -6 -12   21.13    1.87
  -2   6  12   22.08    2.18
   2  -6 -11   11.58    1.24
   2  -6 -11   12.61    1.54
   2  -6 -11   11.87    1.45
  -2   6  11   10.54    1.52
   2  -6 -11   11.33    1.32
   2  -6 -10   47.53    2.76
   2  -6 -10   45.11    2.85
   2  -6 -10   42.89    2.26
   2  -6 -10   44.87    2.70
  -2   6  10   42.89    2.94
   2  -6  -9    8.44    1.04
   2  -6  -9    8.88    1.29
   2  -6  -9   11.53    1.54
  -2   6   9   13.08    1.73
   2  -6  -8  228.89    5.80
   2  -6  -8  246.52    6.69
   2  -6  -8  238.31    7.07
  -2   6   8  236.24    7.25
   2  -6  -7    0.37    0.26
   2  -6  -7    0.36    0.46
   2  -6  -7    0.78    0.41
  -2   6   7    0.66    0.42
   2  -6  -6   55.92    2.14
   2  -6  -6   57.26    2.91
   2  -6  -6   62.94    2.69
  -2   6   6   58.63    3.03
   2  -6  -6   58.72    2.95
   2  -6  -5    2.96    0.43
   2  -6  -5    4.03    0.75
   2  -6  -5    4.00    0.72
  -2   6   5    2.44    0.63
   2  -6  -4  190.17    4.47
   2  -6  -4  194.95    5.72
  -2   6   4  201.92    5.87
   2  -6  -4  195.67    5.72
  -2   6   3    8.16    0.81
   2  -6  -3    8.58    1.01
   2  -6  -3   10.08    1.07
  -2   6   3   10.32    1.09
  -2   6   2  226.50    5.52
   2  -6  -2  236.04    6.23
  -2   6   2  241.96    6.33
   2  -6  -2  249.12    6.36
   2  -6  -1   11.85    1.10
  -2   6   1   13.90    1.23
   2  -6  -1   13.53    1.17
   2  -6   0  213.24    5.62
  -2   6   0  228.23    5.81
   2  -6   0  218.13    5.67
   2  -6   1   41.66    1.97
   2  -6   1   41.87    1.77
  -2   6  -1   45.29    2.10
   2  -6   1   42.04    1.98
   2  -6   2  143.78    3.97
   2  -6   2  149.64    4.11
  -2   6  -2  152.29    4.20
   2  -6   2  140.54    4.02
   2  -6   3    3.99    0.60
   2  -6   3    3.16    0.49
  -2   6  -3    3.34    0.53
   2  -6   4   34.47    1.84
  -2   6  -4   36.47    1.66
   2  -6   4   33.75    1.54
   2  -6   5   49.44    2.35
  -2   6  -5   49.10    1.88
   2  -6   5   50.15    1.84
   2  -6   6   26.57    1.77
  -2   6  -6   26.56    1.25
   2  -6   7    0.89    0.45
  -2   6  -7    0.66    0.22
   2  -6   8    0.65    0.54
   2  -6   8    0.41    0.30
  -2   6  -8    0.42    0.18
   2  -6   9    5.54    0.83
   2  -6   9    8.41    1.25
   2  -6  10    5.02    0.76
   2  -6  10    4.74    0.95
   2  -6  11    7.48    0.74
   2  -6  11    8.33    1.27
   2  -6  12    1.45    0.68
   2  -6  13    1.26    0.68
   2  -6  14    2.69    0.84
   2  -6  15   17.87    2.11
   2  -5 -16    2.07    0.99
   2  -5 -16    1.25    0.57
   2  -5 -15    0.37    0.48
   2  -5 -15    2.16    0.82
   2  -5 -14   14.64    1.66
   2  -5 -14   20.47    2.08
   2  -5 -13   21.63    1.99
   2  -5 -13   25.10    2.30
   2  -5 -13   25.59    1.92
   2  -5 -12    1.55    0.60
   2  -5 -12   -0.20    0.54
   2  -5 -12    0.48    0.41
   2  -5 -11   -0.12    0.33
   2  -5 -11    0.33    0.53
   2  -5 -11   -0.02    0.45
   2  -5 -11   -0.10    0.35
  -2   5  11   -0.78    0.65
   2  -5 -10   92.67    3.89
   2  -5 -10   85.27    3.80
   2  -5 -10   79.28    3.27
   2  -5 -10   73.66    3.38
  -2   5  10   84.01    3.99
   2  -5  -9   27.17    2.01
   2  -5  -9   26.67    2.10
   2  -5  -9   25.37    1.74
   2  -5  -9   33.26    2.16
  -2   5   9   34.06    2.49
   2  -5  -8   14.60    1.20
   2  -5  -8   15.77    1.55
   2  -5  -8   13.90    1.37
   2  -5  -8   14.61    1.43
  -2   5   8   14.54    1.56
   2  -5  -7   88.39    2.98
   2  -5  -7   93.00    3.45
   2  -5  -7   85.30    3.57
  -2   5   7   92.26    3.81
   2  -5  -7   90.34    3.65
   2  -5  -6  277.21    6.33
   2  -5  -6  301.98    7.06
   2  -5  -6  273.10    7.29
   2  -5  -6  287.14    7.40
  -2   5   6  279.10    7.47
   2  -5  -5   64.71    2.24
   2  -5  -5   70.95    2.70
   2  -5  -5   64.71    2.87
  -2   5   5   67.28    2.98
   2  -5  -5   66.94    2.91
   2  -5  -4   53.43    1.90
   2  -5  -4   52.98    2.47
  -2   5   4   52.78    2.54
   2  -5  -4   53.57    2.49
  -2   5   3  378.13    8.03
   2  -5  -3  378.48    8.62
   2  -5  -3  382.99    8.64
  -2   5   3  390.12    8.79
   2  -5  -2  508.63   10.62
  -2   5   2  489.98    9.99
   2  -5  -2  509.29   10.62
  -2   5   2  531.72   10.78
   2  -5  -1  625.49   12.40
  -2   5   1  628.35   12.45
   2  -5  -1  618.33   12.37
   2  -5   0   79.69    2.78
  -2   5   0   83.58    2.85
   2  -5   0   82.29    2.80
   2  -5   1  554.43   10.95
  -2   5  -1  581.08   11.11
   2  -5   1  542.41   10.93
   2  -5   2    0.34    0.22
   2  -5   2    0.75    0.29
   2  -5   2    0.27    0.18
  -2   5  -2    0.16    0.25
   2  -5   3  104.75    3.25
   2  -5   3  101.46    2.88
  -2   5  -3  104.56    2.95
   2  -5   3  103.26    2.89
   2  -5   4   31.01    1.69
  -2   5  -4   32.09    1.36
   2  -5   4   28.17    1.24
   2  -5   5  251.83    6.31
   2  -5   5  246.33    5.11
  -2   5  -5  253.73    5.23
   2  -5   6    9.50    1.04
  -2   5  -6    9.95    0.60
   2  -5   7   19.14    1.52
  -2   5  -8   23.36    1.89
   2  -5   8   18.02    1.15
   2  -5   8   23.15    1.85
   2  -5   9   44.32    1.78
   2  -5   9   44.79    2.61
   2  -5  10    0.50    0.41
   2  -5  10    1.15    0.58
   2  -5  11    0.49    0.23
   2  -5  11    0.49    0.45
   2  -5  12    1.87    0.68
   2  -5  13    2.90    0.91
   2  -5  14    1.25    0.69
   2  -5  15    0.41    0.59
   2  -4 -16    1.92    0.77
   2  -4 -16    0.24    0.50
   2  -4 -15    2.60    0.86
   2  -4 -15    4.59    0.98
   2  -4 -14   16.90    1.92
   2  -4 -14   14.45    1.62
   2  -4 -14   14.68    1.33
   2  -4 -13   19.20    1.79
   2  -4 -13   23.11    2.16
   2  -4 -13   17.97    1.47
   2  -4 -12   22.40    1.92
   2  -4 -12   22.18    2.00
   2  -4 -12   22.10    1.65
   2  -4 -11    5.22    0.81
   2  -4 -11    4.37    0.84
   2  -4 -11    3.51    0.83
   2  -4 -11    4.45    0.73
   2  -4 -10    2.89    0.65
   2  -4 -10    3.09    0.65
   2  -4 -10    3.38    0.70
   2  -4 -10    3.27    0.70
   2  -4 -10    1.78    0.56
  -2   4  10    3.36    0.69
   2  -4  -9   70.44    3.17
   2  -4  -9   75.96    3.29
   2  -4  -9   65.33    2.81
   2  -4  -9   66.55    2.92
   2  -4  -9   71.69    3.21
  -2   4   9   74.53    3.43
   2  -4  -8  167.14    5.03
   2  -4  -8  156.28    4.99
   2  -4  -8  154.64    4.52
   2  -4  -8  148.02    4.69
   2  -4  -8  160.24    5.04
  -2   4   8  158.70    5.25
   2  -4  -7    6.56    0.75
   2  -4  -7    7.12    0.91
   2  -4  -7    7.88    0.94
   2  -4  -7    6.21    0.84
  -2   4   7    6.10    0.93
   2  -4  -7    5.39    0.76
   2  -4  -6    1.53    0.39
   2  -4  -6    1.10    0.39
   2  -4  -6    1.97    0.51
  -2   4   6    2.23    0.58
   2  -4  -5  128.93    3.52
   2  -4  -5  141.14    4.01
  -2   4   5  131.29    4.23
   2  -4  -5  130.22    4.16
   2  -4  -4   74.67    2.35
   2  -4  -4   79.27    2.70
   2  -4  -4   75.69    2.87
  -2   4   4   76.39    2.95
  -2   4   3   59.48    2.17
  -2   4   3   60.39    2.46
   2  -4  -3   60.83    2.44
  -2   4   2   43.56    1.75
  -2   4   2   44.54    1.99
   2  -4  -2   46.59    2.02
  -2   4   1  400.50    8.34
   2  -4  -1  393.77    8.27
  -2   4   0    8.39    0.76
   2  -4   0    9.49    0.80
   2  -4   1  182.45    4.31
  -2   4  -1  187.14    4.40
   2  -4   1  179.45    4.30
   2  -4   2  335.89    6.78
   2  -4   2  338.60    7.14
  -2   4  -2  345.55    6.86
   2  -4   2  331.70    6.75
   2  -4   3  195.74    4.82
   2  -4   3  191.48    4.18
  -2   4  -3  195.58    4.25
   2  -4   3  190.80    4.18
   2  -4   4  454.90    9.43
   2  -4   4  450.87    8.27
   2  -4   4  442.84    8.26
  -2   4  -4  457.86    8.38
   2  -4   5   64.62    2.61
  -2   4  -5   66.17    1.70
   2  -4   5   64.36    1.61
  -2   4  -6  411.94    9.26
   2  -4   6  396.39    9.03
  -2   4  -7   78.08    3.22
   2  -4   7   73.25    2.23
   2  -4   7   76.97    3.13
  -2   4  -8  133.46    4.62
   2  -4   8  121.70    3.10
   2  -4   8  136.55    4.57
   2  -4   9   46.64    1.56
   2  -4   9   45.90    2.57
   2  -4  10  145.54    3.17
   2  -4  10  143.99    5.15
   2  -4  11    0.32    0.39
   2  -4  12    0.18    0.40
   2  -4  13   33.94    2.58
   2  -4  14   28.50    2.54
   2  -4  15    0.59    0.48
   2  -3 -16   13.81    1.56
   2  -3 -16   13.48    1.87
   2  -3 -15    3.51    0.96
   2  -3 -15    4.00    0.85
   2  -3 -14    0.40    0.42
   2  -3 -14    0.58    0.42
   2  -3 -14   -0.05    0.26
   2  -3 -13   23.58    1.90
  -2   3  13   24.32    2.06
   2  -3 -13   23.97    1.57
  -2   3  12    6.13    1.04
   2  -3 -12    6.03    0.96
   2  -3 -12    5.67    0.89
   2  -3 -12    6.01    0.81
  -2   3  11    0.12    0.38
   2  -3 -11    0.81    0.45
   2  -3 -11    0.36    0.25
   2  -3 -11    0.17    0.26
   2  -3 -10    2.35    0.51
  -2   3  10    3.37    0.68
   2  -3 -10    3.19    0.71
   2  -3 -10    2.99    0.64
   2  -3 -10    2.85    0.64
   2  -3 -10    2.05    0.48
   2  -3  -9   16.87    1.48
   2  -3  -9   15.03    1.26
   2  -3  -9   14.45    1.18
   2  -3  -9   15.99    1.38
   2  -3  -8   17.21    1.42
   2  -3  -8   17.24    1.30
   2  -3  -8   15.95    1.25
   2  -3  -8   18.79    1.47
  -2   3   8   15.18    1.38
   2  -3  -7   34.73    1.92
   2  -3  -7   32.51    1.70
   2  -3  -7   27.95    1.64
   2  -3  -7   30.85    1.83
  -2   3   7   30.64    1.89
   2  -3  -6    5.51    0.63
   2  -3  -6    5.21    0.71
   2  -3  -6    5.30    0.75
   2  -3  -6    5.27    0.70
  -2   3   6    4.41    0.75
   2  -3  -5    4.56    0.54
   2  -3  -5    4.62    0.66
   2  -3  -5    5.06    0.67
  -2   3   5    5.27    0.74
   2  -3  -5    4.48    0.60
   2  -3  -4   15.00    0.94
   2  -3  -4   16.81    1.11
   2  -3  -4   16.97    1.19
  -2   3   4   15.82    1.19
  -2   3   3   86.26    2.67
   2  -3  -3   93.66    2.78
   2  -3  -3   87.34    2.86
  -2   3   3   86.38    2.90
  -2   3   2    0.49    0.19
  -2   3   2    0.63    0.35
   2  -3  -2    0.76    0.31
  -2   3   1    0.48    0.27
   2  -3  -1    1.05    0.29
   2  -3   0  300.98    6.30
  -2   3   0  314.61    6.42
   2  -3   1  138.86    3.35
  -2   3  -1  144.80    3.42
  -2   3  -2  146.33    3.32
   2  -3   2  142.70    3.24
   2  -3   3   71.38    2.41
   2  -3   3   68.15    1.76
  -2   3  -3   69.83    1.81
   2  -3   3   67.13    1.75
   2  -3   4  250.75    5.75
   2  -3   4  240.96    4.43
   2  -3   4  234.67    4.42
   2  -3   5  190.49    5.02
  -2   3  -6   62.84    2.65
   2  -3   6   57.92    2.51
  -2   3  -7  132.15    4.28
   2  -3   7  123.42    2.81
   2  -3   7  130.97    4.19
   2  -3   8  428.90    7.74
  -2   3  -8  460.21   10.24
   2  -3   8  433.76    9.99
   2  -3   9    0.28    0.54
  -2   3  -9    1.60    0.76
   2  -3  10   73.22    3.42
   2  -3  11  215.47    6.75
   2  -3  12  110.50    4.68
   2  -3  13    4.30    0.90
   2  -3  14    0.94    0.54
   2  -3  15   73.73    4.23
   2  -3  16    1.73    0.65
  -2   2  17   28.87    2.71
  -2   2  16    2.43    0.94
   2  -2 -15   78.47    3.62
  -2   2  15   76.97    4.18
   2  -2 -14    3.62    0.71
  -2   2  14    2.18    0.71
   2  -2 -14    2.56    0.52
   2  -2 -13   22.77    1.78
  -2   2  13   24.19    2.07
   2  -2 -13   23.52    1.48
   2  -2 -13   21.84    1.73
  -2   2  12    0.71    0.40
   2  -2 -12    1.21    0.44
   2  -2 -12    1.18    0.51
   2  -2 -12    0.82    0.38
  -2   2  11   88.66    3.74
   2  -2 -11   84.17    2.98
   2  -2 -11   85.33    3.46
  -2   2  10    0.52    0.41
   2  -2 -10    0.74    0.39
   2  -2 -10    1.16    0.44
   2  -2 -10    1.50    0.45
  -2   2   9   38.80    2.17
   2  -2  -9   37.15    2.13
   2  -2  -9   54.86    2.24
   2  -2  -9   41.79    2.25
   2  -2  -8   53.34    2.42
  -2   2   8   53.06    2.41
   2  -2  -8   52.49    2.20
   2  -2  -8   52.15    2.38
  -2   2   7   14.88    1.15
   2  -2  -7   15.10    1.14
   2  -2  -7   12.72    0.99
   2  -2  -7   13.94    1.14
   2  -2  -6   20.29    1.34
   2  -2  -6   17.37    1.17
   2  -2  -6   17.87    1.18
   2  -2  -6   16.01    1.18
   2  -2  -5    0.95    0.28
   2  -2  -5    0.34    0.27
   2  -2  -5    0.99    0.36
   2  -2  -5    0.41    0.26
   2  -2  -4    0.66    0.23
   2  -2  -4    1.03    0.31
   2  -2  -4    0.91    0.30
   2  -2  -4    1.41    0.36
  -2   2   4    0.99    0.37
  -2   2   3    1.68    0.34
   2  -2  -3    1.41    0.33
  -2   2   3    1.42    0.38
   2  -2  -3    1.37    0.36
   2  -2  -3    1.20    0.31
  -2   2   2    0.67    0.23
   2  -2  -2    0.87    0.31
   2  -2  -2    0.24    0.22
  -2   2   2    0.33    0.24
   2  -2  -1    0.58    0.20
   2  -2   0   50.97    1.66
   2  -2   1    2.39    0.30
   2  -2   2   62.27    1.64
   2  -2   3    8.02    0.73
   2  -2   3    7.57    0.41
   2  -2   4    8.75    0.81
  -2   2  -5    9.69    0.89
   2  -2   5    9.23    0.52
   2  -2   5   10.97    0.95
  -2   2  -6  556.76   11.13
   2  -2   6  516.53    9.15
   2  -2   6  550.36   10.99
   2  -2   7   84.58    3.19
  -2   2  -7   86.89    3.26
  -2   2  -8   37.52    2.15
   2  -2   8   35.83    2.07
   2  -2   9  491.75   11.16
  -2   2  -9  505.06   11.44
   2  -2  10    2.67    0.66
   2  -2  11   47.08    2.76
   2  -2  12   15.91    1.63
   2  -2  13  134.12    5.38
   2  -2  14    4.09    1.03
   2  -2  15   30.71    2.68
   2  -2  16   11.92    1.67
  -2   1  17   18.95    2.14
  -2   1  16   21.97    2.32
  -2   1  15   63.45    3.77
   2  -1 -15   64.62    3.09
   2  -1 -14   26.85    1.87
  -2   1  14   27.31    2.33
   2  -1 -14   24.67    1.42
   2  -1 -14   23.05    1.74
  -2   1  13   16.51    1.71
   2  -1 -13   16.09    1.12
   2  -1 -13   14.04    1.30
  -2   1  12  163.76    5.63
   2  -1 -12  161.28    4.38
   2  -1 -12  155.19    4.94
  -2   1  11   60.50    3.08
   2  -1 -11   64.43    2.43
   2  -1 -11   60.02    2.74
  -2   1  10   66.17    3.06
   2  -1 -10   73.08    3.17
   2  -1 -10   67.81    2.47
   2  -1 -10   67.68    2.81
  -2   1   9   14.83    1.32
   2  -1  -9   13.10    1.25
   2  -1  -9   14.13    1.06
   2  -1  -9   13.00    1.16
  -2   1   8  299.88    7.20
   2  -1  -8  299.00    7.17
   2  -1  -8  291.72    6.48
   2  -1  -8  285.75    6.89
  -2   1   7  244.51    5.96
   2  -1  -7  239.10    5.91
   2  -1  -7  238.39    5.46
   2  -1  -7  220.17    5.68
   2  -1  -6  213.02    5.20
  -2   1   6  216.38    5.25
  -2   1   6  204.79    4.96
   2  -1  -6  206.05    4.86
   2  -1  -6  200.35    5.12
   2  -1  -5  124.53    3.52
   2  -1  -5  122.06    3.39
  -2   1   5  119.47    3.40
  -2   1   5  115.23    3.26
   2  -1  -5  120.26    3.25
   2  -1  -5  116.10    3.41
   2  -1  -4  167.66    4.11
   2  -1  -4  157.33    3.94
  -2   1   4  163.81    3.98
   2  -1  -4  164.95    3.97
   2  -1  -4  159.96    4.11
   2  -1  -3   23.96    1.17
   2  -1  -3   22.82    1.13
  -2   1   3   23.12    1.14
   2  -1  -3   20.94    1.06
  -2   1   2   14.73    0.82
   2  -1  -2   14.54    0.84
   2  -1  -2   13.87    0.84
  -2   1   2   14.51    0.85
  -2   1   1   69.13    2.01
   2  -1  -1   66.97    1.97
   2  -1   0   95.39    2.40
  -2   1   0   95.36    2.43
   2  -1   1   -0.15    0.21
  -2   1  -1    0.37    0.17
   2  -1   2    0.06    0.14
  -2   1  -2    0.06    0.13
   2  -1   3    3.68    0.48
   2  -1   3    3.00    0.28
   2  -1   4    1.98    0.33
   2  -1   4    2.08    0.22
   2  -1   4    2.06    0.19
   2  -1   5   17.05    1.15
  -2   1  -5   16.66    1.15
   2  -1   5   15.43    0.57
   2  -1   5   15.83    0.58
  -2   1  -6    0.05    0.20
   2  -1   6   -0.16    0.27
   2  -1   6    0.16    0.10
   2  -1   7   47.34    2.19
  -2   1  -7   46.85    2.24
   2  -1   7   41.74    1.20
   2  -1   8    4.87    1.05
  -2   1  -8    2.59    0.84
   2  -1   9   77.78    3.25
  -2   1  -9   80.89    3.42
  -2   1 -10   60.83    3.04
   2  -1  10   61.46    2.97
   2  -1  11    1.29    0.54
   2  -1  12    0.99    0.41
   2  -1  13   15.17    1.69
   2  -1  14   21.16    2.06
   2  -1  15    5.46    1.19
   2  -1  16   28.07    2.61
  -2   0  17   16.49    2.17
  -2   0  16   12.67    1.84
  -2   0  15    2.75    0.84
   2   0 -15    3.14    0.66
  -2   0  14  139.93    5.62
   2   0 -14  137.99    3.82
   2   0 -14  131.90    4.44
  -2   0  13   19.55    1.89
   2   0 -13   20.95    1.28
   2   0 -13   19.20    1.48
  -2   0  12   84.54    3.88
   2   0 -12   85.79    2.82
   2   0 -12   80.58    3.21
  -2   0  11   59.82    3.05
   2   0 -11   60.81    2.29
   2   0 -11   58.78    2.57
   2   0 -10  235.37    6.57
  -2   0  10  229.75    6.50
   2   0 -10  230.27    5.39
   2   0 -10  213.69    5.75
  -2   0   9   11.87    1.29
   2   0  -9   12.25    1.32
   2   0  -9   26.62    1.54
   2   0  -9   14.15    1.45
  -2   0   8  101.61    3.57
   2   0  -8  105.64    3.59
   2   0  -8   80.36    2.64
  -2   0   8   80.41    2.76
   2   0  -8   81.29    2.93
  -2   0   7  529.42   11.00
   2   0  -7  534.29   11.02
  -2   0   7  537.87   10.49
   2   0  -7  528.73   10.28
   2   0  -7  522.28   10.69
  -2   0   6  463.89    9.61
   2   0  -6  456.07    9.56
   2   0  -6  466.47    9.11
  -2   0   6  466.94    9.21
   2   0  -5  135.57    3.71
  -2   0   5  135.74    3.73
  -2   0   5  136.19    3.52
   2   0  -5  136.76    3.45
  -2   0   4    6.83    0.66
   2   0  -4    5.98    0.60
  -2   0   4    6.98    0.62
   2   0  -4    6.17    0.56
   2   0  -3  395.60    7.62
   2   0  -3  375.92    7.56
   2   0  -3  383.31    7.47
  -2   0   3  386.99    7.52
  -2   0   2    6.32    0.52
   2   0  -2    5.78    0.50
  -2   0   2    5.80    0.51
   2   0  -2    5.77    0.51
  -2   0   1  256.59    5.14
  -2   0   1  259.92    5.23
   2   0  -1  263.10    5.21
   2   0   0   31.90    1.14
  -2   0   0   31.24    1.12
  -2   0  -1  195.41    4.02
   2   0   1  204.36    4.03
   2   0   2    2.12    0.24
  -2   0  -2    1.99    0.24
   2   0   3   15.27    0.89
  -2   0  -3   15.27    0.62
   2   0   3   15.79    0.62
   2   0   4   21.25    1.15
   2   0   4   20.81    0.67
  -2   0  -4   20.17    0.68
   2   0   4   20.25    0.85
   2   0   5   51.97    2.00
  -2   0  -5   49.43    2.02
   2   0   5   49.90    1.52
   2   0   5   49.47    1.51
   2   0   6    5.08    0.63
  -2   0  -6    5.47    0.69
   2   0   6    4.39    0.42
   2   0   6    5.03    0.45
   2   0   7    3.64    0.61
  -2   0  -7    3.10    0.56
   2   0   7    3.52    0.41
   2   0   8    1.98    0.50
  -2   0  -8    1.74    0.51
   2   0   8    0.92    0.24
   2   0   9    0.66    0.39
  -2   0  -9    0.70    0.34
   2   0   9    0.41    0.22
  -2   0 -10   14.35    1.40
   2   0  10   11.85    1.26
   2   0  10   11.02    0.82
   2   0  11   28.67    2.03
   2   0  12   20.17    1.78
   2   0  13    0.01    0.49
   2   0  14   56.47    3.37
   2   0  15   -0.59    0.55
   2   0  16   22.86    2.33
   2   0  17   17.30    2.13
  -2  -1  16   14.23    1.90
   2   1 -15    0.20    0.29
  -2  -1  15   -0.67    0.60
  -2  -1  14    3.01    0.82
   2   1 -14    2.04    0.46
  -2  -1  13   68.65    3.65
   2   1 -13   70.65    2.51
   2   1 -13   65.54    2.80
  -2  -1  12  116.66    4.67
  -2  -1  12  110.78    3.54
   2   1 -12  119.62    3.46
   2   1 -12  103.52    3.64
  -2  -1  11   40.76    2.52
   2   1 -11   42.87    1.89
  -2  -1  11   43.38    1.99
   2   1 -11   38.12    1.97
  -2  -1  10    5.72    0.91
   2   1 -10    4.76    0.86
   2   1 -10    5.31    0.64
  -2  -1  10    5.06    0.65
   2   1 -10    5.63    0.73
  -2  -1   9  488.04   10.82
   2   1  -9  491.84   10.88
   2   1  -9  479.64    9.63
  -2  -1   9  481.67    9.82
   2   1  -9  475.94   10.07
  -2  -1   8   53.23    2.58
   2   1  -8   53.35    2.58
   2   1  -7  248.88    5.60
  -2  -1   7  249.26    5.69
  -2  -1   7  256.72    6.30
   2   1  -7  249.06    6.22
  -2  -1   6  414.92    8.45
   2   1  -6  417.20    8.36
  -2  -1   6  422.63    8.95
   2   1  -6  424.79    8.94
   2   1  -5  330.60    6.74
  -2  -1   5  323.18    6.73
  -2  -1   5  327.54    7.08
   2   1  -5  318.28    7.03
   2   1  -4    7.01    0.63
  -2  -1   4    6.66    0.60
  -2  -1   4    7.83    0.69
   2   1  -4    7.44    0.67
   2   1  -3  652.72   11.76
  -2  -1   3  643.85   11.81
   2   1  -3  641.64   11.78
   2   1  -3  631.52   11.81
   2   1  -2   49.83    1.54
  -2  -1   2   48.51    1.65
   2   1  -2   48.66    1.64
   2   1  -2   46.95    1.58
  -2  -1   1  957.05   16.55
   2   1  -1  979.94   16.89
  -2  -1   1  957.76   16.88
   2   1   0   43.59    1.44
  -2  -1   0   40.05    1.40
   2   1   1  136.12    3.06
  -2  -1  -1  126.35    2.99
  -2  -1  -2  164.35    3.53
   2   1   2  166.14    3.53
   2   1   3    5.76    0.51
   2   1   3    6.57    0.55
  -2  -1  -3    6.60    0.46
   2   1   3    6.29    0.45
   2   1   4   45.75    1.68
  -2  -1  -4   45.48    1.35
   2   1   4   44.66    1.58
   2   1   5    6.46    0.58
   2   1   5    7.01    0.67
  -2  -1  -5    6.86    0.44
   2   1   5    6.74    0.60
  -2  -1  -6  290.57    6.52
   2   1   6  277.49    6.01
   2   1   6  290.82    6.44
  -2  -1  -6  279.11    5.27
   2   1   6  285.23    6.03
  -2  -1  -7   27.17    1.58
   2   1   7   24.03    1.27
   2   1   7   25.65    1.51
  -2  -1  -7   26.34    0.84
   2   1   7   25.02    1.28
  -2  -1  -7   25.94    1.26
   2   1   8    0.68    0.34
  -2  -1  -8    0.99    0.25
  -2  -1  -8    0.91    0.33
   2   1   8    1.13    0.35
  -2  -1  -8    0.91    0.12
  -2  -1  -8    0.79    0.12
  -2  -1  -9   41.26    2.28
   2   1   9   41.69    2.21
   2   1   9   43.81    1.92
  -2  -1  -9   41.99    1.75
  -2  -1 -10   53.87    2.74
   2   1  10   47.74    2.49
   2   1  10   45.65    2.03
  -2  -1 -10   46.54    1.94
   2   1  11   19.05    1.63
   2   1  11   16.90    1.23
   2   1  12   15.93    1.57
   2   1  12   13.81    1.17
   2   1  13   18.42    1.78
   2   1  14    2.21    0.69
   2   1  15   21.73    2.15
   2   1  16    9.04    1.43
   2   1  17    0.75    0.68
  -2  -2  16    1.22    0.48
  -2  -2  15   -0.38    0.48
  -2  -2  14   -0.55    0.60
   2   2 -14   -0.19    0.23
  -2  -2  13    1.86    0.66
   2   2 -13    2.15    0.46
   2   2 -13    1.60    0.35
  -2  -2  13    1.78    0.39
  -2  -2  12    0.25    0.48
   2   2 -12    0.76    0.31
   2   2 -12    0.58    0.32
  -2  -2  12    0.47    0.28
  -2  -2  11   33.65    2.32
   2   2 -11   33.15    1.67
  -2  -2  11   34.22    1.79
   2   2 -11   32.00    1.79
  -2  -2  10    4.62    0.83
   2   2 -10    4.67    0.61
   2   2 -10    4.85    0.71
  -2  -2  10    5.45    0.69
   2   2  -9   41.06    1.88
  -2  -2   9   53.81    2.20
  -2  -2   9   34.41    2.19
   2   2  -9   34.32    2.23
  -2  -2   8   77.08    2.64
   2   2  -8   79.21    2.65
  -2  -2   8   81.26    3.22
   2   2  -8   84.36    3.27
  -2  -2   7  367.56    7.74
   2   2  -7  362.02    7.67
  -2  -2   7  365.30    8.33
   2   2  -7  368.63    8.33
  -2  -2   6   25.82    1.35
   2   2  -6   24.57    1.32
  -2  -2   6   28.68    1.60
   2   2  -6   27.34    1.56
  -2  -2   5   18.99    1.12
   2   2  -5   17.93    1.07
  -2  -2   5   19.13    1.20
   2   2  -5   16.54    1.12
   2   2  -4  532.37   10.18
  -2  -2   4  533.17   10.18
  -2  -2   4  526.14   10.26
   2   2  -4  516.62   10.20
  -2  -2   3  587.85   11.07
   2   2  -3  588.17   11.07
   2   2  -3  577.18   10.93
  -2  -2   3  590.34   10.98
   2   2  -2  565.22   10.11
   2   2  -2  551.93   10.29
   2   2  -2  573.22   10.64
  -2  -2   2  563.48   10.61
  -2  -2   1  889.56   16.04
   2   2  -1  904.66   16.06
   2   2   0 9999.00  164.44
  -2  -2   0 9980.26  164.44
  -2  -2  -1  330.96    6.83
   2   2   1  360.48    6.93
  -2  -2  -2  644.40   11.83
   2   2   2  648.88   11.82
   2   2   2  650.20   12.04
   2   2   3  198.71    4.18
  -2  -2  -3  193.17    4.31
   2   2   3  200.15    4.60
   2   2   4  501.59    9.88
   2   2   4  508.46    9.49
  -2  -2  -4  502.94    9.42
   2   2   4  505.55    9.87
   2   2   5    0.50    0.30
   2   2   5    0.07    0.21
  -2  -2  -5    0.34    0.22
   2   2   5    0.29    0.22
  -2  -2  -5    0.17    0.18
   2   2   6   39.66    1.78
   2   2   6   41.21    1.75
  -2  -2  -6   39.68    1.42
   2   2   6   39.46    1.79
  -2  -2  -6   39.71    1.75
  -2  -2  -7  268.66    6.37
   2   2   7  261.08    6.22
   2   2   7  272.42    6.25
  -2  -2  -7  265.91    5.41
   2   2   7  264.53    6.22
  -2  -2  -7  268.78    6.15
  -2  -2  -8  127.94    4.05
   2   2   8  132.90    4.01
  -2  -2  -8  128.30    3.03
   2   2   8  125.99    3.85
  -2  -2  -8  130.80    3.77
  -2  -2  -9   14.41    1.34
   2   2   9   14.43    1.25
  -2  -2  -9   14.79    0.75
   2   2   9   14.22    1.22
  -2  -2  -9   13.55    1.09
  -2  -2 -10    5.33    0.71
  -2  -2 -10    4.63    0.78
   2   2  10    4.67    0.78
  -2  -2 -10    5.27    0.43
  -2  -2 -10    5.19    0.37
   2   2  10    8.56    0.90
   2   2  11   81.67    3.47
  -2  -2 -11   80.02    3.55
   2   2  11   78.52    3.13
  -2  -2 -11   79.84    2.98
   2   2  12   10.47    1.28
  -2  -2 -12   10.50    1.03
   2   2  12    9.43    1.07
   2   2  13    2.52    0.58
   2   2  13    2.79    0.65
   2   2  14    9.59    1.34
   2   2  14    9.12    1.12
   2   2  15   11.44    1.57
   2   2  16    0.57    0.47
   2   2  17    2.16    0.71
  -2  -3  16    0.29    0.46
  -2  -3  15    3.80    0.94
  -2  -3  14   11.71    1.58
  -2  -3  13    2.19    0.82
   2   3 -13    2.19    0.52
   2   3 -13    1.32    0.38
  -2  -3  13    3.04    0.58
  -2  -3  12   -0.54    0.57
   2   3 -12   -0.27    0.25
   2   3 -12    0.23    0.27
  -2  -3  12   -0.41    0.29
  -2  -3  11    0.54    0.47
   2   3 -11    1.22    0.40
  -2  -3  11    0.96    0.33
   2   3 -11    0.08    0.24
  -2  -3  10   -0.81    0.43
   2   3 -10    0.23    0.32
  -2  -3  10    0.11    0.31
   2   3  -9    5.08    0.85
  -2  -3   9    4.55    0.80
   2   3  -9    4.96    0.67
  -2  -3   9    5.24    0.67
   2   3  -8   26.62    1.52
  -2  -3   8   23.88    1.44
  -2  -3   8   25.66    1.75
   2   3  -8   27.52    1.82
  -2  -3   7    2.10    0.47
   2   3  -7    2.19    0.51
   2   3  -7    2.67    0.54
  -2  -3   7    2.43    0.55
   2   3  -6   74.53    2.62
  -2  -3   6   73.42    2.61
  -2  -3   6   77.84    2.85
   2   3  -6   78.04    2.84
   2   3  -5    8.19    0.80
  -2  -3   5    8.79    0.82
  -2  -3   5    8.30    0.81
   2   3  -5    7.87    0.79
  -2  -3   4   83.30    2.72
   2   3  -4   83.67    2.74
  -2  -3   4   86.83    2.69
   2   3  -4   83.57    2.65
   2   3  -3    1.29    0.35
  -2  -3   3    1.42    0.35
  -2  -3   3    1.48    0.31
   2   3  -3    1.24    0.26
   2   3  -2   95.73    2.29
   2   3  -2   93.78    2.50
  -2  -3   2   98.80    2.94
   2   3  -2   96.24    2.90
   2   3  -1   69.38    1.89
  -2  -3   1   75.50    2.44
   2   3  -1   74.35    2.49
   2   3   0  140.57    2.95
  -2  -3   0  143.06    3.72
   2   3   0  142.30    3.71
   2   3   0  138.83    3.70
  -2  -3  -1  191.19    4.61
   2   3   1  198.59    4.76
  -2  -3  -2   38.60    1.62
   2   3   2   36.59    1.68
   2   3   3  241.83    4.77
  -2  -3  -3  244.46    5.46
   2   3   3  246.12    5.72
   2   3   4    3.33    0.55
   2   3   4    3.47    0.57
  -2  -3  -4    2.74    0.50
   2   3   4    2.66    0.33
  -2  -3  -4    3.34    0.48
   2   3   5   94.99    3.19
   2   3   5   97.48    2.67
  -2  -3  -5   98.28    2.85
  -2  -3  -5   99.47    3.21
   2   3   5   95.62    3.18
   2   3   6  209.08    5.41
   2   3   6  207.32    4.81
  -2  -3  -6  203.79    4.78
   2   3   6  206.46    5.38
  -2  -3  -6  204.79    5.30
   2   3   7  155.72    4.56
   2   3   7  154.88    4.12
  -2  -3  -7  155.26    3.88
   2   3   7  147.98    4.46
  -2  -3  -7  158.29    4.48
   2   3   8    2.43    0.73
  -2  -3  -8    2.06    0.59
  -2  -3  -8    2.89    0.63
   2   3   8    2.62    0.61
  -2  -3  -8    3.43    0.62
  -2  -3  -9  240.18    6.30
   2   3   9  242.38    6.14
  -2  -3  -9  235.35    5.27
   2   3   9  238.34    6.40
  -2  -3  -9  237.80    6.21
  -2  -3 -10    0.59    0.36
  -2  -3 -10    0.58    0.37
   2   3  10    0.55    0.44
  -2  -3 -10   -0.01    0.19
   2   3  10   -0.25    0.30
  -2  -3 -11   35.37    2.25
   2   3  11   39.27    2.24
  -2  -3 -11   37.48    1.43
  -2  -3 -11   34.35    1.47
   2   3  11   35.58    2.20
  -2  -3 -11   33.76    2.01
   2   3  12   39.74    2.41
  -2  -3 -12   39.49    1.36
   2   3  12   35.98    2.26
  -2  -3 -12   37.18    2.18
   2   3  13   39.71    2.53
   2   3  13   33.27    2.28
   2   3  14    1.45    0.64
   2   3  14    1.94    0.56
   2   3  15    0.27    0.43
   2   3  16    5.47    1.10
   2   3  17    2.45    0.78
  -2  -4  16   37.88    3.25
  -2  -4  15   14.12    1.88
  -2  -4  14    8.44    1.45
  -2  -4  13   10.50    1.43
  -2  -4  12   56.20    3.27
  -2  -4  12   58.55    2.63
  -2  -4  11    0.23    0.47
  -2  -4  11    0.04    0.26
  -2  -4  10    0.99    0.36
  -2  -4  10    0.38    0.34
   2   4 -10    0.74    0.36
  -2  -4   9   12.63    1.35
   2   4  -9   15.06    1.45
   2   4  -9   13.45    1.17
  -2  -4   9   17.13    1.32
  -2  -4   8   36.64    2.15
   2   4  -8   39.26    2.22
  -2  -4   8   38.68    1.96
   2   4  -8   39.51    1.97
   2   4  -7   16.58    1.32
  -2  -4   7   14.57    1.25
  -2  -4   7   16.21    1.24
   2   4  -7   14.98    1.18
  -2  -4   6   20.88    1.41
   2   4  -6   19.75    1.37
   2   4  -6   19.01    1.32
  -2  -4   6   20.68    1.37
  -2  -4   5   35.07    1.75
   2   4  -5   35.21    1.75
  -2  -4   5   38.02    1.86
   2   4  -5   35.30    1.80
  -2  -4   4   60.78    2.23
   2   4  -4   59.26    2.19
  -2  -4   4   63.90    2.48
   2   4  -4   60.87    2.42
  -2  -4   3   85.41    2.55
   2   4  -3   82.42    2.48
   2   4  -3   83.00    2.89
  -2  -4   3   87.21    2.95
   2   4  -2  106.92    2.45
   2   4  -2  108.57    2.78
  -2  -4   2  112.33    3.43
   2   4  -2  111.81    3.30
   2   4  -1    4.63    0.78
   2   4  -1    3.69    0.38
  -2  -4   1    3.79    0.63
   2   4   0  146.84    3.06
  -2  -4   0  158.74    4.23
   2   4   0  156.90    4.22
   2   4   1  116.59    2.33
  -2  -4  -1  120.48    3.54
   2   4   1  117.38    3.56
   2   4   2  224.89    4.13
  -2  -4  -2  232.81    5.54
   2   4   2  230.22    5.66
   2   4   3   15.77    1.22
   2   4   3   15.19    0.62
  -2  -4  -3   15.20    1.10
   2   4   3   15.67    1.20
   2   4   4   33.86    1.85
   2   4   4   32.32    1.11
  -2  -4  -4   32.39    1.64
  -2  -4  -4   32.85    1.81
   2   4   4   33.03    1.81
   2   4   5  334.19    7.95
   2   4   5  340.08    6.61
  -2  -4  -5  331.69    7.41
   2   4   5  342.63    7.98
  -2  -4  -5  342.46    7.91
   2   4   6    3.53    0.65
  -2  -4  -6    3.78    0.66
   2   4   6    3.46    0.65
   2   4   6    3.77    0.48
  -2  -4  -6    4.25    0.58
   2   4   7   39.07    2.17
   2   4   7   37.24    1.64
  -2  -4  -7   36.69    1.75
   2   4   7   37.31    2.12
  -2  -4  -7   36.26    2.03
   2   4   8  136.42    3.85
  -2  -4  -8  131.27    3.81
  -2  -4  -8  131.74    4.39
   2   4   8  136.71    4.56
   2   4   9   59.80    2.47
  -2  -4  -9   58.71    2.30
   2   4   9   62.98    2.99
  -2  -4  -9   60.95    2.85
   2   4  10   28.62    1.77
  -2  -4 -10   27.89    1.49
   2   4  10   27.99    2.05
  -2  -4 -10   29.53    1.97
  -2  -4 -11    5.19    0.89
   2   4  11    4.87    0.78
  -2  -4 -11    5.82    0.66
   2   4  11    5.41    0.94
   2   4  12   89.28    3.66
  -2  -4 -12   79.19    2.75
   2   4  12   84.51    3.84
   2   4  13    1.49    0.63
   2   4  13    1.16    0.54
   2   4  14   33.53    2.37
   2   4  14   29.90    2.33
   2   4  15    3.79    0.85
  -2  -5  15   15.14    1.97
  -2  -5  14   57.11    3.63
  -2  -5  13    0.97    0.63
  -2  -5  12    9.18    1.35
  -2  -5  12    7.09    0.93
  -2  -5  11    8.36    1.22
  -2  -5  11    7.88    0.95
  -2  -5  10  122.97    4.69
  -2  -5  10  119.82    4.11
  -2  -5   9    3.24    0.68
  -2  -5   9    3.76    0.65
  -2  -5   8   13.35    1.38
   2   5  -8   15.10    1.48
  -2  -5   8   12.93    1.21
  -2  -5   7  155.08    4.77
   2   5  -7  157.10    4.80
  -2  -5   7  155.24    4.68
  -2  -5   6   50.91    2.32
   2   5  -6   46.79    2.23
  -2  -5   6   50.20    2.37
  -2  -5   5   20.16    1.34
   2   5  -5   19.01    1.27
  -2  -5   5   19.67    1.44
  -2  -5   4   89.45    2.87
   2   5  -4   84.98    2.79
  -2  -5   4   91.54    3.28
   2   5  -4   92.33    3.07
  -2  -5   3   83.60    2.56
   2   5  -3   78.17    2.47
  -2  -5   3   85.08    3.13
   2   5  -3   85.55    2.96
   2   5  -2   54.34    1.43
   2   5  -2   49.26    1.70
  -2  -5   2   54.22    2.41
   2   5  -2   52.73    2.26
   2   5  -1   57.32    1.67
  -2  -5   1   62.39    2.58
   2   5  -1   62.73    2.53
   2   5   0   16.52    0.64
  -2  -5   0   18.25    1.35
   2   5   0   18.45    1.33
  -2  -5  -1   48.70    2.26
   2   5   1   53.29    2.38
   2   5   2  214.87    5.80
  -2  -5  -2  213.27    5.58
   2   5   2  211.27    5.71
  -2  -5  -3   29.85    1.00
   2   5   3   30.10    1.84
  -2  -5  -3   28.99    1.71
   2   5   3   30.95    1.84
  -2  -5  -3   30.22    1.83
   2   5   4    4.04    0.71
  -2  -5  -4    5.19    0.81
   2   5   4    4.11    0.69
  -2  -5  -4    4.95    0.69
   2   5   4    3.93    0.28
   2   5   5    4.05    0.78
   2   5   5    1.98    0.50
  -2  -5  -5    3.26    0.67
   2   5   5    2.97    0.32
  -2  -5  -5    3.58    0.58
   2   5   6  267.03    7.16
   2   5   6  267.41    5.48
  -2  -5  -6  259.48    6.54
  -2  -5  -6  264.82    7.04
   2   5   6  268.07    7.11
   2   5   7    5.90    0.89
   2   5   7    6.55    0.97
  -2  -5  -7    6.30    0.92
   2   5   7    6.56    0.64
  -2  -5  -7    7.11    0.82
   2   5   8   21.56    1.26
  -2  -5  -8   21.99    1.49
   2   5   8   20.00    1.74
  -2  -5  -8   22.71    1.76
   2   5   9   16.07    1.22
  -2  -5  -9   13.75    1.27
   2   5   9   18.29    1.82
   2   5  10   94.72    3.28
  -2  -5 -10   86.08    3.17
   2   5  10   86.85    3.95
   2   5  11   -0.34    0.28
   2   5  11   -0.03    0.39
   2   5  12   14.34    1.37
   2   5  12   13.26    1.55
   2   5  13   23.98    1.84
   2   5  13   21.98    2.08
   2   5  14   39.40    2.82
  -2  -6  15   28.03    2.69
  -2  -6  14    1.41    0.63
  -2  -6  13   61.31    3.68
  -2  -6  12   17.47    1.85
  -2  -6  12   16.73    1.52
   2   6 -12   15.75    1.18
  -2  -6  11   40.08    2.70
  -2  -6  11   38.54    2.30
   2   6 -11   39.17    1.94
   2   6 -10    3.62    0.59
  -2  -6  10    4.83    0.96
  -2  -6  10    2.82    0.64
  -2  -6   9  241.66    6.99
  -2  -6   9  241.13    6.66
   2   6  -9  244.09    6.09
   2   6  -8    5.19    0.74
   2   6  -8    6.98    0.98
  -2  -6   8    5.12    0.84
  -2  -6   8    4.25    0.73
  -2  -6   7   48.55    2.46
   2   6  -7   49.46    2.46
  -2  -6   7   49.97    2.54
   2   6  -7   46.87    2.21
  -2  -6   6  182.45    5.15
   2   6  -6  178.24    5.10
  -2  -6   6  189.42    5.52
   2   6  -6  182.52    5.04
  -2  -6   5   58.95    2.43
   2   6  -5   56.26    2.38
  -2  -6   5   61.09    2.80
   2   6  -5   59.75    2.53
   2   6  -4    1.12    0.36
  -2  -6   4    1.28    0.47
   2   6  -4    0.37    0.21
  -2  -6   4    0.89    0.31
   2   6  -3   -0.12    0.31
   2   6  -3    0.45    0.23
  -2  -6   3    0.01    0.25
  -2  -6   3    0.02    0.24
   2   6  -2   81.60    1.85
   2   6  -2   79.85    2.32
  -2  -6   2   85.47    3.32
   2   6  -2   76.93    3.04
   2   6  -1   31.01    1.14
  -2  -6   1   33.35    1.98
   2   6  -1   34.54    1.97
   2   6   0   -0.14    0.30
   2   6   0    0.11    0.09
  -2  -6   0    0.21    0.26
   2   6   1   55.90    2.66
  -2  -6  -1   53.62    2.55
   2   6   1   53.94    2.59
   2   6   2   67.03    3.01
  -2  -6  -2   69.74    2.96
   2   6   2   70.10    3.05
   2   6   3    1.16    0.47
   2   6   3    1.70    0.57
  -2  -6  -3    0.91    0.37
   2   6   4    2.52    0.53
   2   6   4    2.07    0.52
  -2  -6  -4    2.88    0.33
  -2  -6  -4    2.26    0.61
  -2  -6  -4    2.46    0.55
   2   6   5   13.71    1.40
   2   6   5   12.92    1.36
  -2  -6  -5   12.16    0.82
  -2  -6  -5   13.16    1.25
  -2  -6  -5   11.27    1.25
   2   6   6    0.22    0.46
  -2  -6  -6    0.27    0.30
   2   6   7   12.28    1.39
   2   6   7   15.24    0.85
  -2  -6  -7   14.85    1.33
   2   6   8   72.05    2.31
  -2  -6  -8   68.78    3.01
   2   6   8   69.45    3.50
   2   6   9    0.64    0.54
  -2  -6  -9    0.51    0.35
   2   6   9    0.40    0.32
   2   6  10    2.64    0.74
   2   6  10    3.22    0.60
  -2  -6 -10    3.59    0.70
   2   6  11   36.57    1.96
   2   6  11   33.08    2.55
   2   6  12   13.35    1.71
   2   6  13   -0.31    0.78
   2   6  14    0.19    0.60
  -2  -7  14   13.37    1.83
  -2  -7  13   42.28    3.11
  -2  -7  12   -0.43    0.57
   2   7 -12    1.07    0.35
  -2  -7  11   45.11    2.94
   2   7 -11   50.27    2.33
  -2  -7  10   76.67    3.72
   2   7 -10   80.71    3.11
  -2  -7   9   47.89    2.81
   2   7  -9   51.22    2.47
  -2  -7   8   55.71    2.84
   2   7  -8   55.03    2.53
   2   7  -7    7.98    0.95
  -2  -7   7    9.28    1.09
   2   7  -7    8.46    1.04
  -2  -7   7    7.97    1.04
  -2  -7   6   73.02    2.97
   2   7  -6   69.81    2.91
  -2  -7   6   71.30    3.27
   2   7  -6   70.99    2.97
   2   7  -5    2.38    0.55
  -2  -7   5    2.35    0.50
   2   7  -5    2.23    0.47
  -2  -7   5    2.78    0.66
  -2  -7   4   46.58    2.03
   2   7  -4   44.41    1.97
  -2  -7   4   48.09    2.60
   2   7  -4   46.00    2.36
   2   7  -3    4.65    0.78
  -2  -7   3    5.18    0.57
   2   7  -3    4.50    0.57
  -2  -7   3    4.56    0.79
   2   7  -2   81.26    2.39
  -2  -7   2   85.92    3.59
   2   7  -2   86.54    3.41
   2   7  -1    9.74    1.11
   2   7  -1    9.42    1.10
   2   7  -1    8.29    0.55
  -2  -7   1    9.35    1.14
   2   7   0   46.25    2.52
  -2  -7   0   45.81    2.53
   2   7   0   44.18    2.46
   2   7   1    0.89    0.48
   2   7   1    0.58    0.42
  -2  -7  -1    0.34    0.35
   2   7   2    2.39    0.61
   2   7   2    3.39    0.75
  -2  -7  -2    2.56    0.69
   2   7   3   10.07    1.26
  -2  -7  -3    8.22    1.05
   2   7   4    2.50    0.67
  -2  -7  -4    3.12    0.67
   2   7   5    4.54    0.86
  -2  -7  -5    4.48    0.46
  -2  -7  -5    3.93    0.77
   2   7   6    0.81    0.61
  -2  -7  -6    0.14    0.20
  -2  -7  -6   -0.32    0.34
  -2  -7  -7   13.09    1.03
   2   7   7   11.08    1.42
   2   7   8   13.68    1.63
  -2  -7  -8   12.22    1.08
  -2  -7  -9    2.04    0.56
   2   7   9    1.38    0.75
  -2  -7 -10    1.06    0.45
   2   7  10    0.53    0.61
  -2  -7 -11    0.66    0.38
   2   7  11    1.45    0.68
  -2  -7 -12    2.31    0.66
   2   7  12    1.90    0.77
   2   7  13   10.94    1.66
   2   7  14    1.13    0.67
  -2  -8  14    0.05    0.66
  -2  -8  13   -0.24    0.54
  -2  -8  12   15.87    1.84
  -2  -8  11   22.66    2.09
   2   8 -11   23.12    1.63
  -2  -8  10   15.60    1.69
   2   8 -10   13.41    1.28
  -2  -8   9    4.36    0.95
   2   8  -9    3.77    0.73
  -2  -8   8   86.23    3.72
   2   8  -8   90.91    3.55
  -2  -8   7    0.01    0.33
   2   8  -7    2.23    0.60
   2   8  -7    1.56    0.50
  -2  -8   6   20.13    1.51
   2   8  -6   19.33    1.49
   2   8  -6   19.93    1.58
   2   8  -5    2.52    0.50
  -2  -8   5    2.05    0.50
   2   8  -5    1.63    0.54
  -2  -8   4  140.31    3.95
   2   8  -4  125.56    3.82
   2   8  -4  132.09    4.59
   2   8  -3    5.89    0.63
   2   8  -3    6.85    0.98
   2   8  -3    4.67    0.80
   2   8  -2   32.77    1.39
   2   8  -2   34.45    2.23
   2   8  -1   73.79    3.41
   2   8   0   50.87    2.82
   2   8   1   24.72    1.99
   2   8   2    1.75    0.65
   2   8   3   76.22    3.69
   2   8   4    5.15    0.99
   2   8   5    5.73    1.05
   2   8   6    7.10    1.17
  -2  -8  -7   18.56    1.16
   2   8   7   18.23    1.90
  -2  -8  -8    2.11    0.47
   2   8   8    2.15    0.76
   2   8   9    0.40    0.55
  -2  -8  -9    2.03    0.58
   2   8  10    5.45    1.29
   2   8  11    5.26    1.17
   2   8  12   -1.77    0.96
   2   8  13    0.46    0.47
  -2  -9  13    0.01    0.55
  -2  -9  12    3.86    0.97
  -2  -9  11    8.16    1.35
   2   9 -11    7.50    0.97
  -2  -9  10    2.85    0.83
   2   9 -10    2.11    0.64
  -2  -9   9    8.18    1.26
   2   9  -9    8.06    1.11
  -2  -9   8    2.46    0.71
   2   9  -8    2.37    0.80
  -2  -9   7   31.58    2.08
   2   9  -7   30.05    2.05
   2   9  -7   33.64    2.23
  -2  -9   6   10.29    1.12
   2   9  -6    8.25    0.99
   2   9  -6    9.50    1.21
  -2  -9   5   11.27    1.08
   2   9  -5   10.46    1.04
   2   9  -5   11.58    1.33
  -2  -9   4    0.49    0.25
   2   9  -4    0.78    0.33
   2   9  -4    0.16    0.37
   2   9  -3   57.29    1.35
   2   9  -3   63.40    2.26
   2   9  -3   70.74    3.37
   2   9  -2   22.73    1.91
   2   9  -1   24.38    2.12
   2   9   0    5.76    1.02
   2   9   1  229.08    7.23
   2   9   2    4.67    0.99
   2   9   3    3.94    0.96
   2   9   4   57.44    3.39
   2   9   5   54.48    3.37
   2   9   6    3.95    1.01
   2   9   7    0.23    0.49
   2   9   8   25.48    2.47
   2   9   9    4.04    1.12
   2   9  10    0.89    0.75
   2   9  11    1.60    0.76
  -2 -10  13    1.41    0.82
  -2 -10  12    0.65    0.54
  -2 -10  11   12.00    1.61
  -2 -10  10    8.23    1.33
   2  10 -10    8.98    1.19
  -2 -10   9    2.13    0.73
   2  10  -9    0.48    0.53
  -2 -10   8    3.01    0.74
   2  10  -8    2.15    0.64
  -2 -10   7    2.28    0.60
   2  10  -7    2.13    0.65
  -2 -10   6   24.87    1.76
   2  10  -6   23.28    1.98
  -2 -10   5   50.74    2.38
   2  10  -5   49.26    2.94
   2  10  -4    1.21    0.58
   2  10  -3    0.61    0.49
   2  10  -2   47.15    2.95
   2  10  -1   52.73    3.20
   2  10   0    0.70    0.56
   2  10   1    2.49    0.91
   2  10   2   93.88    4.55
   2  10   3   13.09    1.70
   2  10   4    2.73    0.85
   2  10   5    6.33    1.24
   2  10   6   24.59    2.42
   2  10   7   11.83    1.77
   2  10   8   13.07    1.84
   2  10   9   11.72    1.95
  -2 -11  12   -0.76    0.69
  -2 -11  11    0.83    0.52
  -2 -11  10    7.78    1.28
  -2 -11   9    1.63    0.73
   2  11  -9    0.86    0.60
  -2 -11   8    1.06    0.56
   2  11  -8    0.96    0.70
  -2 -11   7    0.25    0.38
   2  11  -7    1.00    0.54
  -2 -11   6    7.38    0.98
   2  11  -6    8.30    1.30
   2  11  -5    6.10    1.10
   2  11  -4   13.63    1.65
   2  11  -3    6.82    1.25
   2  11  -2    0.63    0.46
   2  11  -1   12.25    1.60
   2  11   0   36.33    2.84
   2  11   1    3.14    0.89
   2  11   2    6.18    1.27
   2  11   3    3.59    0.97
   2  11   4   27.16    2.60
   2  11   5    2.55    0.87
   2  11   6    3.46    1.10
   2  12  -8    5.11    1.10
   2  12  -7    0.35    0.45
   2  12  -6    8.67    1.38
   2  12  -5   -0.40    0.71
   2  12  -4    6.58    1.28
   2  12  -3    2.92    0.95
   2  12  -2    3.18    0.93
   2  12  -1    0.32    0.62
   2  12   0   -0.89    0.67
   2  12   1    0.69    0.70
   2  12   2    0.47    0.54
   2  12   3    0.15    0.65
   2  13  -7    0.32    0.52
   2  13  -6    0.65    0.69
   2  13  -5   28.55    2.62
   2  13  -4    1.13    0.83
   2  13  -3   -0.73    0.76
   2  13  -2    5.09    1.30
   2  13  -1    8.06    1.49
  -3  14   0   68.23    4.40
  -3  14  -1    5.95    1.28
  -3  14  -2    1.44    0.86
  -3  14  -3   33.46    2.89
  -3  14  -4   37.35    3.00
  -3  13   3    5.98    1.41
  -3  13   2    4.60    1.25
  -3  13   1    0.63    0.74
  -3  13   0    2.04    0.84
  -3  13  -1   33.15    2.85
  -3  13  -2    6.77    1.27
  -3  13  -3   14.12    1.83
  -3  13  -4    2.00    0.82
  -3  13  -5   33.24    2.62
  -3  13  -6    2.01    0.73
   3 -13   8   13.37    1.67
   3 -13   9   10.76    1.60
  -3  12   6    1.53    0.97
  -3  12   5    0.53    0.68
  -3  12   4    2.38    0.90
  -3  12   3   10.41    1.68
  -3  12   2    5.74    1.20
  -3  12   1    3.69    0.96
  -3  12   0    2.38    0.97
  -3  12  -1    5.06    1.09
   3 -12   2   -0.01    0.28
  -3  12  -2    0.73    0.57
   3 -12   3   24.00    1.73
  -3  12  -3   22.56    2.13
   3 -12   4    1.97    0.60
  -3  12  -4    2.58    0.71
   3 -12   5   11.07    1.28
  -3  12  -5   11.20    1.46
   3 -12   6    7.06    1.13
  -3  12  -6    6.79    1.12
   3 -12   7   21.10    1.97
   3 -12   8   15.29    1.75
   3 -12   9    5.01    1.18
   3 -12  10   10.97    1.56
   3 -12  11    0.09    0.53
   3 -11 -11    9.53    1.77
   3 -11  -8    4.32    1.21
  -3  11   8    4.41    1.24
   3 -11  -7   22.59    2.37
  -3  11   7   22.56    2.55
   3 -11  -6    1.45    0.83
  -3  11   6    1.15    0.72
   3 -11  -5    0.87    0.58
  -3  11   5    0.88    0.71
   3 -11  -4    6.64    1.32
  -3  11   4    7.01    1.33
   3 -11  -3    3.77    1.02
  -3  11   3    2.12    0.84
   3 -11  -2   20.66    1.23
  -3  11   2   18.71    2.03
   3 -11  -1   10.34    0.90
  -3  11   1    7.81    0.97
  -3  11   1   11.92    1.66
   3 -11   0    0.74    0.27
  -3  11   0    1.04    0.39
  -3  11   0    1.52    0.75
   3 -11   1    5.64    0.77
  -3  11  -1    5.23    1.09
   3 -11   2   21.17    1.54
  -3  11  -2   25.06    2.15
   3 -11   3    3.20    0.64
  -3  11  -3    4.33    0.89
   3 -11   4    4.40    0.81
  -3  11  -4    3.93    0.86
   3 -11   5    0.49    0.35
  -3  11  -5    0.39    0.49
   3 -11   6   10.75    1.33
  -3  11  -6   13.08    1.41
   3 -11   7    1.12    0.58
  -3  11  -7    0.24    0.40
   3 -11   8   28.22    2.33
   3 -11   9    0.39    0.54
   3 -11  10   22.81    2.26
   3 -11  11    6.34    1.23
   3 -10 -12    0.23    0.53
   3 -10 -11    5.20    1.15
   3 -10 -10   -0.27    0.67
  -3  10  10    2.30    1.10
   3 -10  -9   30.92    2.85
  -3  10   9   37.39    3.27
   3 -10  -8    1.76    0.87
  -3  10   8    2.98    0.92
   3 -10  -7   39.68    3.07
  -3  10   7   46.11    3.38
   3 -10  -6   14.78    1.86
  -3  10   6   14.17    1.83
   3 -10  -5    5.53    1.19
  -3  10   5    4.56    1.05
   3 -10  -4   41.44    1.78
   3 -10  -4   42.04    2.94
  -3  10   4   43.99    3.09
  -3  10   3    4.40    0.75
   3 -10  -3    2.83    0.79
  -3  10   3    5.13    1.11
  -3  10   2   10.78    1.14
   3 -10  -2   13.38    1.01
   3 -10  -2   11.89    1.54
  -3  10   2   12.95    1.60
   3 -10  -1    0.74    0.34
  -3  10   1    1.32    0.46
   3 -10  -1    0.81    0.59
  -3  10   1    1.33    0.64
   3 -10   0   14.88    1.18
   3 -10   0   16.02    1.67
  -3  10   0   18.18    1.81
   3 -10   1    2.19    0.50
  -3  10  -1    2.28    0.70
   3 -10   2    0.80    0.40
  -3  10  -2   -0.09    0.39
   3 -10   3    0.33    0.33
  -3  10  -3    1.16    0.59
   3 -10   4   12.83    1.29
   3 -10   4   11.62    1.23
  -3  10  -4   12.57    1.34
   3 -10   5    1.85    0.56
   3 -10   5    2.21    0.56
  -3  10  -5    3.42    0.77
   3 -10   6    0.13    0.41
  -3  10  -6    2.32    0.62
   3 -10   7    5.65    1.02
  -3  10  -7    4.62    0.77
   3 -10   8   16.28    1.73
  -3  10  -8   18.36    1.41
   3 -10   9    1.17    0.67
   3 -10  10    0.39    0.58
   3 -10  11   28.92    2.62
   3 -10  12    5.28    1.18
   3  -9 -13    6.67    1.37
   3  -9 -12   24.81    2.56
   3  -9 -12   26.14    2.52
  -3   9  12   29.73    3.01
   3  -9 -11   29.37    2.75
   3  -9 -11   29.01    2.66
  -3   9  11   33.77    3.11
   3  -9 -10    8.31    1.48
  -3   9  10    9.07    1.64
   3  -9 -10    8.34    1.44
   3  -9  -9    6.72    1.36
  -3   9   9    8.13    1.71
   3  -9  -8   35.58    2.80
  -3   9   8   37.99    3.06
   3  -9  -7   64.31    3.73
  -3   9   7   64.04    3.87
   3  -9  -6   26.64    1.46
   3  -9  -6   28.43    2.40
  -3   9   6   28.32    2.48
   3  -9  -5   18.27    1.16
   3  -9  -5   19.47    1.92
  -3   9   5   17.12    1.87
   3  -9  -4  139.44    5.40
  -3   9   4  142.78    5.58
   3  -9  -3    3.70    0.90
  -3   9   3    4.49    0.68
  -3   9   3    5.91    1.09
  -3   9   2   11.34    1.11
   3  -9  -2   17.51    1.70
  -3   9   2   14.48    1.61
  -3   9   1   57.77    2.66
   3  -9  -1   64.86    3.25
  -3   9   1   69.57    3.45
   3  -9   0  105.30    3.46
   3  -9   0  108.52    4.29
  -3   9   0  111.75    4.44
   3  -9   1    3.63    0.70
   3  -9   1    3.97    0.81
   3  -9   1    4.51    0.94
  -3   9  -1    3.42    0.97
   3  -9   2    0.74    0.34
   3  -9   2    1.99    0.61
  -3   9  -2    0.58    0.41
   3  -9   3   26.04    1.75
  -3   9  -3   23.74    1.79
   3  -9   3   23.88    1.74
   3  -9   4   91.04    3.56
  -3   9  -4   90.33    3.57
   3  -9   4   85.83    3.39
   3  -9   5    0.74    0.48
   3  -9   5    0.57    0.33
  -3   9  -5    0.49    0.30
   3  -9   6    8.22    1.12
   3  -9   6    7.95    0.90
  -3   9  -6    8.73    0.99
   3  -9   7   12.37    1.42
  -3   9  -7   13.02    1.16
   3  -9   8   11.78    1.45
  -3   9  -8   12.93    1.08
   3  -9   9   20.81    1.99
   3  -9  10   12.77    1.64
   3  -9  11    1.59    0.71
   3  -9  12    8.54    1.50
   3  -9  13   19.19    2.21
   3  -8 -14   10.83    1.61
   3  -8 -13    1.27    0.72
   3  -8 -13    1.00    0.77
   3  -8 -13    0.56    0.48
   3  -8 -12    1.66    0.79
   3  -8 -12    2.50    0.71
   3  -8 -12    2.07    0.95
  -3   8  12    2.50    1.00
   3  -8 -11   -0.45    0.75
  -3   8  11   -0.68    0.71
   3  -8 -11    0.07    0.54
   3  -8 -10   34.62    2.75
   3  -8 -10   32.31    2.67
  -3   8  10   33.41    2.93
   3  -8  -9    3.85    0.67
   3  -8  -9    4.59    1.01
  -3   8   9    5.63    1.23
   3  -8  -8   39.51    2.04
   3  -8  -8   45.98    3.08
  -3   8   8   44.02    3.14
   3  -8  -7   10.19    0.99
   3  -8  -7   11.55    1.54
  -3   8   7   12.50    1.66
   3  -8  -6  128.77    3.79
   3  -8  -6  127.23    5.12
  -3   8   6  135.13    5.40
   3  -8  -5    1.10    0.34
   3  -8  -5    0.29    0.37
  -3   8   5    2.04    0.78
   3  -8  -4   38.61    2.52
  -3   8   4   36.95    2.08
  -3   8   4   39.56    2.63
  -3   8   3   80.63    3.21
   3  -8  -3   92.80    3.93
  -3   8   3   94.07    4.05
  -3   8   2  221.97    6.05
   3  -8  -2  243.27    6.95
  -3   8   2  254.61    7.17
   3  -8  -1   20.65    1.69
  -3   8   1   23.45    1.87
   3  -8  -1   21.82    1.74
   3  -8   0    0.17    0.39
   3  -8   0   -0.09    0.37
  -3   8   0    0.31    0.41
   3  -8   1  321.33    8.03
   3  -8   1  318.63    7.45
  -3   8  -1  337.02    8.27
   3  -8   1  317.48    8.01
   3  -8   2  100.74    3.51
   3  -8   2  103.65    3.75
  -3   8  -2  106.49    3.87
   3  -8   2  100.97    3.70
   3  -8   3   12.67    1.18
   3  -8   3   10.27    1.09
  -3   8  -3   14.56    1.29
   3  -8   3   10.56    1.06
   3  -8   4   14.17    1.32
  -3   8  -4   12.47    1.15
   3  -8   4   13.21    1.15
   3  -8   5  358.04    8.79
  -3   8  -5  376.84    8.32
   3  -8   5  342.56    7.94
   3  -8   6   24.82    1.88
   3  -8   6   23.78    1.41
  -3   8  -6   24.19    1.49
   3  -8   7    5.60    0.93
  -3   8  -7    6.54    0.74
   3  -8   8  135.06    5.11
   3  -8   9   38.21    2.24
   3  -8   9   42.42    2.79
   3  -8  10   26.35    2.32
   3  -8  11   23.50    2.23
   3  -8  12   11.96    1.69
   3  -8  13    9.36    1.50
   3  -7 -15    1.55    0.68
   3  -7 -15    1.98    0.99
   3  -7 -14    1.66    0.85
   3  -7 -14    2.44    0.93
   3  -7 -13   -0.79    0.70
   3  -7 -13    0.43    0.47
   3  -7 -13   -1.16    0.74
   3  -7 -12    5.33    1.06
   3  -7 -12    2.96    0.88
   3  -7 -12    4.72    1.09
   3  -7 -11    1.15    0.79
   3  -7 -11    2.28    0.72
  -3   7  11    0.28    0.61
   3  -7 -11    1.54    0.63
   3  -7 -10   19.70    2.00
   3  -7 -10   21.11    1.92
   3  -7 -10   22.00    1.65
   3  -7 -10   19.10    1.89
  -3   7  10   20.88    2.21
   3  -7  -9    1.76    0.58
   3  -7  -9    2.12    0.78
   3  -7  -9    1.56    0.66
  -3   7   9    2.41    0.87
   3  -7  -9    1.51    0.64
   3  -7  -8   54.16    2.46
   3  -7  -8   55.63    3.26
  -3   7   8   58.53    3.53
   3  -7  -7  216.81    5.64
   3  -7  -7  223.44    7.01
  -3   7   7  227.12    7.26
   3  -7  -6    0.68    0.30
   3  -7  -6    1.43    0.60
  -3   7   6    0.51    0.39
   3  -7  -5   75.14    2.68
   3  -7  -5   79.25    3.60
  -3   7   5   80.67    3.76
   3  -7  -4    4.32    0.83
   3  -7  -4    2.58    0.67
  -3   7   4    2.57    0.54
  -3   7   4    3.13    0.78
   3  -7  -3  227.89    6.57
  -3   7   3  215.82    5.85
  -3   7   3  245.21    6.86
   3  -7  -3  230.40    6.58
  -3   7   2    9.02    0.93
   3  -7  -2    7.79    1.01
   3  -7  -2    7.53    0.99
  -3   7   2    8.00    1.01
   3  -7  -1  177.44    5.35
  -3   7   1  178.06    5.44
   3  -7  -1  178.58    5.36
   3  -7   0  131.13    4.36
  -3   7   0  140.85    4.55
   3  -7   0  140.51    4.49
   3  -7   1  223.79    5.99
  -3   7  -1  237.25    6.21
   3  -7   1  221.17    5.99
   3  -7   2  108.01    3.62
   3  -7   2  115.07    3.73
  -3   7  -2  115.36    3.82
   3  -7   2  112.00    3.69
   3  -7   3   73.00    2.93
   3  -7   3   74.25    2.78
  -3   7  -3   74.25    2.87
   3  -7   3   72.57    2.75
   3  -7   4  137.10    4.45
   3  -7   4  141.09    4.04
  -3   7  -4  149.86    4.24
   3  -7   4  139.64    4.02
   3  -7   5   33.87    2.09
   3  -7   5   32.37    1.59
  -3   7  -5   36.61    1.77
   3  -7   6   30.22    2.01
   3  -7   6   27.77    1.38
  -3   7  -6   31.68    1.56
   3  -7   7   36.33    2.31
  -3   7  -7   36.48    1.56
   3  -7   8   60.16    3.17
   3  -7   9    6.77    0.85
   3  -7   9    6.79    1.13
   3  -7  10    9.51    1.05
   3  -7  10    8.54    1.36
   3  -7  11    1.17    0.67
   3  -7  12    3.17    0.82
   3  -7  13    0.64    0.58
   3  -7  14    5.22    1.20
   3  -6 -16   -0.42    0.60
   3  -6 -15   28.19    2.65
   3  -6 -15   22.21    2.27
   3  -6 -14    9.27    1.40
   3  -6 -14   10.55    1.57
   3  -6 -14    9.60    1.30
   3  -6 -13    1.83    0.71
   3  -6 -13    1.32    0.62
   3  -6 -13    1.41    0.56
   3  -6 -12   12.91    1.63
   3  -6 -12   10.03    1.48
   3  -6 -12    9.99    1.33
   3  -6 -11    5.39    1.12
   3  -6 -11    8.88    1.27
   3  -6 -11    7.76    1.15
   3  -6 -10   19.59    1.80
   3  -6 -10   14.27    1.61
   3  -6 -10   14.61    1.38
   3  -6 -10   18.10    1.74
  -3   6  10   15.06    1.76
   3  -6  -9   78.46    3.81
   3  -6  -9   86.56    3.80
   3  -6  -9   79.12    3.20
   3  -6  -9   74.34    3.63
  -3   6   9   83.38    4.13
   3  -6  -8   20.77    1.83
   3  -6  -8   18.66    1.63
   3  -6  -8   18.17    1.38
   3  -6  -8   18.42    1.69
  -3   6   8   23.95    2.07
   3  -6  -7    5.15    0.73
   3  -6  -7    5.62    0.97
  -3   6   7    5.22    1.03
   3  -6  -6   97.65    3.23
   3  -6  -6   99.58    4.03
  -3   6   6   99.59    4.19
   3  -6  -6   95.53    3.96
   3  -6  -5   77.76    2.72
   3  -6  -5   76.33    3.39
   3  -6  -5   77.27    3.40
  -3   6   5   76.03    3.50
   3  -6  -4    1.06    0.52
  -3   6   4    0.67    0.31
   3  -6  -4    0.86    0.48
  -3   6   4    1.20    0.50
  -3   6   3   29.58    1.70
   3  -6  -3   30.91    1.96
   3  -6  -3   30.61    1.95
  -3   6   3   30.42    1.99
  -3   6   2   86.84    3.14
   3  -6  -2   97.35    3.56
   3  -6  -2   96.47    3.55
  -3   6   2   98.12    3.66
   3  -6  -1  270.54    6.83
  -3   6   1  280.69    7.02
   3  -6  -1  271.85    6.86
   3  -6   0   29.75    1.75
  -3   6   0   31.69    1.86
   3  -6   0   32.66    1.82
   3  -6   1   12.42    1.26
   3  -6   1   11.16    1.16
  -3   6  -1   18.08    1.48
   3  -6   2  426.80    8.92
   3  -6   2  406.22    9.01
   3  -6   2  413.46    8.87
  -3   6  -2  428.20    9.08
   3  -6   3    6.07    0.78
   3  -6   3    7.09    0.74
   3  -6   3    7.96    0.77
  -3   6  -3    6.75    0.77
   3  -6   4  114.15    3.87
   3  -6   4  112.74    3.24
   3  -6   4  112.16    3.23
  -3   6  -4  116.46    3.40
   3  -6   5  124.93    4.21
   3  -6   5  120.28    3.23
  -3   6  -5  126.83    3.45
   3  -6   6  517.52   11.42
   3  -6   6  505.29    9.54
   3  -6   7    0.34    0.39
   3  -6   8  100.38    4.11
   3  -6   9  138.31    4.02
   3  -6   9  148.50    5.39
   3  -6  10  292.79    6.56
   3  -6  10  293.85    8.51
   3  -6  11    9.49    1.37
   3  -6  12    4.76    1.00
   3  -6  13   96.30    4.87
   3  -6  14   28.13    2.60
   3  -5 -16    0.70    0.46
   3  -5 -15   15.26    1.96
   3  -5 -15   14.14    1.76
   3  -5 -14   14.63    1.77
   3  -5 -14   18.96    2.04
   3  -5 -14   14.00    1.50
   3  -5 -13   53.43    3.40
   3  -5 -13   48.48    3.13
   3  -5 -13   43.02    2.69
   3  -5 -12    3.21    0.86
   3  -5 -12    2.97    0.77
   3  -5 -12    3.44    0.72
   3  -5 -11    0.36    0.57
   3  -5 -11    0.13    0.40
   3  -5 -11   -0.14    0.41
   3  -5 -10   63.70    3.28
   3  -5 -10   58.91    3.20
   3  -5 -10   64.14    2.98
   3  -5 -10   57.79    3.03
   3  -5  -9   64.07    3.13
   3  -5  -9   58.71    3.09
   3  -5  -9   53.64    2.60
   3  -5  -9   56.29    2.94
  -3   5   9   55.11    3.14
   3  -5  -8    9.69    1.02
   3  -5  -8   11.06    1.22
  -3   5   8   10.34    1.34
   3  -5  -8    6.74    0.96
   3  -5  -7   72.91    3.15
   3  -5  -7   70.38    2.77
   3  -5  -7   64.36    3.09
  -3   5   7   71.48    3.46
   3  -5  -7   70.72    3.27
   3  -5  -6   66.01    2.57
   3  -5  -6   71.29    2.99
   3  -5  -6   68.50    3.15
  -3   5   6   66.73    3.21
   3  -5  -5   50.86    2.14
   3  -5  -5   55.97    2.72
  -3   5   5   51.96    2.72
  -3   5   4  130.30    4.03
   3  -5  -4  138.35    4.48
  -3   5   4  133.67    4.51
  -3   5   3  147.15    4.29
   3  -5  -3  156.40    4.71
  -3   5   3  154.81    4.78
  -3   5   2   11.38    0.98
   3  -5  -2   14.88    1.23
  -3   5   2   13.71    1.20
   3  -5  -1  132.14    4.01
  -3   5   1  126.69    4.01
   3  -5   0  514.26   10.74
  -3   5   0  543.49   10.95
   3  -5   1   26.93    1.49
  -3   5  -1   27.35    1.55
   3  -5   2   14.49    1.03
   3  -5   2   16.08    1.05
  -3   5  -2   15.69    1.09
   3  -5   3  108.62    3.08
   3  -5   3  110.98    3.60
   3  -5   3  110.08    3.09
  -3   5  -3  116.78    3.28
   3  -5   4  330.69    7.76
   3  -5   4  325.28    6.69
   3  -5   4  322.57    6.69
  -3   5  -4  340.21    6.88
   3  -5   5    0.69    0.22
   3  -5   5    0.92    0.22
   3  -5   5    0.53    0.35
   3  -5   6    0.34    0.16
   3  -5   6    0.61    0.37
   3  -5   7  252.37    6.92
   3  -5   8  101.17    4.10
   3  -5   9   70.31    2.29
   3  -5   9   72.27    3.49
   3  -5  10    0.40    0.30
   3  -5  10   -0.01    0.42
   3  -5  11  315.26    6.30
   3  -5  11  329.98    6.20
   3  -5  11  324.98    9.20
   3  -5  12   19.57    1.99
   3  -5  13   41.40    3.02
   3  -5  14    7.76    1.35
   3  -5  15  118.51    5.70
   3  -4 -16   11.82    1.59
   3  -4 -15   26.69    2.58
   3  -4 -15   23.05    2.13
   3  -4 -14   22.10    2.26
   3  -4 -14   21.04    2.01
   3  -4 -14   20.05    1.69
   3  -4 -13   23.83    2.07
   3  -4 -13   26.81    2.35
   3  -4 -13   25.06    1.86
   3  -4 -12   78.72    3.98
   3  -4 -12   72.42    3.64
   3  -4 -12   70.18    3.25
   3  -4 -11   43.32    2.76
   3  -4 -11   36.82    2.45
   3  -4 -11   37.64    2.30
   3  -4 -10   66.35    3.31
   3  -4 -10   59.89    2.91
   3  -4 -10   57.95    2.88
   3  -4  -9    1.34    0.55
   3  -4  -9    2.22    0.74
   3  -4  -9    1.24    0.52
   3  -4  -9    5.84    0.99
   3  -4  -8  185.14    5.55
   3  -4  -8  173.06    5.05
   3  -4  -8  165.59    5.26
   3  -4  -8  179.65    5.62
   3  -4  -7   -0.05    0.23
   3  -4  -7    0.54    0.43
   3  -4  -7    0.07    0.28
   3  -4  -7   -0.67    0.48
  -3   4   7    0.65    0.44
   3  -4  -6   31.55    1.88
   3  -4  -6   29.38    1.62
   3  -4  -6   28.35    1.83
   3  -4  -6   31.97    1.98
  -3   4   6   31.30    2.02
   3  -4  -5   81.37    3.02
   3  -4  -5   76.30    2.69
   3  -4  -5   71.46    2.99
   3  -4  -5   74.48    3.07
  -3   4   5   73.58    3.14
  -3   4   4   58.31    2.41
   3  -4  -4   59.37    2.60
  -3   4   4   56.75    2.64
  -3   4   3   -0.05    0.23
  -3   4   3    0.37    0.34
   3  -4  -3    0.58    0.38
  -3   4   2    0.31    0.23
   3  -4  -2   -0.02    0.23
  -3   4   2    0.28    0.35
   3  -4  -1   15.55    1.13
  -3   4   1   16.49    1.20
  -3   4   0    6.14    0.72
   3  -4   0    4.85    0.61
   3  -4   1   48.10    1.90
  -3   4  -1   50.04    1.97
   3  -4   2    5.00    0.55
   3  -4   3   20.42    1.04
   3  -4   4   16.32    1.25
   3  -4   4   14.20    0.77
   3  -4   4   12.88    0.74
   3  -4   5  169.56    4.87
   3  -4   5  163.51    3.42
   3  -4   5  163.66    3.42
   3  -4   6   16.36    1.38
   3  -4   6   14.21    0.49
   3  -4   7   11.58    1.19
   3  -4   8   40.57    1.59
   3  -4   8   46.34    2.55
   3  -4   9  104.83    2.68
   3  -4   9  106.08    2.56
   3  -4   9  112.92    4.39
   3  -4  10    4.15    0.32
   3  -4  10    3.82    0.37
   3  -4  10    3.62    0.79
   3  -4  11    0.40    0.52
   3  -4  12   68.20    3.72
   3  -4  13   68.28    3.87
   3  -4  14   27.83    2.53
   3  -4  15    5.71    1.37
   3  -3 -16   41.39    3.32
   3  -3 -16   39.24    2.73
   3  -3 -15    1.14    0.63
   3  -3 -15    0.17    0.43
   3  -3 -14   50.36    3.01
   3  -3 -14   54.57    3.51
   3  -3 -14   50.78    2.57
   3  -3 -13   26.91    2.12
   3  -3 -13   30.09    2.48
   3  -3 -13   24.83    1.76
   3  -3 -12   44.38    2.89
   3  -3 -12   39.63    2.23
   3  -3 -11    6.83    1.06
   3  -3 -11    6.89    0.92
   3  -3 -10  113.44    4.41
   3  -3 -10  105.20    4.04
   3  -3 -10  100.86    3.75
   3  -3 -10  110.34    4.23
   3  -3  -9   18.73    1.62
   3  -3  -9   17.52    1.46
   3  -3  -9   20.48    1.56
   3  -3  -9   16.15    1.50
   3  -3  -8  167.08    5.18
   3  -3  -8  165.17    4.87
   3  -3  -8  153.62    4.74
   3  -3  -8  154.41    5.01
   3  -3  -7   43.79    2.30
   3  -3  -7   42.04    2.07
   3  -3  -7   39.95    2.08
   3  -3  -7   44.38    2.31
   3  -3  -6   69.28    2.82
   3  -3  -6   69.47    2.64
   3  -3  -6   68.30    2.80
   3  -3  -6   65.39    2.82
   3  -3  -5   66.49    2.63
   3  -3  -5   59.81    2.33
   3  -3  -5   60.84    2.58
   3  -3  -5   58.11    2.55
   3  -3  -4   52.47    2.22
  -3   3   4   45.95    2.07
   3  -3  -4   45.43    2.13
   3  -3  -4   47.18    2.18
  -3   3   3   69.12    2.52
   3  -3  -3   68.43    2.63
   3  -3  -3   68.75    2.62
  -3   3   2   10.08    0.85
   3  -3  -2    9.95    0.92
   3  -3  -2   10.36    0.91
   3  -3  -1  155.38    4.24
   3  -3  -1  159.48    4.15
   3  -3   0    7.53    0.72
   3  -3   0    7.71    0.78
   3  -3   1   -0.05    0.21
   3  -3   2   64.95    2.03
   3  -3   3   30.27    1.20
   3  -3   4    8.46    0.87
   3  -3   4    7.30    0.66
   3  -3   4    6.65    0.47
   3  -3   5   17.56    1.34
   3  -3   5   17.29    0.97
   3  -3   5   17.08    0.66
   3  -3   6    0.24    0.36
   3  -3   6    0.35    0.21
   3  -3   7   -0.19    0.36
   3  -3   7    0.21    0.15
   3  -3   8   47.10    1.31
   3  -3   8   49.83    1.30
   3  -3   8   57.92    2.81
   3  -3   9    0.84    0.60
   3  -3  10   27.44    2.06
   3  -3  11    5.02    1.05
   3  -3  12   18.99    1.89
   3  -3  13    5.70    1.17
   3  -3  14   30.93    2.62
   3  -3  15   17.15    2.08
   3  -2 -16    1.80    0.67
   3  -2 -16    2.61    0.94
   3  -2 -15   27.64    2.16
   3  -2 -15   28.65    2.66
   3  -2 -14   16.19    1.93
   3  -2 -14   16.85    1.37
   3  -2 -13    0.30    0.46
   3  -2 -13    0.05    0.35
   3  -2 -12    7.45    1.02
   3  -2 -12    7.98    1.25
   3  -2 -12    8.59    0.96
   3  -2 -11   48.43    2.85
   3  -2 -11   43.48    2.20
   3  -2 -11   42.14    2.47
   3  -2 -10   15.14    1.53
   3  -2 -10   14.84    1.41
   3  -2 -10   15.47    1.26
   3  -2 -10   13.82    1.32
   3  -2  -9   49.56    2.64
   3  -2  -9   47.47    2.44
   3  -2  -9   44.66    2.17
   3  -2  -9   45.31    2.40
   3  -2  -8  145.04    4.76
   3  -2  -8  154.55    4.71
   3  -2  -8  123.86    4.03
   3  -2  -8  128.58    4.40
   3  -2  -7  283.35    7.02
   3  -2  -7  275.14    6.74
   3  -2  -7  269.96    6.61
   3  -2  -7  269.86    6.89
   3  -2  -6   18.02    1.36
   3  -2  -6   16.10    1.18
   3  -2  -6   15.28    1.19
   3  -2  -6   15.36    1.27
   3  -2  -5   45.24    2.09
   3  -2  -5   43.47    1.95
   3  -2  -5   47.07    2.08
   3  -2  -5   44.73    2.14
   3  -2  -4  112.17    3.40
  -3   2   4  106.28    3.33
   3  -2  -4  102.51    3.27
   3  -2  -4  106.55    3.44
  -3   2   3  424.82    8.83
   3  -2  -3  425.77    8.87
   3  -2  -3  433.81    9.01
  -3   2   2    2.03    0.39
   3  -2  -2    2.84    0.46
   3  -2  -2    2.31    0.43
   3  -2  -1    1.87    0.42
   3  -2   0  467.40    9.26
   3  -2   1  156.27    3.87
   3  -2   2   63.40    2.06
   3  -2   3   18.00    0.96
   3  -2   4   30.67    1.64
   3  -2   4   28.18    1.18
   3  -2   5   19.60    1.35
   3  -2   5   18.02    0.85
   3  -2   6    5.39    0.77
   3  -2   6    5.55    0.41
   3  -2   6    5.18    0.28
   3  -2   7    0.88    0.12
   3  -2   7    1.08    0.46
   3  -2   8    1.76    0.58
   3  -2   9    0.73    0.41
   3  -2  10    0.41    0.36
   3  -2  11    3.11    0.76
   3  -2  12    1.02    0.48
   3  -2  13    7.99    1.34
   3  -2  14    7.92    1.31
   3  -2  15   19.37    2.16
   3  -2  16   -1.02    0.68
   3  -1 -16   10.71    1.32
   3  -1 -16    9.06    1.59
   3  -1 -15    0.51    0.54
  -3   1  15   -0.29    0.56
  -3   1  14   12.34    1.61
   3  -1 -14   12.56    1.16
  -3   1  13   64.76    3.56
   3  -1 -13   63.61    2.71
   3  -1 -13   61.27    3.08
  -3   1  12   33.39    2.40
   3  -1 -12   33.03    1.87
   3  -1 -12   30.59    2.07
  -3   1  11   25.58    2.00
   3  -1 -11   26.13    1.64
   3  -1 -11   24.88    1.81
  -3   1  10   33.32    2.19
   3  -1 -10   34.40    2.17
   3  -1 -10   33.66    1.83
   3  -1 -10   29.66    1.92
   3  -1  -9  293.30    7.91
   3  -1  -9  302.67    7.82
   3  -1  -9  339.19    7.43
   3  -1  -9  305.05    7.72
   3  -1  -8    5.02    0.88
   3  -1  -8    3.35    0.82
   3  -1  -8    1.97    0.47
   3  -1  -8    1.82    0.56
  -3   1   8    1.21    0.40
   3  -1  -7    6.32    0.81
   3  -1  -7    6.64    0.86
   3  -1  -7    4.89    0.73
   3  -1  -7    5.94    0.73
  -3   1   7    6.37    0.77
   3  -1  -6  435.18    9.37
   3  -1  -6  428.30    9.21
   3  -1  -6  426.23    9.01
  -3   1   6  434.50    9.16
   3  -1  -6  419.70    9.32
   3  -1  -5  137.33    3.98
   3  -1  -5  127.89    3.70
  -3   1   5  137.08    3.89
   3  -1  -5  130.03    3.80
   3  -1  -4   60.64    2.29
  -3   1   4   59.41    2.26
   3  -1  -4   58.10    2.18
   3  -1  -4   56.12    2.17
  -3   1   3   11.32    0.89
   3  -1  -3   12.33    0.93
   3  -1  -3   11.81    0.89
  -3   1   3   12.29    0.93
  -3   1   2  624.88   11.94
   3  -1  -2  633.45   12.00
  -3   1   2  647.46   12.07
   3  -1  -1  462.30    9.08
  -3   1   1  469.36    9.13
   3  -1   0  280.27    5.94
  -3   1   0  290.07    6.03
  -3   1  -1  100.43    2.70
   3  -1   1   95.84    2.61
   3  -1   2  337.97    6.73
  -3   1  -2  351.10    6.85
  -3   1  -3    9.20    0.64
   3  -1   3    8.98    0.59
   3  -1   4   18.50    1.21
   3  -1   4   18.12    0.82
  -3   1  -4   18.73    0.87
   3  -1   5    2.62    0.31
   3  -1   5    3.02    0.52
   3  -1   5    2.49    0.28
   3  -1   6  353.51    7.97
   3  -1   6  348.42    6.14
   3  -1   6  341.04    6.49
   3  -1   7   52.29    2.42
   3  -1   7   49.47    1.48
   3  -1   7   51.43    1.49
   3  -1   8   17.38    1.43
   3  -1   8   18.45    0.82
   3  -1   9   91.43    3.66
   3  -1   9   85.61    2.18
   3  -1  10    0.38    0.32
   3  -1  10    0.71    0.21
   3  -1  11    3.90    0.86
   3  -1  12    5.48    1.05
   3  -1  13    4.19    0.93
   3  -1  14    0.95    0.65
   3  -1  15    1.45    0.47
   3  -1  16   -0.08    0.66
  -3   0  16    0.26    0.52
  -3   0  15    1.55    0.82
  -3   0  14   -0.48    0.58
   3   0 -14    0.86    0.38
  -3   0  13    1.55    0.70
   3   0 -13    2.98    0.61
   3   0 -13    1.29    0.46
  -3   0  12   10.63    1.37
   3   0 -12   10.44    1.05
   3   0 -12   11.37    1.21
  -3   0  11    5.56    0.98
   3   0 -11    5.35    0.73
   3   0 -11    4.43    0.74
  -3   0  11    4.22    0.69
  -3   0  10    6.94    1.02
   3   0 -10    6.68    0.80
   3   0 -10    6.11    0.88
  -3   0  10    6.99    0.87
   3   0  -9    1.04    0.52
  -3   0   9    6.99    1.07
   3   0  -9    6.90    0.98
   3   0  -9    4.32    1.00
  -3   0   8  123.20    4.17
   3   0  -8  127.87    4.21
  -3   0   8  128.64    3.93
   3   0  -8  124.23    3.73
   3   0  -8  119.83    3.97
   3   0  -7  179.83    5.09
  -3   0   7  176.29    4.75
   3   0  -7  173.58    4.63
   3   0  -7  177.75    5.01
   3   0  -6  209.53    5.43
   3   0  -6  199.89    5.06
  -3   0   6  207.57    5.21
   3   0  -6  205.72    5.35
   3   0  -5   99.32    3.19
  -3   0   5   98.28    3.09
   3   0  -5   93.30    2.97
   3   0  -5   96.19    3.12
   3   0  -4  314.16    6.84
  -3   0   4  313.26    6.78
   3   0  -4  308.20    6.72
   3   0  -4  302.59    6.76
   3   0  -3   65.04    2.21
  -3   0   3   58.24    2.10
  -3   0   3   63.86    2.21
   3   0  -3   60.49    2.16
  -3   0   2  306.29    6.43
  -3   0   2  316.54    6.58
   3   0  -2  310.12    6.55
   3   0  -1  199.27    4.56
  -3   0   1  198.13    4.57
   3   0   0 1549.46   26.59
  -3   0   0 1536.21   26.61
  -3   0  -1   78.26    2.28
   3   0   1   81.62    2.29
  -3   0  -2  290.39    5.86
   3   0   2  291.96    5.84
  -3   0  -3  340.18    6.53
   3   0   3  328.96    6.45
   3   0   4  140.72    3.88
  -3   0  -4  144.68    3.22
   3   0   4  141.18    3.16
   3   0   5   85.76    2.89
   3   0   5   82.84    2.04
  -3   0  -5   83.31    2.08
   3   0   5   83.61    2.33
   3   0   6    8.55    0.64
   3   0   6    9.49    0.93
  -3   0  -6    8.76    0.49
   3   0   6    8.55    0.65
   3   0   7  222.18    5.74
   3   0   7  207.58    4.71
   3   0   7  217.10    4.76
   3   0   8   13.20    1.56
   3   0   8    6.06    0.72
   3   0   8    5.81    0.72
   3   0   9   28.61    1.89
   3   0   9   27.88    1.33
   3   0  10  132.01    4.62
   3   0  10  126.42    3.42
   3   0  11    2.49    0.72
   3   0  11    1.84    0.37
   3   0  12   17.40    1.71
   3   0  12   17.06    1.06
   3   0  13    7.06    1.17
   3   0  14   32.37    2.58
   3   0  15    9.16    1.48
   3   0  16    1.47    0.76
  -3  -1  16   10.25    1.62
  -3  -1  15    2.12    0.80
  -3  -1  14   22.43    2.24
   3   1 -14   23.98    1.57
  -3  -1  13   -0.16    0.47
   3   1 -13    0.41    0.28
   3   1 -13    0.93    0.40
  -3  -1  13    0.46    0.35
  -3  -1  12   12.09    1.48
  -3  -1  12   11.64    1.16
   3   1 -12   10.88    1.07
   3   1 -12   10.04    1.12
  -3  -1  11    2.78    0.79
   3   1 -11    2.13    0.53
   3   1 -11    2.31    0.53
  -3  -1  11    1.53    0.47
  -3  -1  10    0.73    0.51
   3   1 -10    0.93    0.39
   3   1 -10    0.61    0.25
  -3  -1  10    0.83    0.33
  -3  -1   9    3.97    0.73
   3   1  -9    3.09    0.67
   3   1  -9    3.63    0.56
  -3  -1   9    3.94    0.65
  -3  -1   8    0.37    0.48
   3   1  -8    0.26    0.26
   3   1  -8   -0.02    0.24
  -3  -1   8    0.52    0.30
  -3  -1   7   23.47    1.43
   3   1  -7   21.97    1.36
  -3  -1   7   22.08    1.55
   3   1  -7   22.47    1.52
   3   1  -6   31.35    1.72
   3   1  -6   31.63    1.61
  -3  -1   6   33.54    1.69
   3   1  -6   32.53    1.77
  -3  -1   6   31.61    1.76
   3   1  -5   16.57    1.15
  -3  -1   5   15.95    1.09
   3   1  -5   17.23    1.15
   3   1  -5   14.74    1.10
   3   1  -4   23.41    1.29
  -3  -1   4   25.23    1.36
   3   1  -4   22.64    1.28
   3   1  -4   22.04    1.28
   3   1  -3  226.17    5.02
  -3  -1   3  221.76    5.16
   3   1  -3  213.11    5.09
   3   1  -3  216.67    5.07
  -3  -1   2   28.06    1.23
   3   1  -2   28.51    1.38
  -3  -1   2   29.13    1.40
  -3  -1   1   58.39    1.83
   3   1  -1   54.25    1.94
  -3  -1   1   54.13    1.96
  -3  -1   0    3.27    0.43
   3   1   0    3.46    0.48
   3   1   1  291.34    6.02
  -3  -1  -1  287.45    6.02
  -3  -1  -2    3.62    0.44
   3   1   2    3.25    0.39
  -3  -1  -3   68.14    2.05
   3   1   3   68.46    2.05
   3   1   4   24.62    1.31
  -3  -1  -4   23.46    1.06
   3   1   4   25.02    1.08
   3   1   4   23.84    1.21
   3   1   5  299.01    6.65
  -3  -1  -5  296.99    5.88
   3   1   5  291.55    6.30
   3   1   6    1.05    0.34
   3   1   6    0.88    0.28
   3   1   6    0.86    0.32
  -3  -1  -6    0.47    0.17
   3   1   7   46.76    1.92
   3   1   7   49.15    2.24
  -3  -1  -7   48.96    1.45
   3   1   7   47.49    1.92
   3   1   8   82.94    2.80
   3   1   8   94.72    3.41
  -3  -1  -8   90.27    2.01
   3   1   8   87.44    2.84
   3   1   9   77.26    3.16
   3   1   9   73.14    2.62
   3   1  10    1.92    0.54
   3   1  10    1.39    0.39
   3   1  11   47.40    2.66
   3   1  11   43.57    2.04
   3   1  12  129.58    4.85
   3   1  12  124.15    3.87
   3   1  13   37.78    2.61
   3   1  13   37.50    1.95
   3   1  14   10.52    1.46
   3   1  15    3.59    0.93
   3   1  16   27.67    2.53
   3   1  17   -0.15    0.62
  -3  -2  16   43.41    3.40
  -3  -2  15    0.41    0.71
  -3  -2  14    9.06    1.51
   3   2 -14    7.79    0.91
  -3  -2  13   34.63    2.63
   3   2 -13   33.63    1.90
  -3  -2  13   32.96    2.04
   3   2 -13   28.04    1.92
  -3  -2  12   72.28    3.70
  -3  -2  12   72.93    3.04
   3   2 -12   72.04    2.89
   3   2 -12   66.63    3.04
  -3  -2  11    9.83    1.29
   3   2 -11   10.23    1.00
  -3  -2  11    9.69    1.05
   3   2 -11    8.06    1.01
  -3  -2  10    8.21    1.13
   3   2 -10    8.13    0.92
  -3  -2  10    7.50    0.91
  -3  -2   9   45.43    2.54
   3   2  -9   48.76    2.58
  -3  -2   9   49.66    2.33
   3   2  -9   49.41    2.24
  -3  -2   8    2.90    0.65
   3   2  -8    2.82    0.60
   3   2  -8    2.17    0.45
  -3  -2   8    2.46    0.51
  -3  -2   7   16.95    1.35
   3   2  -7   16.66    1.32
  -3  -2   7   14.95    1.16
   3   2  -7   16.13    1.19
   3   2  -6    1.84    0.42
  -3  -2   6    2.51    0.55
   3   2  -6    2.79    0.50
  -3  -2   6    3.13    0.56
   3   2  -5    2.47    0.47
  -3  -2   5    1.83    0.43
   3   2  -5    2.20    0.46
   3   2  -5    1.72    0.42
   3   2  -4    8.29    0.73
   3   2  -4    8.61    0.82
  -3  -2   4    8.73    0.82
   3   2  -4    8.25    0.78
   3   2  -3    6.05    0.57
   3   2  -3    6.16    0.72
  -3  -2   3    6.93    0.72
   3   2  -3    6.22    0.62
  -3  -2   2   23.19    1.30
   3   2  -2   22.70    1.28
   3   2  -2   22.68    1.16
  -3  -2   1   11.15    0.67
   3   2  -1   11.56    0.89
  -3  -2   1   11.14    0.88
   3   2   0   65.53    2.25
  -3  -2   0   66.16    2.27
  -3  -2  -1   16.30    1.01
   3   2   1   15.80    1.00
   3   2   2   63.61    2.15
  -3  -2  -2   64.76    2.17
   3   2   3    5.62    0.65
   3   2   3    6.07    0.59
  -3  -2  -3    6.02    0.59
   3   2   4  107.59    3.04
  -3  -2  -4  108.60    2.95
   3   2   4  109.01    3.24
   3   2   5   35.59    1.61
  -3  -2  -5   34.65    1.44
   3   2   5   34.99    1.68
   3   2   6  153.29    4.26
   3   2   6  155.64    4.20
  -3  -2  -6  153.88    3.71
   3   2   6  156.63    4.27
   3   2   7    1.35    0.47
   3   2   7    0.60    0.28
   3   2   7    0.94    0.33
  -3  -2  -7    0.92    0.25
   3   2   8  158.82    4.56
   3   2   8  164.53    4.74
  -3  -2  -8  166.48    3.75
   3   2   8  159.01    4.54
   3   2   9   20.84    1.66
  -3  -2  -9   20.33    1.18
   3   2   9   25.17    1.82
   3   2  10   37.76    2.22
  -3  -2 -10   36.41    1.14
   3   2  10   36.70    2.00
   3   2  11    1.70    0.61
   3   2  11    2.56    0.55
   3   2  12  129.17    4.76
   3   2  12  115.61    4.08
   3   2  13   33.37    2.38
   3   2  13   31.10    1.99
   3   2  14   51.89    3.17
   3   2  15   33.91    2.65
   3   2  16    4.21    1.02
   3   2  17    6.19    1.24
  -3  -3  16   -0.20    0.61
  -3  -3  15  113.81    5.45
  -3  -3  14    5.75    1.16
   3   3 -14    6.12    0.86
  -3  -3  13    0.32    0.43
   3   3 -13    0.86    0.39
   3   3 -13    0.43    0.35
  -3  -3  13    1.13    0.37
  -3  -3  12    8.42    1.32
   3   3 -12    7.52    0.92
  -3  -3  12    9.94    1.10
  -3  -3  11  185.96    5.44
   3   3 -11  184.41    5.29
  -3  -3  11  190.64    6.28
  -3  -3  10   21.51    1.55
   3   3 -10   20.50    1.46
  -3  -3  10   19.80    1.77
  -3  -3   9   48.94    2.35
   3   3  -9   44.96    2.21
  -3  -3   9   46.85    2.59
   3   3  -9   47.48    2.59
   3   3  -8  101.98    3.50
  -3  -3   8  100.35    3.53
  -3  -3   8  103.84    3.87
   3   3  -8  104.80    3.87
   3   3  -7  276.59    6.76
  -3  -3   7  281.35    6.85
  -3  -3   7  283.18    7.12
   3   3  -7  287.91    7.12
  -3  -3   6    2.41    0.49
   3   3  -6    2.49    0.51
  -3  -3   6    3.15    0.58
   3   3  -6    2.98    0.57
   3   3  -5   23.35    1.48
  -3  -3   5   24.86    1.52
  -3  -3   5   25.22    1.50
   3   3  -5   25.83    1.49
   3   3  -4  161.57    4.03
   3   3  -4  155.06    4.39
  -3  -3   4  165.31    4.49
   3   3  -4  157.83    4.23
   3   3  -3   94.99    2.62
  -3  -3   3   95.44    3.13
   3   3  -3   91.98    3.08
   3   3  -3   91.98    2.80
  -3  -3   2    9.61    0.87
   3   3  -2    8.37    0.85
   3   3  -2    8.68    0.69
   3   3  -1   93.08    3.05
  -3  -3   1   93.03    3.03
  -3  -3   0  194.39    3.95
   3   3   0  200.72    4.97
  -3  -3   0  206.71    5.03
   3   3   1  177.04    4.57
  -3  -3  -1  179.86    4.60
   3   3   2  127.64    3.60
  -3  -3  -2  127.75    3.62
   3   3   2  126.20    3.74
   3   3   3    8.53    0.87
  -3  -3  -3    9.32    0.81
   3   3   4   -0.19    0.29
   3   3   4   -0.17    0.27
  -3  -3  -4    0.01    0.22
   3   3   5   86.98    3.14
   3   3   5   90.31    2.69
  -3  -3  -5   87.45    2.79
   3   3   5   90.94    3.18
   3   3   6  186.84    5.16
   3   3   6  189.00    4.64
  -3  -3  -6  186.04    4.60
   3   3   6  183.86    5.10
   3   3   7    4.20    0.67
   3   3   7    4.86    0.70
  -3  -3  -7    4.95    0.58
   3   3   7    5.38    0.70
   3   3   8    5.66    0.82
   3   3   8    5.54    0.78
   3   3   8    6.10    0.77
  -3  -3  -8    5.98    0.64
   3   3   9   87.26    3.46
   3   3   9   91.16    3.37
  -3  -3  -9   88.22    2.69
   3   3   9   92.04    3.53
   3   3  10   18.14    1.46
  -3  -3 -10   19.14    1.04
   3   3  10   17.96    1.54
   3   3  11   12.89    1.31
   3   3  11   13.36    1.30
  -3  -3 -11   12.62    0.76
   3   3  12    1.90    0.55
   3   3  12    0.74    0.35
   3   3  13   12.79    1.47
   3   3  13   11.45    1.31
   3   3  14   12.09    1.47
   3   3  15   16.84    1.85
   3   3  16    5.39    1.22
  -3  -4  15   36.99    3.02
  -3  -4  14   72.75    4.15
  -3  -4  13  130.17    5.51
  -3  -4  13  130.39    4.59
   3   4 -13  133.35    4.50
  -3  -4  12   72.05    3.77
  -3  -4  12   66.82    3.08
   3   4 -12   66.64    2.99
  -3  -4  11    1.62    0.68
   3   4 -11    1.87    0.51
  -3  -4  11    2.31    0.55
  -3  -4  10   78.96    3.26
   3   4 -10   78.72    3.20
  -3  -4  10   84.39    3.77
   3   4  -9  137.79    4.48
  -3  -4   9  145.41    4.65
  -3  -4   9  135.52    4.88
   3   4  -8   70.39    2.93
  -3  -4   8   73.42    3.02
  -3  -4   8   74.08    3.22
   3   4  -8   73.00    3.17
  -3  -4   7    3.09    0.62
   3   4  -7    3.44    0.66
  -3  -4   7    3.71    0.69
   3   4  -7    3.00    0.63
   3   4  -6  406.99    9.19
  -3  -4   6  409.33    9.25
  -3  -4   6  417.04    9.22
   3   4  -6  412.08    9.10
   3   4  -5   44.60    2.19
  -3  -4   5   46.42    2.24
  -3  -4   5   43.78    2.07
   3   4  -5   42.08    2.00
   3   4  -4    6.37    0.63
   3   4  -4    5.93    0.80
  -3  -4   4    5.85    0.75
   3   4  -4    6.30    0.70
   3   4  -3   44.05    1.58
   3   4  -3   42.77    1.76
  -3  -4   3   47.01    2.19
   3   4  -3   41.92    2.08
   3   4  -2  251.23    5.55
  -3  -4   2  270.26    6.47
   3   4  -2  264.02    6.41
   3   4  -1    7.89    0.72
   3   4  -1   12.79    1.39
  -3  -4   1    7.77    0.95
   3   4   0   51.49    1.63
   3   4   0   53.23    2.30
  -3  -4   0   54.10    2.32
   3   4   0   56.39    2.39
  -3  -4  -1  421.32    9.07
   3   4   1  418.39    9.15
  -3  -4  -2   83.78    2.97
   3   4   2   80.32    3.01
   3   4   3    3.23    0.58
   3   4   3    3.91    0.40
  -3  -4  -3    3.17    0.53
   3   4   4   28.38    1.17
  -3  -4  -4   26.45    1.55
   3   4   4   26.85    1.70
   3   4   5   75.32    3.09
   3   4   5   76.11    2.30
  -3  -4  -5   76.63    2.79
   3   4   5   79.77    3.15
   3   4   6   38.20    2.14
   3   4   6   37.59    1.58
  -3  -4  -6   37.96    1.85
   3   4   6   36.21    2.09
   3   4   7   64.07    2.95
   3   4   7   65.51    2.36
  -3  -4  -7   64.94    2.51
   3   4   7   64.63    2.91
   3   4   8   28.07    1.94
   3   4   8   27.15    1.55
  -3  -4  -8   28.94    1.61
   3   4   8   27.36    1.92
   3   4   9    2.16    0.70
   3   4   9    2.82    0.73
  -3  -4  -9    1.93    0.45
   3   4   9    2.01    0.52
   3   4  10   13.14    1.41
   3   4  10   13.42    1.19
  -3  -4 -10   12.02    0.97
   3   4  11   56.51    2.73
   3   4  11   51.51    2.90
   3   4  12    0.17    0.45
   3   4  12    0.04    0.40
   3   4  13    1.18    0.57
   3   4  13    1.55    0.70
   3   4  14   20.90    1.88
  -3  -5  15    0.74    0.54
  -3  -5  14   23.80    2.37
  -3  -5  13    1.33    0.81
  -3  -5  12   72.76    3.35
  -3  -5  12   75.14    3.95
  -3  -5  11   29.63    2.04
  -3  -5  11   25.85    2.14
   3   5 -10   10.12    1.14
  -3  -5  10   11.91    1.26
  -3  -5  10    9.80    1.25
   3   5  -9   11.62    1.36
  -3  -5   9   13.95    1.44
  -3  -5   9   12.46    1.43
   3   5  -8   73.02    3.16
  -3  -5   8   75.37    3.22
  -3  -5   8   72.64    3.26
   3   5  -8   75.71    3.28
  -3  -5   7   26.83    1.81
   3   5  -7   27.32    1.83
  -3  -5   7   27.19    1.81
   3   5  -7   26.26    1.76
   3   5  -6   28.92    1.86
  -3  -5   6   27.70    1.84
  -3  -5   6   28.96    1.77
   3   5  -6   27.22    1.70
   3   5  -5  143.71    4.59
  -3  -5   5  148.88    4.66
  -3  -5   5  146.59    4.29
   3   5  -5  140.31    4.16
   3   5  -4   54.28    1.92
   3   5  -4   50.78    2.48
  -3  -5   4   56.25    2.61
   3   5  -4   48.27    2.04
   3   5  -3   51.24    1.67
   3   5  -3   47.83    1.92
   3   5  -3   51.45    2.45
  -3  -5   3   54.05    2.53
   3   5  -2   16.40    0.96
  -3  -5   2   18.69    1.43
   3   5  -2   15.83    1.29
   3   5  -1  178.94    4.06
  -3  -5   1  191.55    5.35
   3   5  -1  190.31    5.25
   3   5   0    4.86    0.71
   3   5   0    5.73    0.46
  -3  -5   0    6.07    0.84
   3   5   1   11.29    0.58
  -3  -5  -1   10.33    1.06
   3   5   1   13.59    1.31
   3   5   2   -0.07    0.30
  -3  -5  -2    0.09    0.32
   3   5   3   49.71    1.37
  -3  -5  -3   48.43    2.33
   3   5   3   48.13    2.46
   3   5   4    0.72    0.43
   3   5   4    0.54    0.35
   3   5   4   -0.03    0.15
  -3  -5  -4   -0.39    0.37
   3   5   5   17.16    1.47
   3   5   5   16.47    0.84
  -3  -5  -5   15.25    1.23
   3   5   5   14.62    1.38
   3   5   6   22.37    1.76
   3   5   6   21.99    1.09
  -3  -5  -6   21.86    1.52
   3   5   6   22.90    1.76
   3   5   7   42.93    2.51
   3   5   7   43.33    1.74
  -3  -5  -7   39.98    2.09
   3   5   7   39.09    2.38
   3   5   8    0.55    0.62
  -3  -5  -8    0.74    0.38
   3   5   8    0.14    0.21
   3   5   9   -0.12    0.39
  -3  -5  -9   -0.25    0.29
   3   5   9    0.04    0.28
   3   5  10    1.51    0.51
  -3  -5 -10    1.78    0.52
   3   5  10    1.52    0.49
   3   5  11    4.12    0.68
   3   5  11    2.76    0.80
   3   5  12   10.65    1.20
   3   5  12   10.52    1.40
   3   5  13    3.85    0.97
   3   5  14    0.49    0.59
  -3  -6  15    3.82    1.23
  -3  -6  14    3.79    1.09
  -3  -6  13   18.09    2.06
  -3  -6  12    2.90    0.87
  -3  -6  11   22.60    2.02
  -3  -6  10   10.87    1.37
  -3  -6   9   74.96    3.51
  -3  -6   8   29.98    2.05
   3   6  -8   32.01    2.10
  -3  -6   8   30.69    2.08
  -3  -6   7   16.74    1.44
   3   6  -7   15.71    1.37
  -3  -6   7   17.46    1.54
   3   6  -6    0.08    0.23
  -3  -6   6   -0.28    0.36
  -3  -6   6    0.63    0.35
  -3  -6   5   88.41    3.16
   3   6  -5   83.36    3.05
  -3  -6   5   87.81    3.60
   3   6  -5   84.78    3.32
   3   6  -4    0.43    0.22
   3   6  -4    0.52    0.40
   3   6  -4    0.60    0.27
  -3  -6   4    0.39    0.40
   3   6  -3   84.91    2.22
   3   6  -3   78.49    2.61
  -3  -6   3   87.36    3.52
   3   6  -3   85.03    3.33
   3   6  -2   23.81    1.19
  -3  -6   2   25.70    1.81
   3   6  -2   24.12    1.71
   3   6  -1   93.54    2.49
  -3  -6   1   96.90    3.74
   3   6  -1   99.46    3.71
   3   6   0  100.37    2.40
  -3  -6   0  113.47    4.03
   3   6   0  108.91    3.94
   3   6   1   87.68    1.89
  -3  -6  -1   95.20    3.63
   3   6   1   93.24    3.64
  -3  -6  -2   60.61    2.84
   3   6   2   61.64    2.94
   3   6   3   25.46    1.88
  -3  -6  -3   25.71    1.78
   3   6   3   22.20    1.77
  -3  -6  -4   31.36    1.99
   3   6   4   28.83    2.02
   3   6   5   28.17    0.88
  -3  -6  -5   26.96    1.83
   3   6   5   28.35    2.09
   3   6   6   93.08    2.31
  -3  -6  -6   88.53    3.56
   3   6   6   93.92    4.00
   3   6   7    3.58    0.82
   3   6   7    4.11    0.45
  -3  -6  -7    3.35    0.67
   3   6   8   25.16    1.28
  -3  -6  -8   22.60    1.69
   3   6   8   24.33    2.03
   3   6   9    2.85    0.80
  -3  -6  -9    3.34    0.67
   3   6   9    2.59    0.42
   3   6  10   13.31    1.08
   3   6  10   13.64    1.65
   3   6  11    1.28    0.73
   3   6  12    3.10    1.03
   3   6  13    0.21    0.48
   3   6  14    0.48    0.47
  -3  -7  14    3.49    1.01
  -3  -7  13    3.77    1.03
  -3  -7  12   16.40    1.88
   3   7 -12   16.07    1.40
  -3  -7  11   22.91    2.10
   3   7 -11   24.61    1.77
  -3  -7  10    4.10    0.92
   3   7 -10    2.46    0.57
  -3  -7   9    3.53    0.73
   3   7  -9    3.33    0.68
  -3  -7   8   42.70    2.51
   3   7  -8   43.20    2.40
  -3  -7   7   88.56    3.57
   3   7  -7   88.63    3.55
   3   7  -7   87.83    3.55
  -3  -7   6   17.56    1.43
   3   7  -6   16.55    1.38
   3   7  -6   15.09    1.38
   3   7  -5    0.94    0.37
   3   7  -5    1.24    0.32
   3   7  -5    1.41    0.47
   3   7  -4   35.91    1.81
   3   7  -4   40.61    1.54
   3   7  -4   40.22    2.31
   3   7  -3   57.10    2.17
   3   7  -3   61.24    1.64
   3   7  -3   60.41    2.90
   3   7  -2    7.67    0.65
   3   7  -2    7.98    1.06
   3   7  -1    2.77    0.34
   3   7  -1    2.68    0.68
   3   7   0  108.54    2.35
   3   7   0  118.91    4.35
   3   7   1   13.33    1.41
   3   7   2   11.40    1.31
   3   7   3   11.03    1.31
   3   7   4   80.41    3.74
   3   7   5    1.37    0.64
  -3  -7  -5    0.93    0.21
  -3  -7  -6    7.82    0.67
   3   7   6    7.70    1.18
  -3  -7  -7   19.21    1.22
   3   7   7   17.47    1.80
  -3  -7  -8   30.73    1.69
   3   7   8   27.47    2.34
   3   7   9    8.33    1.51
   3   7  10   -0.44    0.60
   3   7  11   18.39    2.04
   3   7  12    0.47    0.66
   3   7  13    0.23    0.70
   3   7  14    1.12    0.82
  -3  -8  14    3.14    1.01
  -3  -8  13    1.94    0.85
  -3  -8  12   16.16    1.91
   3   8 -12   16.01    1.47
  -3  -8  11   26.09    2.30
   3   8 -11   25.10    1.85
  -3  -8  10    1.99    0.76
   3   8 -10    1.85    0.55
  -3  -8   9    1.97    0.69
   3   8  -9    0.44    0.42
  -3  -8   8    9.88    1.26
   3   8  -8    8.27    1.09
  -3  -8   7    8.97    1.13
   3   8  -7   10.87    1.17
   3   8  -7    8.08    1.09
  -3  -8   6   20.68    1.57
   3   8  -6   20.70    1.54
   3   8  -6   20.74    1.72
   3   8  -5    8.04    0.89
   3   8  -5    8.45    1.15
   3   8  -5    8.86    0.77
   3   8  -4    0.46    0.32
   3   8  -4    0.16    0.17
   3   8  -4    0.42    0.37
   3   8  -3    2.50    0.45
   3   8  -3    2.64    0.62
   3   8  -2   68.96    2.20
   3   8  -2   71.92    3.41
   3   8  -1    0.33    0.16
   3   8  -1    1.21    0.63
   3   8   0    2.97    0.77
   3   8   1   35.10    2.42
   3   8   2   80.91    3.86
   3   8   3    0.77    0.51
   3   8   4    0.22    0.53
   3   8   5   50.94    3.14
   3   8   6   27.60    2.33
   3   8   7    0.69    0.56
   3   8   8    1.26    0.72
   3   8   9   41.41    3.11
   3   8  10    3.72    1.10
   3   8  11    0.41    0.58
   3   8  12    2.07    0.97
   3   8  13    8.71    1.52
  -3  -9  13    6.21    1.29
  -3  -9  12   -0.27    0.57
  -3  -9  11    0.48    0.66
   3   9 -11    0.37    0.42
  -3  -9  10   14.73    1.71
   3   9 -10   14.80    1.50
  -3  -9   9    0.35    0.47
   3   9  -9    0.69    0.53
  -3  -9   8    2.15    0.64
   3   9  -8    4.05    0.84
   3   9  -7    3.96    0.81
  -3  -9   7    4.50    0.83
   3   9  -7    4.28    0.84
   3   9  -6   12.40    1.23
   3   9  -6   12.77    1.47
   3   9  -6   13.37    1.01
   3   9  -5    3.07    0.58
   3   9  -5    4.29    0.47
   3   9  -5    3.62    0.80
   3   9  -4    1.62    0.38
   3   9  -4    1.87    0.64
   3   9  -3    1.55    0.32
   3   9  -3    1.43    0.60
   3   9  -2    2.70    0.37
   3   9  -2    2.27    0.66
   3   9  -1   21.96    1.98
   3   9   0    6.32    1.03
   3   9   1   -0.43    0.40
   3   9   2   16.75    1.85
   3   9   3   37.38    2.77
   3   9   4    2.80    0.88
   3   9   5    4.21    1.02
   3   9   6    9.92    1.51
   3   9   7   31.04    2.71
   3   9   8    1.61    0.91
   3   9   9   -0.05    0.58
   3   9  10   11.59    1.73
  -3 -10  13    0.89    0.65
  -3 -10  12    4.76    1.12
  -3 -10  11    0.60    0.65
  -3 -10  10   17.59    1.90
   3  10 -10   16.78    1.68
  -3 -10   9    0.94    0.45
   3  10  -9    1.86    0.65
   3  10  -8    3.13    0.85
   3  10  -7   12.95    1.55
   3  10  -6    8.39    1.24
   3  10  -5    7.96    1.24
   3  10  -4    1.79    0.61
   3  10  -3   17.56    1.87
   3  10  -2    0.05    0.53
   3  10  -1    5.55    1.07
   3  10   0    0.39    0.53
   3  10   1    1.12    0.50
   3  10   2    1.83    0.68
   3  10   3    1.20    0.72
   3  10   4    0.88    0.71
   3  10   5    7.80    1.39
   3  10   6    0.78    0.73
   3  10   7    1.47    0.86
   3  10   8   20.73    2.40
  -3 -11  12   11.56    1.78
  -3 -11  11    6.63    1.29
   3  11 -10    2.69    0.82
   3  11  -9   30.16    2.44
   3  11  -8    1.15    0.62
   3  11  -7    7.97    1.32
   3  11  -6    8.36    1.33
   3  11  -5   19.50    2.01
   3  11  -4    4.03    1.10
   3  11  -3    2.62    0.88
   3  11  -2    8.28    1.41
   3  11  -1    6.51    1.21
   3  11   0    6.21    1.26
   3  11   1   -1.06    0.79
   3  11   2    2.73    0.92
   3  11   3    2.01    0.84
   3  11   4   -0.86    0.70
   3  11   5    0.52    0.65
   3  12  -9    0.01    0.48
   3  12  -8   16.79    1.99
   3  12  -7   17.45    2.02
   3  12  -6    0.18    0.52
   3  12  -5   -0.81    0.59
   3  12  -4   33.96    2.83
   3  12  -3    8.47    1.51
   3  12  -2    4.44    1.18
   3  12  -1    2.15    0.93
   3  12   0   37.84    3.10
   3  12   1    0.39    0.59
   3  13  -7    1.47    0.70
   3  13  -6    6.83    1.44
   3  13  -5    2.64    0.95
  -4  14   0   -0.98    0.87
  -4  14  -1    1.04    0.69
  -4  14  -2    6.88    1.38
  -4  14  -3    1.95    0.93
  -4  14  -4    4.59    1.19
  -4  13   3    6.96    1.43
  -4  13   2    2.32    0.93
  -4  13   1    1.59    0.89
  -4  13   0    0.01    0.51
  -4  13  -1    1.61    0.91
  -4  13  -2    9.66    1.55
  -4  13  -3    0.21    0.53
  -4  13  -4    0.27    0.51
  -4  13  -5    2.48    0.84
   4 -13   6    3.78    0.96
   4 -13   7    5.36    1.09
   4 -13   8    6.74    1.31
   4 -13   9    9.97    1.65
   4 -12  -6   31.75    2.97
  -4  12   6   33.69    3.18
   4 -12  -5    2.88    1.01
  -4  12   5    3.41    1.08
   4 -12  -4    5.58    1.26
  -4  12   4    6.05    1.40
   4 -12  -3   33.00    2.80
  -4  12   3   32.12    2.94
   4 -12  -2   31.61    2.74
  -4  12   2   29.49    2.73
  -4  12   1    0.72    0.77
   4 -12   0    0.29    0.30
  -4  12   0    0.86    0.67
   4 -12   1   25.34    1.79
  -4  12  -1   26.14    2.43
   4 -12   2   10.94    1.22
  -4  12  -2   12.90    1.73
   4 -12   3    1.83    0.58
  -4  12  -3    2.65    0.78
   4 -12   4    9.71    1.25
  -4  12  -4    7.46    1.38
   4 -12   5    4.07    0.88
  -4  12  -5    3.89    0.93
   4 -12   6    2.24    0.60
  -4  12  -6    2.06    0.64
   4 -12   7   12.09    1.54
   4 -12   8    1.27    0.75
   4 -12   9   -1.02    0.75
   4 -12  10    8.42    1.52
   4 -11 -10    0.73    0.60
   4 -11  -8   47.66    3.61
  -4  11   8   46.55    3.82
   4 -11  -7    0.63    0.61
  -4  11   7    2.23    1.03
   4 -11  -6    2.54    0.82
  -4  11   6    0.93    0.56
   4 -11  -5   82.57    4.55
  -4  11   5   90.36    4.93
   4 -11  -4   34.69    2.80
  -4  11   4   34.93    2.95
   4 -11  -3    1.87    0.78
  -4  11   3    2.97    1.00
   4 -11  -2   -0.18    0.27
   4 -11  -2    0.10    0.45
  -4  11   2    0.64    0.56
   4 -11  -1   83.07    3.22
   4 -11  -1   82.73    4.23
  -4  11   1   87.17    4.45
   4 -11   0   19.25    1.51
   4 -11   0   20.36    2.00
  -4  11   0   22.69    2.16
   4 -11   1    2.27    0.58
  -4  11  -1    2.53    0.97
   4 -11   2    0.45    0.35
  -4  11  -2    0.85    0.53
   4 -11   3   63.26    3.09
  -4  11  -3   62.82    3.45
   4 -11   4    7.76    1.09
  -4  11  -4    7.16    1.14
   4 -11   5    0.19    0.36
  -4  11  -5    0.10    0.48
   4 -11   6    4.33    0.87
  -4  11  -6    4.24    0.86
   4 -11   7   22.05    2.06
  -4  11  -7   22.17    1.79
   4 -11   8    5.43    1.11
   4 -11   9    5.15    1.10
   4 -11  10    5.68    1.14
   4 -11  11    5.75    1.25
   4 -10 -12    2.88    1.03
   4 -10 -11    4.20    1.13
   4 -10 -10    6.47    1.34
  -4  10  10   10.05    1.83
   4 -10 -10    6.20    1.43
   4 -10  -9    5.06    1.10
  -4  10   9    3.67    1.24
   4 -10  -9    4.83    1.31
   4 -10  -8    2.03    0.96
  -4  10   8    3.62    1.17
   4 -10  -7   36.23    2.97
  -4  10   7   37.70    3.18
   4 -10  -6    1.74    0.68
  -4  10   6    1.71    0.66
   4 -10  -5    2.24    0.89
  -4  10   5    1.90    0.82
  -4  10   4   11.29    1.31
   4 -10  -4   14.95    1.75
  -4  10   4   17.62    1.99
  -4  10   3   17.67    1.58
   4 -10  -3   20.52    2.02
  -4  10   3   24.61    2.30
   4 -10  -2   13.14    1.58
  -4  10   2   10.53    1.18
  -4  10   2   14.19    1.74
  -4  10   1   23.32    1.83
   4 -10  -1   27.50    2.22
  -4  10   1   26.21    2.24
   4 -10   0   65.66    3.45
   4 -10   0   69.60    2.96
  -4  10   0   75.18    3.81
   4 -10   1  112.83    4.04
   4 -10   1  114.10    4.59
  -4  10  -1  118.59    4.83
   4 -10   2   23.57    1.76
   4 -10   2   24.00    1.92
  -4  10  -2   23.35    2.00
   4 -10   3   11.24    1.25
  -4  10  -3   12.84    1.43
   4 -10   4   53.78    2.88
   4 -10   4   50.98    2.70
  -4  10  -4   57.09    2.99
   4 -10   5   32.72    2.28
   4 -10   5   29.05    1.95
  -4  10  -5   38.87    2.38
   4 -10   6    1.21    0.62
  -4  10  -6    0.55    0.33
   4 -10   7    8.03    1.22
  -4  10  -7    6.40    0.89
   4 -10   8   72.13    3.87
   4 -10   9    6.86    1.31
   4 -10  10    1.53    0.79
   4 -10  11   15.69    1.98
   4  -9 -13   -0.88    0.88
   4  -9 -12    2.26    1.08
   4  -9 -11   10.30    1.71
   4  -9 -11    6.38    1.36
  -4   9  11   10.22    1.73
   4  -9 -10    3.13    0.97
  -4   9  10    2.99    1.16
   4  -9 -10    2.90    0.91
   4  -9  -9    0.96    0.57
  -4   9   9    1.15    0.80
   4  -9  -9    2.48    0.88
   4  -9  -8   12.91    1.79
  -4   9   8   12.41    1.80
   4  -9  -7   59.97    2.65
   4  -9  -7   65.57    3.81
  -4   9   7   67.99    4.09
   4  -9  -6    0.72    0.37
   4  -9  -6    1.36    0.69
  -4   9   6    1.70    1.59
   4  -9  -5    9.28    0.95
   4  -9  -5    9.25    1.39
  -4   9   5    7.78    1.31
   4  -9  -4   69.17    3.66
  -4   9   4   60.91    3.00
  -4   9   4   71.84    3.88
  -4   9   3   68.75    3.16
   4  -9  -3   74.84    3.75
  -4   9   3   74.69    3.88
   4  -9  -2    5.82    1.02
  -4   9   2    5.54    0.85
  -4   9   2    5.84    1.10
   4  -9  -1    4.42    0.92
  -4   9   1    4.84    0.95
   4  -9   0  208.75    6.56
  -4   9   0  232.40    7.00
   4  -9   1    1.86    0.49
   4  -9   1    2.13    0.60
   4  -9   1    2.05    0.66
  -4   9  -1    2.45    0.64
   4  -9   2   79.81    3.33
   4  -9   2   82.73    3.52
   4  -9   2   77.50    3.41
  -4   9  -2   87.34    3.74
   4  -9   3  177.06    5.56
   4  -9   3  178.89    5.50
  -4   9  -3  199.43    5.94
   4  -9   3  174.57    5.44
   4  -9   4    5.25    0.85
   4  -9   4    5.65    0.84
  -4   9  -4    5.66    0.87
   4  -9   5    1.15    0.44
   4  -9   5    0.47    0.32
  -4   9  -5    0.58    0.37
   4  -9   6   11.03    1.33
   4  -9   6    9.22    0.97
  -4   9  -6    8.08    0.95
   4  -9   7    2.30    0.74
   4  -9   7    0.85    0.25
   4  -9   8    5.87    1.02
   4  -9   9   21.27    2.19
   4  -9  10    8.27    1.35
   4  -9  11    2.87    0.90
   4  -9  12    0.79    0.61
   4  -8 -13   -1.52    0.78
   4  -8 -13    0.66    0.60
   4  -8 -12   12.76    1.79
   4  -8 -12   15.09    1.89
   4  -8 -11   16.50    2.05
   4  -8 -11   16.40    1.97
   4  -8 -10    7.50    1.41
   4  -8 -10    5.38    1.08
  -4   8  10    4.59    1.23
   4  -8  -9   12.83    1.30
   4  -8  -9   13.37    1.75
  -4   8   9   11.72    1.78
   4  -8  -9   16.12    1.92
   4  -8  -8    8.44    0.98
   4  -8  -8    9.58    1.47
  -4   8   8    9.42    1.52
   4  -8  -8    8.58    1.38
   4  -8  -7   11.68    1.14
   4  -8  -7   14.22    1.68
  -4   8   7   12.72    1.73
   4  -8  -6   36.12    1.97
   4  -8  -6   37.11    2.62
  -4   8   6   41.41    2.95
   4  -8  -5   10.12    1.31
  -4   8   5    9.10    1.10
  -4   8   5    9.92    1.42
   4  -8  -4   -0.21    0.49
  -4   8   4    0.30    0.29
  -4   8   4    0.87    0.54
   4  -8  -3   24.21    1.96
  -4   8   3   20.28    1.60
  -4   8   3   28.64    2.22
   4  -8  -2  142.74    5.03
  -4   8   2  124.41    4.43
  -4   8   2  149.00    5.27
   4  -8  -1   10.06    1.22
   4  -8  -1    9.18    1.13
  -4   8   1    8.39    1.17
   4  -8   0    9.82    1.19
   4  -8   0    8.84    1.09
  -4   8   0    9.78    1.23
   4  -8   1   59.96    2.87
   4  -8   1   63.52    2.96
  -4   8  -1   67.46    3.13
   4  -8   2   34.30    2.05
   4  -8   2   34.73    2.06
   4  -8   2   32.88    2.01
  -4   8  -2   38.11    2.24
   4  -8   3    5.86    0.89
   4  -8   3    5.34    0.79
   4  -8   3    6.11    0.82
  -4   8  -3    4.90    0.80
   4  -8   4   28.44    1.98
   4  -8   4   32.70    1.86
  -4   8  -4   34.81    2.02
   4  -8   4   33.03    1.85
   4  -8   5  173.02    5.61
   4  -8   5  166.88    4.73
  -4   8  -5  185.78    5.11
   4  -8   6   57.98    3.05
   4  -8   6   56.89    2.27
   4  -8   7   52.96    3.02
   4  -8   7   56.98    2.11
   4  -8   8    6.42    1.13
   4  -8   9  121.70    5.12
   4  -8  10   10.42    1.65
   4  -8  11   18.60    2.03
   4  -8  12    7.04    1.36
   4  -8  13   26.51    2.61
   4  -7 -14   42.74    3.35
   4  -7 -14   40.13    3.23
   4  -7 -14   38.25    2.92
   4  -7 -13    0.69    0.64
   4  -7 -13    0.30    0.47
   4  -7 -13   -0.01    0.47
   4  -7 -12    4.24    1.08
   4  -7 -12    4.34    1.08
   4  -7 -12    3.86    0.96
   4  -7 -11    0.30    0.54
   4  -7 -11    0.09    0.48
   4  -7 -10   45.27    3.10
   4  -7 -10   44.14    3.02
   4  -7  -9    7.32    1.11
   4  -7  -9    9.95    1.49
   4  -7  -9   11.39    1.57
  -4   7   9    8.86    1.58
   4  -7  -8    3.39    0.88
   4  -7  -8    3.03    1.13
  -4   7   8    2.90    1.37
   4  -7  -8    4.50    1.38
   4  -7  -7   24.14    2.08
   4  -7  -7   22.59    1.60
   4  -7  -7   22.62    2.02
  -4   7   7   23.15    2.15
   4  -7  -6   30.70    1.83
   4  -7  -6   30.91    2.33
  -4   7   6   35.79    2.61
   4  -7  -5   22.36    1.88
  -4   7   5   20.68    1.62
  -4   7   5   22.76    2.02
  -4   7   4   17.10    1.46
   4  -7  -4   20.16    1.75
  -4   7   4   18.59    1.77
  -4   7   3   20.00    1.55
   4  -7  -3   23.49    1.84
   4  -7  -3   25.29    1.90
  -4   7   3   23.74    1.93
  -4   7   2   21.07    1.59
   4  -7  -2   25.56    1.87
   4  -7  -2   24.80    1.88
  -4   7   2   24.11    1.89
   4  -7  -1   92.29    3.67
   4  -7  -1   97.42    3.77
  -4   7   1   98.91    3.93
   4  -7   0   82.97    3.36
   4  -7   0   84.82    3.40
  -4   7   0   93.59    3.69
   4  -7   1    8.26    1.02
   4  -7   1    8.97    1.05
  -4   7  -1   10.42    1.18
   4  -7   2    0.33    0.33
   4  -7   2    0.46    0.29
  -4   7  -2    0.49    0.31
   4  -7   3   73.47    3.14
   4  -7   3   75.81    2.89
   4  -7   3   73.53    2.85
  -4   7  -3   81.70    3.13
   4  -7   4   71.09    3.18
   4  -7   4   75.90    2.76
   4  -7   4   73.68    2.73
  -4   7  -4   77.32    2.91
   4  -7   5   67.98    3.16
   4  -7   5   67.47    2.46
   4  -7   5   65.66    2.43
   4  -7   6   36.39    2.33
   4  -7   6   34.50    1.56
   4  -7   7  102.09    4.24
   4  -7   7  102.82    2.78
   4  -7   8   85.26    3.97
   4  -7   9    4.55    0.94
   4  -7  10   56.24    3.40
   4  -7  11   25.87    1.59
   4  -7  11   27.57    2.44
   4  -7  12    9.32    1.45
   4  -7  13    7.39    1.43
   4  -6 -16   20.33    2.30
   4  -6 -15    2.65    0.95
   4  -6 -15    1.72    0.72
   4  -6 -14   32.75    2.77
   4  -6 -14   36.88    3.00
   4  -6 -14   29.28    2.39
   4  -6 -13    2.56    0.81
   4  -6 -13    4.23    1.08
   4  -6 -13    3.10    0.80
   4  -6 -12   27.22    2.42
   4  -6 -12   27.41    2.44
   4  -6 -12   24.37    2.15
   4  -6 -11    3.32    0.90
   4  -6 -11    3.58    0.93
   4  -6 -11    2.12    0.64
   4  -6 -10   59.29    3.30
   4  -6 -10   53.63    3.26
   4  -6 -10   52.04    3.14
   4  -6  -9    7.00    0.98
   4  -6  -9   10.49    1.34
   4  -6  -9    8.01    1.22
   4  -6  -9    7.85    1.21
   4  -6  -8  161.75    5.01
   4  -6  -8  159.52    5.70
   4  -6  -7  183.37    5.28
   4  -6  -7  178.90    6.06
  -4   6   7  185.10    6.32
   4  -6  -6    6.84    0.87
  -4   6   6    6.87    1.12
   4  -6  -6    6.14    0.99
  -4   6   5   65.06    2.97
   4  -6  -5   68.19    3.34
   4  -6  -5   70.88    3.35
  -4   6   5   67.62    3.39
  -4   6   4   13.10    1.23
  -4   6   4   13.83    1.45
   4  -6  -4   16.32    1.51
   4  -6  -3    0.21    0.30
  -4   6   3    0.57    0.30
  -4   6   3    0.80    0.52
  -4   6   2   14.95    1.28
   4  -6  -2   15.87    1.39
  -4   6   2   17.69    1.52
   4  -6  -1   86.74    3.37
  -4   6   1   83.74    3.44
   4  -6   0   26.30    1.69
  -4   6   0   26.57    1.77
   4  -6   1   43.25    2.15
  -4   6  -1   50.64    2.40
   4  -6   2   18.86    1.31
  -4   6  -2   20.52    1.42
   4  -6   3    7.15    0.77
   4  -6   3    6.18    0.72
   4  -6   4  103.63    3.83
   4  -6   4   97.97    3.05
   4  -6   4   99.27    3.06
   4  -6   5  117.04    4.22
   4  -6   5  114.78    3.17
   4  -6   5  107.28    3.11
   4  -6   6    4.74    0.49
   4  -6   6    3.85    0.44
   4  -6   6    3.79    0.75
   4  -6   7    2.17    0.28
   4  -6   7    2.76    0.77
   4  -6   8  152.17    5.43
   4  -6   9   13.25    1.54
   4  -6   9   16.17    1.24
   4  -6  10    1.19    0.61
   4  -6  10    0.81    0.37
   4  -6  10    0.61    0.34
   4  -6  11   39.39    1.71
   4  -6  11   42.89    2.99
   4  -6  12   79.89    4.27
   4  -6  13    2.19    0.85
   4  -6  14    5.05    1.21
   4  -5 -16   22.65    2.30
   4  -5 -15   22.06    2.42
   4  -5 -15   20.05    2.11
   4  -5 -14    2.35    0.87
   4  -5 -14    2.41    0.86
   4  -5 -14    1.72    0.58
   4  -5 -13   58.02    3.63
   4  -5 -13   55.89    3.48
   4  -5 -13   50.61    3.02
   4  -5 -12    0.22    0.49
   4  -5 -12   -0.69    0.53
   4  -5 -12   -0.36    0.52
   4  -5 -11   85.64    4.17
   4  -5 -11   75.52    3.72
   4  -5 -10    5.50    1.00
   4  -5 -10    6.03    1.03
   4  -5  -9  152.87    5.44
   4  -5  -9  144.42    5.20
   4  -5  -9  144.15    4.88
   4  -5  -8   60.08    3.10
   4  -5  -8   53.66    2.68
   4  -5  -8   54.46    2.99
   4  -5  -7  167.47    4.93
   4  -5  -7  154.17    5.34
   4  -5  -6   17.99    1.37
   4  -5  -6   15.89    1.51
   4  -5  -6   13.16    1.39
  -4   5   5    0.91    0.36
   4  -5  -5    1.65    0.45
   4  -5  -5    1.17    0.50
  -4   5   4  177.33    5.23
   4  -5  -4  174.66    5.52
   4  -5  -4  184.21    5.51
  -4   5   4  175.99    5.52
  -4   5   3   33.90    1.93
   4  -5  -3   35.07    2.13
   4  -5  -3   36.78    2.12
  -4   5   3   38.28    2.20
   4  -5  -2   31.86    1.89
  -4   5   2   28.93    1.86
   4  -5  -1    9.61    0.97
   4  -5   0  190.07    5.16
   4  -5   1   84.93    2.98
   4  -5   2    6.65    0.73
   4  -5   3   16.79    1.10
   4  -5   4   51.95    2.53
   4  -5   4   50.73    1.91
   4  -5   5    9.61    1.07
   4  -5   5    8.41    0.65
   4  -5   5    8.49    0.66
   4  -5   6    9.45    1.16
   4  -5   6    9.90    0.61
   4  -5   6    9.23    0.60
   4  -5   7   10.42    1.27
   4  -5   7    9.71    0.94
   4  -5   7    9.55    0.43
   4  -5   8    0.26    0.39
   4  -5   8    0.16    0.26
   4  -5   9   28.24    2.26
   4  -5   9   29.70    1.51
   4  -5  10   62.33    3.43
   4  -5  10   59.25    1.97
   4  -5  10   61.78    1.94
   4  -5  11   -0.58    0.43
   4  -5  11    0.36    0.13
   4  -5  12    0.11    0.51
   4  -5  13   50.45    3.42
   4  -5  14   25.85    2.49
   4  -4 -16    3.05    0.93
   4  -4 -15   45.19    3.41
   4  -4 -15   36.69    2.85
   4  -4 -14    1.82    0.75
   4  -4 -14   -0.11    0.53
   4  -4 -14    1.07    0.45
   4  -4 -13    5.77    1.14
   4  -4 -13    6.08    1.04
   4  -4 -12   59.21    3.49
   4  -4 -12   48.70    2.79
   4  -4 -11   39.62    2.70
   4  -4 -11   37.12    2.39
   4  -4 -10   41.69    2.68
   4  -4 -10   37.32    2.37
   4  -4  -9   12.74    1.46
   4  -4  -9   11.27    1.30
   4  -4  -9   15.83    1.57
   4  -4  -8  376.42    9.18
   4  -4  -8  354.87    8.57
   4  -4  -8  328.95    8.67
   4  -4  -8  357.53    9.15
   4  -4  -7    5.51    0.86
   4  -4  -7    6.10    1.02
   4  -4  -7    5.16    0.85
   4  -4  -7    4.65    0.82
   4  -4  -6   90.24    3.31
   4  -4  -6   87.72    3.60
   4  -4  -6   96.69    3.77
  -4   4   5   16.75    1.37
   4  -4  -5   18.49    1.53
   4  -4  -5   18.33    1.51
  -4   4   4  229.51    6.09
   4  -4  -4  226.68    6.27
   4  -4  -4  233.42    6.27
  -4   4   3   23.42    1.57
   4  -4  -3   25.59    1.72
   4  -4  -3   25.74    1.68
   4  -4  -2  311.67    7.69
   4  -4  -2  326.40    7.61
   4  -4  -1   18.99    1.44
   4  -4  -1   16.52    1.25
   4  -4   0  408.67    9.09
   4  -4   0  408.74    8.80
   4  -4   1   10.12    0.90
   4  -4   1   10.31    1.02
   4  -4   2  139.60    4.12
   4  -4   2  137.41    3.76
   4  -4   3   11.05    1.01
   4  -4   3    8.74    0.74
   4  -4   4   98.53    3.59
   4  -4   4   99.87    3.23
   4  -4   4   97.91    2.74
   4  -4   5    4.72    0.74
   4  -4   5    4.74    0.46
   4  -4   5    4.83    0.64
   4  -4   6    1.81    0.57
   4  -4   6    1.89    0.24
   4  -4   6    2.23    0.43
   4  -4   7   17.91    1.56
   4  -4   7   18.12    1.12
   4  -4   8    1.87    0.58
   4  -4   8    2.49    0.40
   4  -4   9    4.77    0.96
   4  -4   9    4.50    0.47
   4  -4  10   -0.51    0.45
   4  -4  11    1.59    0.70
   4  -4  12    0.29    0.48
   4  -4  13    5.65    1.16
   4  -4  14   -0.17    0.69
   4  -4  15   12.33    1.84
   4  -3 -16    3.80    0.92
   4  -3 -15    4.28    1.23
   4  -3 -15    2.29    0.74
   4  -3 -14   23.99    2.39
   4  -3 -14   19.54    1.71
   4  -3 -13   47.64    3.27
   4  -3 -13   44.58    2.57
   4  -3 -12   -0.57    0.61
   4  -3 -12    0.19    0.40
   4  -3 -11   -0.05    0.38
   4  -3 -11    0.48    0.43
   4  -3 -10  151.32    5.38
   4  -3 -10  134.99    4.69
   4  -3  -9   70.65    3.40
   4  -3  -9   67.73    3.17
   4  -3  -9   74.46    3.23
   4  -3  -9   74.11    3.44
   4  -3  -8   11.72    1.28
   4  -3  -8   10.32    1.34
   4  -3  -8   11.14    1.27
   4  -3  -8   10.64    1.21
   4  -3  -7  162.26    5.08
   4  -3  -7  150.28    4.68
   4  -3  -7  146.78    4.78
   4  -3  -7  156.17    5.06
   4  -3  -6  600.72   12.33
   4  -3  -6  560.29   11.82
   4  -3  -6  537.85   11.98
   4  -3  -6  571.81   12.33
  -4   3   5   13.07    1.19
   4  -3  -5   12.34    1.17
   4  -3  -5   11.35    1.15
  -4   3   4   10.88    1.05
   4  -3  -4   10.88    1.09
   4  -3  -4   11.44    1.11
  -4   3   3  740.67   14.84
   4  -3  -3  745.64   15.01
   4  -3  -3  807.24   15.27
   4  -3  -2 1253.03   23.78
   4  -3  -2 1347.49   23.88
   4  -3  -1  223.38    5.82
   4  -3  -1  241.56    5.87
   4  -3   0  391.27    8.67
   4  -3   0  410.64    8.59
   4  -3   1 1331.02   24.22
   4  -3   1 1359.59   23.96
   4  -3   2  148.51    4.10
   4  -3   2  148.68    3.86
   4  -3   3    6.75    0.72
   4  -3   3    7.88    0.68
   4  -3   4  164.22    4.28
   4  -3   4  179.67    4.06
   4  -3   5  579.74   12.24
   4  -3   5  551.39   11.00
   4  -3   5  595.44   10.62
   4  -3   6  100.90    3.73
   4  -3   6   92.81    2.70
   4  -3   6   93.44    2.27
   4  -3   7    0.51    0.41
   4  -3   7    0.29    0.09
   4  -3   7    0.39    0.21
   4  -3   7    0.34    0.10
   4  -3   8   52.29    1.52
   4  -3   8   52.97    2.80
   4  -3   9   77.28    3.59
   4  -3  10   -0.78    0.54
   4  -3  11    5.21    1.02
   4  -3  12   25.76    2.24
   4  -3  13   12.98    1.72
   4  -3  14    0.84    0.58
   4  -3  15   -0.26    0.53
   4  -2 -16    0.81    0.54
   4  -2 -15    0.10    0.52
   4  -2 -15    0.31    0.34
   4  -2 -14    3.95    1.02
   4  -2 -14    3.74    0.75
   4  -2 -13    6.00    1.22
   4  -2 -13    4.30    0.80
   4  -2 -12    4.38    0.97
   4  -2 -12    3.21    0.69
   4  -2 -11    0.12    0.48
   4  -2 -11   -0.29    0.31
   4  -2 -10   -0.40    0.41
   4  -2 -10    0.49    0.47
   4  -2 -10    0.35    0.35
   4  -2  -9   19.09    1.68
   4  -2  -9   22.04    1.70
   4  -2  -9   20.80    1.56
   4  -2  -9   19.63    1.64
   4  -2  -8   96.08    3.81
   4  -2  -8   93.24    3.61
   4  -2  -8   85.80    3.37
   4  -2  -8   89.64    3.67
   4  -2  -7    2.86    0.58
   4  -2  -7    1.97    0.52
   4  -2  -7    2.51    0.55
   4  -2  -7    2.97    0.65
   4  -2  -6    0.07    0.22
   4  -2  -6    0.36    0.36
   4  -2  -6    0.04    0.29
   4  -2  -6   -0.26    0.29
  -4   2   6    0.91    0.40
   4  -2  -5  129.67    4.08
  -4   2   5  121.70    3.95
   4  -2  -5  120.26    3.85
  -4   2   5  124.52    4.04
   4  -2  -5  118.47    3.90
   4  -2  -5  125.19    4.14
  -4   2   4  169.77    4.79
   4  -2  -4  167.03    4.78
  -4   2   4  178.08    4.93
   4  -2  -4  167.34    4.87
  -4   2   3    7.15    0.80
   4  -2  -3    7.08    0.81
  -4   2   3    6.66    0.81
  -4   2   2   97.32    3.24
   4  -2  -2  101.44    3.34
  -4   2   2  108.57    3.44
  -4   2   1  743.07   14.10
   4  -2  -1  711.23   13.96
  -4   2   0   95.61    3.09
   4  -2   0   94.88    3.06
   4  -2   1   27.19    1.48
  -4   2  -1   27.81    1.51
   4  -2   2  571.92   11.15
  -4   2  -2  581.62   11.24
   4  -2   3  527.34   10.21
   4  -2   4  151.06    3.73
   4  -2   5  100.71    3.56
   4  -2   5   97.28    2.64
   4  -2   6  498.38   10.80
   4  -2   6  481.91    9.05
   4  -2   7  170.38    5.21
   4  -2   7  167.03    3.49
   4  -2   7  162.50    3.42
   4  -2   8   78.40    3.44
   4  -2   8   57.91    1.47
   4  -2   8   59.29    1.48
   4  -2   9   42.53    2.64
   4  -2  10  172.03    5.82
   4  -2  11    5.24    1.01
   4  -2  12    0.05    0.44
   4  -2  13   40.20    2.90
   4  -2  14   42.61    3.12
   4  -2  15    0.96    0.65
   4  -1 -16   15.14    2.08
   4  -1 -15   10.34    1.58
   4  -1 -15   10.18    1.12
   4  -1 -14    1.54    0.72
   4  -1 -14    3.71    0.78
   4  -1 -13    7.30    1.21
   4  -1 -13    5.15    0.84
   4  -1 -12   -0.26    0.40
   4  -1 -12   -0.76    0.50
   4  -1 -11    5.19    0.96
   4  -1 -11    4.23    0.71
   4  -1 -11    3.85    0.73
   4  -1 -10    0.97    0.54
   4  -1 -10    1.15    0.47
   4  -1 -10    0.19    0.31
  -4   1  10    0.76    0.30
   4  -1  -9    3.09    0.69
   4  -1  -9    3.88    0.79
   4  -1  -9    3.38    0.67
   4  -1  -9    4.01    0.76
  -4   1   9    2.87    0.63
   4  -1  -8   -0.11    0.24
   4  -1  -8   -0.27    0.42
   4  -1  -8   -0.23    0.28
   4  -1  -8    0.29    0.29
  -4   1   8    0.40    0.31
   4  -1  -7    1.09    0.43
   4  -1  -7    1.12    0.41
   4  -1  -7    0.27    0.31
  -4   1   7    0.94    0.44
   4  -1  -7    0.61    0.30
   4  -1  -6    0.37    0.28
   4  -1  -6    0.17    0.28
   4  -1  -6    0.02    0.33
  -4   1   6    0.01    0.27
   4  -1  -5    4.99    0.72
   4  -1  -5    5.73    0.75
   4  -1  -5    4.21    0.62
  -4   1   5    6.75    0.82
   4  -1  -4   18.71    1.33
  -4   1   4   17.95    1.27
   4  -1  -4   17.99    1.28
  -4   1   4   19.94    1.35
  -4   1   3   89.25    3.00
   4  -1  -3   84.28    2.96
  -4   1   3   93.50    3.11
  -4   1   2    6.00    0.71
   4  -1  -2    5.52    0.74
  -4   1   2    5.03    0.66
  -4   1   1    2.58    0.47
   4  -1  -1    2.48    0.43
   4  -1   0  303.77    6.70
  -4   1   0  314.81    6.83
   4  -1   1  126.18    3.43
  -4   1  -1  127.21    3.51
  -4   1  -2  117.58    3.26
   4  -1   2  115.40    3.17
  -4   1  -3   14.43    0.94
   4  -1   3   14.47    0.92
  -4   1  -4  132.07    3.38
   4  -1   4  126.44    3.22
   4  -1   5   89.39    3.27
  -4   1  -5   92.96    2.58
   4  -1   5   90.43    2.44
   4  -1   6  123.99    4.06
   4  -1   6  116.85    2.78
   4  -1   6  117.18    2.97
   4  -1   7   15.69    1.36
   4  -1   7   14.84    0.66
   4  -1   7   14.44    0.82
   4  -1   8  201.52    5.83
   4  -1   8  187.92    4.20
   4  -1   8  190.02    4.22
   4  -1   9    5.41    0.95
   4  -1   9    4.72    0.51
   4  -1  10  110.27    4.36
   4  -1  10  102.94    2.59
   4  -1  11   81.94    3.84
   4  -1  11   79.87    2.07
   4  -1  12   59.88    3.35
   4  -1  13    4.78    1.01
   4  -1  14    7.09    1.27
   4  -1  15   39.32    3.05
   4  -1  16    1.26    1.05
   4   0 -16   11.89    1.89
   4   0 -15   45.95    3.37
   4   0 -15   40.51    2.32
   4   0 -14   11.55    1.65
   4   0 -14   12.02    1.22
   4   0 -13   66.51    3.75
   4   0 -13   58.36    2.80
   4   0 -12   15.64    1.76
   4   0 -12   14.45    1.31
  -4   0  12   12.44    1.26
   4   0 -12   13.30    1.43
   4   0 -11   38.38    2.58
  -4   0  11   34.93    2.18
   4   0 -11   35.84    2.08
   4   0 -11   36.34    2.32
   4   0 -10    2.80    0.76
   4   0 -10    1.92    0.53
   4   0 -10    3.01    0.71
  -4   0  10    2.65    0.61
   4   0  -9   68.50    3.25
   4   0  -9   65.02    3.15
  -4   0   9   80.24    3.28
   4   0  -9   75.79    3.04
   4   0  -9   76.66    3.31
   4   0  -8    7.45    1.01
   4   0  -8    6.72    0.95
   4   0  -8    4.93    0.74
  -4   0   8    4.17    0.69
   4   0  -7    7.51    0.94
   4   0  -7    6.14    0.83
   4   0  -7    5.54    0.71
  -4   0   7    6.56    0.86
   4   0  -6    8.39    0.94
   4   0  -6    9.57    0.99
   4   0  -6    8.10    0.91
  -4   0   6    8.80    0.95
   4   0  -5    1.06    0.35
   4   0  -5    0.60    0.29
   4   0  -5    0.64    0.39
  -4   0   5    0.19    0.23
   4   0  -4   48.89    2.13
  -4   0   4   44.56    2.02
  -4   0   4   45.55    2.09
   4   0  -4   45.79    2.08
  -4   0   3   41.53    1.89
  -4   0   3   45.58    2.01
   4   0  -3   44.29    1.98
  -4   0   2   11.28    0.90
  -4   0   2   12.08    0.97
   4   0  -2   11.83    0.96
  -4   0   1   14.39    1.04
   4   0  -1   14.25    1.03
   4   0   0    0.47    0.27
  -4   0   0    1.19    0.34
  -4   0  -1   45.95    1.86
   4   0   1   46.17    1.83
  -4   0  -2   86.19    2.65
   4   0   2   84.67    2.58
   4   0   3    1.16    0.32
  -4   0  -3    0.51    0.22
  -4   0  -4   13.90    0.88
   4   0   4   14.93    0.88
   4   0   5    0.46    0.26
   4   0   5    0.57    0.29
   4   0   5    0.56    0.24
  -4   0  -5   -0.06    0.18
   4   0   6  256.53    6.52
   4   0   6  256.06    5.25
  -4   0  -6  263.96    5.39
   4   0   6  253.69    5.66
   4   0   7   99.70    3.64
  -4   0  -7  101.84    2.51
   4   0   7   98.31    2.90
   4   0   8   85.83    3.45
   4   0   8   84.96    2.66
   4   0   8   88.22    2.70
   4   0   9  199.83    5.96
   4   0   9  187.52    4.63
   4   0   9  193.91    4.70
   4   0  10    0.69    0.48
   4   0  10    0.64    0.29
   4   0  11   47.75    2.79
   4   0  11   44.40    1.82
   4   0  12    0.43    0.50
   4   0  12    0.23    0.24
   4   0  13   46.29    3.01
   4   0  14   -0.16    0.50
   4   0  15   30.39    2.67
   4   0  16    2.40    0.75
   4   1 -16   22.64    2.48
   4   1 -15   86.59    4.73
   4   1 -15   88.09    3.57
   4   1 -14    5.85    1.24
   4   1 -14    4.41    0.68
   4   1 -13    4.97    1.00
   4   1 -13    4.31    0.73
  -4  -1  13    3.78    0.80
   4   1 -13    4.66    0.84
   4   1 -12  189.02    6.50
  -4  -1  12  190.67    5.86
   4   1 -12  183.16    5.47
   4   1 -12  176.67    5.87
   4   1 -11  119.85    4.78
   4   1 -11  116.72    4.08
  -4  -1  11  123.16    4.37
   4   1 -11  115.79    4.42
   4   1 -10   20.17    1.74
   4   1 -10   19.37    1.48
  -4  -1  10   19.21    1.54
   4   1  -9    2.90    0.69
   4   1  -9    5.42    0.92
  -4  -1   9    4.77    0.92
   4   1  -8  327.70    8.19
  -4  -1   8  334.12    7.98
   4   1  -8  316.03    7.69
   4   1  -8  332.05    8.23
   4   1  -7  302.52    7.47
  -4  -1   7  302.73    7.33
   4   1  -7  289.00    7.13
   4   1  -7  304.05    7.54
   4   1  -6   75.40    2.95
  -4  -1   6   74.11    2.89
   4   1  -6   69.53    2.78
   4   1  -6   71.77    2.89
   4   1  -5  112.94    3.55
  -4  -1   5  108.05    3.56
   4   1  -5  103.56    3.46
   4   1  -5  101.75    3.47
   4   1  -4  128.47    3.75
   4   1  -4  122.81    3.76
  -4  -1   4  125.33    3.80
   4   1  -4  124.46    3.79
  -4  -1   3    7.00    0.72
   4   1  -3    7.64    0.81
  -4  -1   3    6.88    0.77
  -4  -1   2    2.72    0.42
   4   1  -2    1.70    0.40
  -4  -1   2    2.37    0.49
  -4  -1   1  151.60    4.11
   4   1  -1  148.66    4.06
   4   1   0  111.75    3.29
  -4  -1   0  111.83    3.34
   4   1   1   11.34    0.94
  -4  -1  -1    9.92    0.85
   4   1   2   24.99    1.30
  -4  -1  -2   24.62    1.32
   4   1   3   15.98    1.00
  -4  -1  -3   15.19    1.00
  -4  -1  -4   24.77    1.26
   4   1   4   24.84    1.23
   4   1   5   76.40    2.81
   4   1   5   74.59    2.32
  -4  -1  -5   75.21    2.35
   4   1   5   74.34    2.58
   4   1   6   30.82    1.75
  -4  -1  -6   30.51    1.32
   4   1   6   30.43    1.55
   4   1   7    0.24    0.30
   4   1   7    0.19    0.22
   4   1   7    0.03    0.19
  -4  -1  -7   -0.04    0.15
   4   1   8   17.08    1.21
   4   1   8   16.59    1.40
  -4  -1  -8   16.17    0.83
   4   1   8   17.20    1.20
   4   1   9   92.69    3.21
   4   1   9  104.92    3.93
  -4  -1  -9  104.72    2.31
   4   1   9   99.72    3.29
   4   1  10   14.61    1.43
   4   1  10   13.07    1.08
   4   1  11    2.47    0.70
   4   1  11    2.86    0.57
   4   1  12    3.33    0.87
   4   1  12    2.79    0.58
   4   1  13   20.72    2.00
   4   1  14    3.92    0.92
   4   1  15    4.89    0.99
   4   1  16   17.80    2.04
   4   2 -16    6.01    1.28
   4   2 -15    1.37    0.66
  -4  -2  15    0.66    0.61
   4   2 -15    1.00    0.33
  -4  -2  14  133.42    5.80
   4   2 -14  130.52    4.55
  -4  -2  13   38.80    2.86
   4   2 -13   33.77    2.12
  -4  -2  13   31.48    2.17
   4   2 -13   31.73    2.26
  -4  -2  12   46.66    3.01
  -4  -2  12   45.71    2.58
   4   2 -12   44.81    2.43
   4   2 -12   43.38    2.59
  -4  -2  11   56.53    2.84
   4   2 -11   54.62    2.68
  -4  -2  11   55.84    3.18
   4   2 -10  225.17    6.71
  -4  -2  10  221.54    6.27
   4   2 -10  217.05    6.08
   4   2  -9    1.36    0.82
  -4  -2   9    6.01    1.14
   4   2  -9    6.19    1.17
   4   2  -8   46.64    2.49
  -4  -2   8   44.83    2.36
   4   2  -8   43.12    2.25
   4   2  -8   46.78    2.53
   4   2  -7  375.77    8.66
  -4  -2   7  369.63    8.56
   4   2  -7  365.87    8.50
   4   2  -7  367.14    8.74
   4   2  -6  409.53    9.03
  -4  -2   6  412.29    9.16
   4   2  -6  394.58    8.99
   4   2  -6  403.73    9.15
   4   2  -5   26.79    1.54
   4   2  -5   23.66    1.54
  -4  -2   5   22.67    1.51
   4   2  -5   23.07    1.48
   4   2  -4   20.02    1.26
   4   2  -4   19.17    1.36
  -4  -2   4   18.00    1.30
   4   2  -4   18.75    1.28
  -4  -2   3  375.60    8.22
   4   2  -3  358.79    8.09
   4   2  -3  360.49    7.86
  -4  -2   2   63.38    2.15
  -4  -2   2   68.75    2.61
   4   2  -2   63.83    2.52
  -4  -2   1  253.86    5.47
   4   2  -1  247.00    6.00
  -4  -2   1  248.80    6.04
  -4  -2   0  199.42    5.06
   4   2   0  197.03    5.03
   4   2   1  502.58   10.16
  -4  -2  -1  500.76   10.16
   4   2   2  121.42    3.51
  -4  -2  -2  121.51    3.53
   4   2   3   41.65    1.81
  -4  -2  -3   41.44    1.81
  -4  -2  -4  197.14    4.82
   4   2   4  194.02    4.78
   4   2   4  197.24    5.11
   4   2   5  263.24    6.19
  -4  -2  -5  258.81    5.86
   4   2   5  258.02    6.26
   4   2   6   92.33    3.16
  -4  -2  -6   88.30    2.75
   4   2   6   93.57    3.19
   4   2   7   72.46    2.84
   4   2   7   75.65    2.92
  -4  -2  -7   74.41    2.40
   4   2   7   73.38    2.83
   4   2   8   55.30    2.47
   4   2   8   59.69    2.64
  -4  -2  -8   56.94    1.97
   4   2   8   57.77    2.52
   4   2   9   22.65    1.57
   4   2   9   24.84    1.76
  -4  -2  -9   23.82    1.11
   4   2   9   22.77    1.56
   4   2  10   34.55    2.00
   4   2  10   34.90    2.20
  -4  -2 -10   38.56    1.31
   4   2  10   36.70    2.05
   4   2  11   53.88    2.90
   4   2  11   51.49    2.53
   4   2  12    1.81    0.69
   4   2  12    1.91    0.51
   4   2  13    5.89    1.12
   4   2  14   47.21    3.07
   4   2  15    2.11    0.78
   4   2  16    9.68    1.53
   4   3 -16    8.60    1.58
  -4  -3  15    0.34    0.59
   4   3 -15   -0.35    0.36
  -4  -3  14    1.98    0.76
   4   3 -14    0.98    0.58
  -4  -3  13   43.86    3.08
   4   3 -13   41.35    2.40
   4   3 -13   35.73    2.43
  -4  -3  12   81.55    4.12
  -4  -3  12   84.77    3.67
   4   3 -12   81.19    3.46
  -4  -3  11   25.02    2.11
  -4  -3  11   21.57    1.73
   4   3 -11   22.49    1.71
  -4  -3  10    7.79    1.16
   4   3 -10    7.19    0.94
  -4  -3  10    5.72    0.87
   4   3  -9  269.68    7.33
  -4  -3   9  273.10    7.13
   4   3  -9  265.40    7.02
  -4  -3   9  272.05    7.55
   4   3  -8   42.64    2.38
  -4  -3   8   39.54    2.28
   4   3  -8   42.15    2.30
   4   3  -8   44.36    2.53
   4   3  -7  151.22    4.65
   4   3  -7  150.59    4.71
  -4  -3   7  156.49    4.84
   4   3  -7  150.76    4.78
   4   3  -6  115.20    3.75
   4   3  -6  115.34    3.93
  -4  -3   6  120.00    4.04
   4   3  -6  117.71    3.93
   4   3  -5  200.54    5.14
   4   3  -5  196.59    5.49
  -4  -3   5  206.68    5.61
   4   3  -5  193.86    5.30
   4   3  -4   21.61    1.28
   4   3  -4   19.74    1.47
  -4  -3   4   21.51    1.50
   4   3  -4   20.72    1.35
   4   3  -3  200.27    5.40
  -4  -3   3  206.74    5.48
   4   3  -3  193.71    4.96
   4   3  -2   33.35    1.85
  -4  -3   2   35.99    1.91
   4   3  -2   34.87    1.62
  -4  -3   1  576.80   10.69
   4   3  -1  568.30   11.75
  -4  -3   1  588.53   11.86
  -4  -3   0    0.28    0.18
   4   3   0    0.51    0.35
  -4  -3   0    0.54    0.33
  -4  -3  -1   25.80    1.59
   4   3   1   35.79    1.92
  -4  -3  -2  202.26    5.24
   4   3   2  205.11    5.24
  -4  -3  -3   56.70    2.32
   4   3   3   54.99    2.29
   4   3   3   58.46    2.50
   4   3   4    3.78    0.63
  -4  -3  -4    4.39    0.60
   4   3   4    5.06    0.59
   4   3   5    8.87    0.96
   4   3   5    7.76    0.76
  -4  -3  -5    6.77    0.75
   4   3   6  162.67    4.87
   4   3   6  162.32    4.41
  -4  -3  -6  156.17    4.30
   4   3   6  161.60    4.82
   4   3   7   23.93    1.67
   4   3   7   23.32    1.48
  -4  -3  -7   24.27    1.39
   4   3   7   24.45    1.66
   4   3   8    1.39    0.48
   4   3   8    1.11    0.51
   4   3   8    1.55    0.50
  -4  -3  -8    0.75    0.36
   4   3   9   11.97    1.29
   4   3   9   13.66    1.26
  -4  -3  -9   12.10    0.94
   4   3   9   12.41    1.31
   4   3  10   17.27    1.50
   4   3  10   16.62    1.46
  -4  -3 -10   17.39    1.06
   4   3  10   18.92    1.58
   4   3  11    4.56    0.86
   4   3  11    4.18    0.79
   4   3  12    2.95    0.77
   4   3  12    2.03    0.60
   4   3  13    6.74    1.10
   4   3  13    6.03    0.98
   4   3  14    0.80    0.50
   4   3  15    6.86    1.10
  -4  -4  15    3.58    1.09
  -4  -4  14   12.97    1.74
   4   4 -14   12.88    1.38
  -4  -4  13    2.47    0.83
   4   4 -13    2.87    0.73
  -4  -4  12    7.11    1.20
   4   4 -12    6.40    1.02
  -4  -4  11    0.40    0.46
   4   4 -11   -0.10    0.38
  -4  -4  11    0.82    0.49
  -4  -4  10   10.88    1.33
   4   4 -10   12.00    1.28
  -4  -4  10   11.03    1.27
   4   4  -9   88.80    3.65
  -4  -4   9   97.53    3.87
  -4  -4   9   86.67    3.84
   4   4  -8    0.35    0.32
  -4  -4   8    0.43    0.36
   4   4  -8    0.81    0.51
   4   4  -8    0.32    0.35
   4   4  -7   41.21    2.16
   4   4  -7   39.23    2.26
  -4  -4   7   43.22    2.38
   4   4  -7   45.79    2.40
   4   4  -6  100.86    3.40
   4   4  -6   99.56    3.73
  -4  -4   6  102.33    3.81
   4   4  -6   99.61    3.58
   4   4  -5  117.78    3.56
   4   4  -5  117.58    4.06
  -4  -4   5  116.28    4.08
   4   4  -5  114.85    3.76
   4   4  -4   60.95    2.24
  -4  -4   4   61.03    2.77
   4   4  -4   58.74    2.70
   4   4  -4   62.00    2.46
   4   4  -3  136.17    4.40
  -4  -4   3  144.50    4.51
   4   4  -3  134.87    3.84
   4   4  -2  217.24    5.89
  -4  -4   2  222.61    5.95
   4   4  -2  215.03    5.13
   4   4  -1  391.16    8.93
  -4  -4   1  413.13    9.06
   4   4  -1  382.87    7.94
  -4  -4   0 1986.96   33.73
   4   4   0 2015.74   35.64
  -4  -4   0 2065.92   35.70
  -4  -4  -1   70.95    2.92
   4   4   1   80.14    3.08
   4   4   1   81.18    3.16
  -4  -4  -2  225.48    5.91
   4   4   2  223.00    6.04
  -4  -4  -3   30.42    1.76
   4   4   3   28.45    1.83
   4   4   4  140.57    3.65
  -4  -4  -4  144.56    4.34
   4   4   4  138.53    4.52
   4   4   5    3.12    0.65
   4   4   5    3.14    0.47
  -4  -4  -5    3.91    0.67
   4   4   6   70.09    3.11
   4   4   6   67.06    2.41
  -4  -4  -6   66.75    2.69
   4   4   6   66.72    3.01
   4   4   7   35.15    2.19
   4   4   7   38.93    1.86
  -4  -4  -7   38.77    1.95
   4   4   7   39.20    2.29
   4   4   8   25.83    1.94
   4   4   8   27.70    1.63
  -4  -4  -8   26.92    1.65
   4   4   8   30.39    2.14
   4   4   9   32.38    1.84
  -4  -4  -9   29.68    1.66
   4   4   9   30.74    2.12
   4   4  10    7.39    1.11
  -4  -4 -10    7.70    0.80
   4   4  10    9.36    1.04
   4   4  11   11.41    1.21
   4   4  11    9.85    1.27
   4   4  12    0.04    0.38
   4   4  12    0.74    0.59
   4   4  13    2.81    0.76
   4   4  13    3.66    0.83
  -4  -5  15    2.33    0.94
  -4  -5  14   16.68    2.05
   4   5 -13   12.26    1.41
  -4  -5  13   14.16    1.83
   4   5 -12    5.42    0.98
  -4  -5  12    7.05    1.24
   4   5 -11   14.65    1.49
  -4  -5  11   14.97    1.68
   4   5 -10   25.43    1.96
  -4  -5  10   23.33    2.01
   4   5  -9    8.37    1.09
  -4  -5   9   10.52    1.30
   4   5  -8   72.02    3.11
   4   5  -8   70.20    3.24
   4   5  -7   49.09    2.38
   4   5  -7   49.84    2.65
  -4  -5   7   53.08    2.77
   4   5  -7   50.32    2.56
   4   5  -6    3.33    0.59
   4   5  -6    2.21    0.62
  -4  -5   6    2.66    0.70
   4   5  -6    1.80    0.51
   4   5  -5   65.45    2.44
   4   5  -5   65.45    3.02
  -4  -5   5   66.26    3.06
   4   5  -5   59.83    2.59
   4   5  -4  134.12    3.60
   4   5  -4  129.03    3.90
   4   5  -4  131.93    4.52
  -4  -5   4  137.04    4.62
   4   5  -3   23.02    1.35
   4   5  -3   22.70    1.72
  -4  -5   3   24.56    1.75
   4   5  -2   11.62    0.89
   4   5  -2   11.09    1.16
  -4  -5   2   11.73    1.20
   4   5  -1   66.24    2.22
   4   5  -1   70.47    3.05
  -4  -5   1   74.97    3.16
   4   5  -1   71.08    3.04
   4   5   0  144.07    3.56
  -4  -5   0  154.39    4.83
   4   5   0  147.73    4.76
  -4  -5  -1   10.75    0.46
  -4  -5  -1   11.64    1.18
   4   5   1   12.30    1.28
   4   5   2    3.71    0.70
  -4  -5  -2    3.18    0.67
   4   5   3   95.01    2.57
  -4  -5  -3  102.06    3.71
   4   5   3   91.14    3.68
   4   5   4   14.25    0.85
  -4  -5  -4   15.17    1.33
   4   5   4   15.25    1.42
   4   5   5    8.45    1.09
   4   5   5    9.38    1.16
   4   5   5    9.15    0.72
  -4  -5  -5   10.73    1.13
   4   5   6   25.60    1.30
  -4  -5  -6   24.17    1.69
   4   5   6   27.18    1.98
   4   5   7  119.32    3.38
  -4  -5  -7  109.84    3.91
   4   5   7  112.83    4.43
   4   5   8    3.67    0.81
   4   5   8    4.28    0.64
  -4  -5  -8    3.79    0.67
   4   5   9   52.98    2.33
  -4  -5  -9   49.93    2.46
   4   5   9   51.63    3.00
   4   5  10    4.24    0.70
   4   5  10    4.46    0.93
   4   5  11   36.94    2.13
   4   5  11   31.88    2.44
   4   5  12    3.04    0.81
   4   5  13    6.78    1.15
  -4  -6  14    1.95    0.92
  -4  -6  13   12.48    1.69
  -4  -6  12   46.87    3.18
  -4  -6  11    4.09    1.05
  -4  -6  10    3.94    0.85
   4   6  -9   10.49    1.33
  -4  -6   9   10.70    1.31
   4   6  -8   33.20    2.03
   4   6  -8   32.29    2.24
   4   6  -7   13.64    1.22
   4   6  -7   14.11    1.46
   4   6  -7   14.02    1.36
   4   6  -6   13.71    1.11
   4   6  -6   14.49    1.46
   4   6  -6   13.53    1.26
   4   6  -5   20.53    1.25
   4   6  -5   18.22    1.65
   4   6  -5   18.67    1.39
   4   6  -4   17.67    1.26
   4   6  -4   18.23    1.07
   4   6  -3   15.54    1.11
   4   6  -3   17.20    1.52
   4   6  -2   18.84    1.13
  -4  -6   2   23.35    1.81
   4   6  -2   22.74    1.73
   4   6  -1    3.35    0.81
   4   6  -1    2.28    0.42
  -4  -6   1    2.81    0.69
   4   6   0   25.23    1.13
  -4  -6   0   26.96    1.94
   4   6   0   24.93    1.87
   4   6   1   46.45    1.50
  -4  -6  -1   53.90    2.74
   4   6   1   48.38    2.64
   4   6   2   50.66    1.49
  -4  -6  -2   52.04    2.71
   4   6   2   52.97    2.80
   4   6   3   13.68    0.67
  -4  -6  -3   15.42    1.44
   4   6   3   14.30    1.44
   4   6   4    5.06    0.91
   4   6   4    4.36    0.39
  -4  -6  -4    5.26    0.85
   4   6   5  124.92    2.91
  -4  -6  -5  121.66    4.41
   4   6   5  120.90    4.68
   4   6   6    0.28    0.50
  -4  -6  -6    0.99    0.48
   4   6   6    0.13    0.15
   4   6   7    4.40    0.94
   4   6   7    4.19    0.50
  -4  -6  -7    4.65    0.83
   4   6   8   61.81    2.21
  -4  -6  -8   57.15    2.85
   4   6   8   57.73    3.28
   4   6   9   31.23    1.62
   4   6   9   31.87    2.46
   4   6  10    3.38    0.85
   4   6  11    0.66    0.54
   4   6  12   39.39    2.97
   4   6  13    2.30    0.79
  -4  -7  14   30.93    2.82
  -4  -7  13    0.32    0.50
   4   7 -13   -0.53    0.43
  -4  -7  12    8.14    1.37
   4   7 -12    9.02    1.17
  -4  -7  11    7.35    1.29
  -4  -7  10   76.19    3.85
   4   7  -9   -0.04    0.31
   4   7  -9    0.32    0.44
   4   7  -8    4.57    0.75
   4   7  -8    5.03    0.90
   4   7  -7   80.82    3.42
   4   7  -7   83.43    3.14
   4   7  -7   79.63    3.56
   4   7  -6   29.00    1.86
   4   7  -6   32.08    1.71
   4   7  -6   30.32    2.12
   4   7  -5    6.63    0.85
   4   7  -5    7.71    0.73
   4   7  -5    8.24    1.13
   4   7  -4   25.97    1.55
   4   7  -4   26.52    1.96
   4   7  -3   23.98    1.41
   4   7  -3   26.16    1.97
   4   7  -2   10.80    0.86
   4   7  -2   11.82    1.36
   4   7  -1   12.94    0.83
   4   7  -1   13.95    1.46
   4   7   0    4.28    0.40
   4   7   0    6.49    1.01
   4   7   1   10.40    0.51
   4   7   1   11.88    1.39
   4   7   2   57.96    3.13
   4   7   3    8.65    1.22
   4   7   4    2.00    0.78
  -4  -7  -5    2.14    0.29
   4   7   5    2.32    0.71
   4   7   6   89.44    4.25
   4   7   7   10.30    1.48
   4   7   8    4.82    1.14
   4   7   9    4.33    1.30
   4   7  10   28.84    2.52
   4   7  11    0.80    0.73
   4   7  12    2.85    0.92
   4   7  13    6.05    1.21
   4   8 -15    8.27    1.42
  -4  -8  13   12.86    1.82
  -4  -8  12    3.18    0.74
   4   8 -12    2.36    0.69
   4   8 -11   19.43    1.81
   4   8 -11   15.73    1.59
   4   8 -10    7.54    1.07
   4   8 -10    7.78    1.15
   4   8  -9   67.56    3.13
   4   8  -9   70.19    3.45
   4   8  -8    5.87    0.90
   4   8  -8    6.74    1.08
   4   8  -7   39.30    2.03
   4   8  -7   38.14    2.51
   4   8  -6   26.17    1.80
   4   8  -6   27.69    1.53
   4   8  -6   26.82    2.08
   4   8  -5   10.22    1.05
   4   8  -5   10.71    0.81
   4   8  -5   11.11    1.37
   4   8  -4    1.43    0.46
   4   8  -4    2.29    0.73
   4   8  -3    5.22    0.64
   4   8  -3    6.37    1.09
   4   8  -2   13.03    0.92
   4   8  -2   13.58    1.53
   4   8  -1    5.99    0.53
   4   8  -1    8.46    1.23
   4   8   0    1.02    0.17
   4   8   0    1.06    0.48
   4   8   1   14.39    1.61
   4   8   2   30.85    2.41
   4   8   3    3.15    0.84
   4   8   4    3.31    0.87
   4   8   5   13.74    1.70
   4   8   6    5.03    1.12
   4   8   7   12.51    1.65
   4   8   8   38.48    2.99
   4   8   9    1.04    0.54
   4   8  10    1.02    0.58
   4   8  11   12.89    1.84
   4   8  12    7.33    1.46
   4   9 -11   13.83    1.51
   4   9 -11   13.64    1.53
   4   9 -10   34.84    2.30
   4   9 -10   36.45    2.55
   4   9  -9   26.71    1.91
   4   9  -9   33.31    2.46
   4   9  -8    3.86    0.71
   4   9  -8    2.33    0.77
   4   9  -7    1.72    0.45
   4   9  -7    2.27    0.78
   4   9  -6   51.70    2.61
   4   9  -6   56.58    2.14
   4   9  -6   58.79    3.29
   4   9  -5    6.08    0.82
   4   9  -5    7.35    1.22
   4   9  -4    0.20    0.24
   4   9  -4    0.31    0.43
   4   9  -3    3.78    0.92
   4   9  -2   69.64    3.70
   4   9  -1    2.40    0.72
   4   9   0    1.54    0.70
   4   9   1    5.12    1.09
   4   9   2    9.41    1.48
   4   9   3   -0.43    0.57
   4   9   4    0.77    0.79
   4   9   5    2.37    0.80
   4   9   6    1.22    0.74
   4   9   7    1.35    0.63
   4   9   8    3.36    0.98
   4   9   9    0.42    0.62
   4  10 -11   22.05    2.04
   4  10 -10   -0.02    0.58
   4  10  -9    1.99    0.71
   4  10  -8   48.94    3.13
   4  10  -7    8.37    1.34
   4  10  -6    1.61    0.66
   4  10  -5    4.62    1.03
   4  10  -4   61.61    3.61
   4  10  -3    1.15    0.71
   4  10  -2    1.77    0.80
   4  10  -1   27.66    2.46
   4  10   0   23.20    2.30
   4  10   1    2.23    0.87
   4  10   2    1.19    0.63
   4  10   3   30.94    2.75
   4  10   4    3.18    0.90
   4  10   5    0.67    0.51
   4  10   6    3.21    1.06
   4  10   7    6.72    1.40
   4  11 -10    6.22    1.17
   4  11  -9   -0.12    0.49
   4  11  -8    0.68    0.62
   4  11  -7   26.35    2.44
   4  11  -6   12.68    1.67
   4  11  -5    0.91    0.59
   4  11  -4    3.16    0.93
   4  11  -3   29.64    2.63
   4  11  -2   16.09    1.96
   4  11  -1    1.27    0.76
   4  11   0    2.68    0.91
   4  11   1   63.28    4.06
   4  11   2   -0.19    0.56
   4  11   3    0.53    0.52
   4  12  -9    2.79    0.94
   4  12  -8    0.68    0.57
   4  12  -7    0.09    0.51
   4  12  -6    4.02    1.06
   4  12  -5   10.28    1.62
   4  12  -4    0.85    0.64
   4  12  -3    1.41    0.77
   4  12  -2    4.06    1.18
  -5  14  -1   22.25    2.57
  -5  14  -2    6.32    1.39
  -5  14  -3    1.77    0.85
   5 -13  -3    4.16    1.18
   5 -13  -2   22.54    2.41
  -5  13   2   25.23    2.68
  -5  13   1   37.42    3.22
  -5  13   0    0.52    0.57
  -5  13  -1    2.32    1.13
  -5  13  -2   34.92    2.96
  -5  13  -3   19.87    2.17
   5 -13   4    0.52    0.48
  -5  13  -4   -1.02    0.61
   5 -13   5    7.35    1.19
   5 -13   6   10.58    1.50
   5 -13   7   10.21    1.52
   5 -13   8   -0.86    0.57
   5 -12  -5   -0.68    0.76
  -5  12   5    0.31    0.54
   5 -12  -4   54.18    3.78
  -5  12   4   57.92    4.08
   5 -12  -3   10.23    1.61
  -5  12   3   12.42    1.86
   5 -12  -2   10.61    1.62
  -5  12   2   10.83    1.73
   5 -12  -1    6.09    0.90
   5 -12  -1    7.56    1.38
  -5  12   1    7.16    1.41
   5 -12   0  119.71    4.46
   5 -12   0  119.44    5.36
  -5  12   0  134.00    5.93
   5 -12   1    4.06    0.78
   5 -12   1    2.48    0.85
  -5  12  -1    4.31    1.18
   5 -12   2   24.11    1.94
  -5  12  -2   22.37    2.24
   5 -12   3   30.18    2.25
  -5  12  -3   34.81    2.74
   5 -12   4   48.21    2.97
  -5  12  -4   52.97    3.28
   5 -12   5   -1.52    0.58
  -5  12  -5    0.02    0.48
   5 -12   6    4.83    1.04
   5 -12   7   29.86    2.52
   5 -12   8   23.97    2.35
   5 -12   9    6.75    1.28
   5 -11  -9    1.11    0.84
   5 -11  -8    5.85    1.30
   5 -11  -7    1.77    0.84
  -5  11   7    0.10    0.75
   5 -11  -6    8.14    1.48
  -5  11   6    9.31    1.55
   5 -11  -5   -0.14    0.47
  -5  11   5    0.14    0.68
   5 -11  -4   25.64    2.45
  -5  11   4   25.77    2.58
   5 -11  -3    1.28    0.67
  -5  11   3    1.63    0.75
   5 -11  -2    4.07    1.09
  -5  11   2    4.87    1.13
   5 -11  -1    6.82    0.97
   5 -11  -1    8.94    1.42
  -5  11   1    8.45    1.43
   5 -11   0   24.01    2.17
   5 -11   0   23.32    1.82
  -5  11   0   25.56    2.37
   5 -11   1   38.51    2.40
   5 -11   1   39.32    2.74
  -5  11  -1   41.56    2.96
   5 -11   2    2.08    0.59
   5 -11   2    3.58    0.89
  -5  11  -2    2.65    0.87
   5 -11   3   62.08    3.27
  -5  11  -3   68.66    3.68
   5 -11   4    0.91    0.51
  -5  11  -4    2.92    0.81
   5 -11   5   42.36    2.81
   5 -11   6   -0.43    0.52
   5 -11   7   44.16    3.06
   5 -11   8   13.67    1.77
   5 -11   9   19.78    2.20
   5 -11  10    1.91    0.82
   5 -10 -12    9.92    1.70
   5 -10 -11    1.31    0.66
   5 -10 -10   -0.55    0.75
   5 -10  -9    8.52    1.65
   5 -10  -9    7.78    1.56
   5 -10  -8    9.78    1.62
   5 -10  -8    8.93    1.62
  -5  10   8   10.54    1.77
   5 -10  -7    4.74    1.14
  -5  10   7    1.68    0.79
   5 -10  -7    5.14    1.17
   5 -10  -6    3.95    1.06
  -5  10   6    4.80    1.18
   5 -10  -5   -0.67    0.70
  -5  10   5    1.31    0.90
   5 -10  -4    4.39    1.03
  -5  10   4    4.56    1.08
   5 -10  -3   33.44    2.65
  -5  10   3   39.21    2.98
   5 -10  -2   38.57    2.76
  -5  10   2   38.20    2.87
   5 -10  -1    0.83    0.64
  -5  10   1   -0.53    0.59
   5 -10   0    0.95    0.38
  -5  10   0    0.71    0.62
   5 -10   1   57.35    2.95
   5 -10   1   59.18    3.21
  -5  10  -1   62.87    3.50
   5 -10   2   36.80    2.35
   5 -10   2   32.41    2.30
  -5  10  -2   36.20    2.57
   5 -10   3    1.64    0.55
   5 -10   3    2.83    0.71
  -5  10  -3    1.38    0.61
   5 -10   4   35.57    2.44
   5 -10   4   38.01    2.35
  -5  10  -4   37.68    2.43
   5 -10   4   34.96    2.23
   5 -10   5   94.19    4.21
   5 -10   5   86.72    3.54
   5 -10   6    2.51    0.84
   5 -10   7   13.38    1.61
   5 -10   8   64.00    3.72
   5 -10   9   28.58    2.54
   5 -10  10   11.13    1.68
   5 -10  11   -0.09    0.65
   5  -9 -13    0.54    0.56
   5  -9 -12    0.54    0.58
   5  -9 -11   23.49    2.54
   5  -9 -11   24.08    2.52
   5  -9 -10   27.66    2.60
   5  -9 -10   23.88    2.50
   5  -9  -9    0.41    0.56
   5  -9  -9    1.73    0.96
   5  -9  -8    7.27    1.46
   5  -9  -8    8.23    1.65
  -5   9   8    8.80    1.74
   5  -9  -7   54.63    3.53
   5  -9  -7   50.43    2.65
   5  -9  -7   55.86    3.67
  -5   9   7   56.82    3.78
   5  -9  -6    7.21    0.93
   5  -9  -6    7.13    1.28
  -5   9   6    9.04    1.54
   5  -9  -6   10.49    1.57
   5  -9  -5   10.47    1.49
  -5   9   5   10.67    1.58
   5  -9  -4   28.28    2.36
  -5   9   4   29.29    2.56
   5  -9  -3   24.72    2.16
  -5   9   3   25.93    2.31
   5  -9  -2   60.41    3.34
  -5   9   2   64.89    3.61
   5  -9  -1   57.26    3.16
  -5   9   1   65.27    3.54
   5  -9   0   15.20    1.55
  -5   9   0   17.98    1.80
   5  -9   1    4.42    0.92
  -5   9  -1    4.61    1.03
   5  -9   2   84.16    3.63
   5  -9   2   84.30    3.66
   5  -9   2   85.53    3.67
  -5   9  -2   86.58    3.82
   5  -9   3   53.43    2.89
   5  -9   3   56.36    2.79
   5  -9   3   53.84    2.74
  -5   9  -3   56.94    2.94
   5  -9   4    3.84    0.83
   5  -9   4    3.30    0.68
   5  -9   4    3.76    0.72
   5  -9   5    6.54    1.08
   5  -9   5    5.74    0.82
   5  -9   5    7.08    0.93
   5  -9   6   66.45    3.52
   5  -9   6   63.51    2.65
   5  -9   7   16.29    1.76
   5  -9   8   19.49    2.02
   5  -9   9   15.19    1.87
   5  -9  10   75.83    4.29
   5  -9  11   -0.87    0.83
   5  -8 -14    9.47    1.58
   5  -8 -13   51.12    3.59
   5  -8 -12    0.93    0.67
   5  -8 -12    0.05    0.62
   5  -8 -11   13.11    1.82
   5  -8 -11   11.76    1.70
   5  -8 -10    1.51    0.78
   5  -8 -10    1.12    0.77
   5  -8  -9   76.42    4.26
   5  -8  -9   81.67    4.40
   5  -8  -8    0.71    0.46
   5  -8  -8   -0.01    0.53
   5  -8  -8    0.67    0.61
   5  -8  -7   60.83    3.62
   5  -8  -7   61.92    2.96
   5  -8  -7   68.22    3.89
   5  -8  -6   47.34    3.08
   5  -8  -6   41.91    2.36
   5  -8  -6   45.84    3.11
  -5   8   6   47.74    3.21
   5  -8  -5   54.21    3.24
   5  -8  -5   57.58    3.47
  -5   8   5   55.48    3.40
   5  -8  -4   14.90    1.62
  -5   8   4   16.56    1.81
  -5   8   3   -0.22    0.41
   5  -8  -3    0.13    0.41
  -5   8   3   -0.71    0.61
  -5   8   2   69.51    3.32
   5  -8  -2   75.81    3.59
  -5   8   2   78.22    3.78
   5  -8  -1   18.19    1.68
  -5   8   1   21.36    1.88
   5  -8   0    0.24    0.31
   5  -8   0    0.84    0.47
  -5   8   0    0.18    0.45
   5  -8   1   23.33    1.78
   5  -8   1   25.46    1.86
  -5   8  -1   22.93    1.85
   5  -8   2   40.95    2.31
   5  -8   2   40.56    2.29
   5  -8   3    8.74    1.14
   5  -8   3   10.22    1.09
   5  -8   3   10.88    1.12
   5  -8   4   49.11    2.78
   5  -8   4   48.98    2.36
   5  -8   4   48.97    2.37
   5  -8   5   22.44    1.91
   5  -8   5   24.20    1.53
   5  -8   5   22.53    1.49
   5  -8   6    2.95    0.80
   5  -8   6    2.07    0.43
   5  -8   6    3.20    0.53
   5  -8   7   17.70    1.83
   5  -8   7   17.33    1.10
   5  -8   8   33.75    2.57
   5  -8   9    1.24    0.70
   5  -8   9    0.64    0.46
   5  -8  10    0.86    0.68
   5  -8  10    0.79    0.51
   5  -8  11   39.43    3.08
   5  -8  12   13.35    1.82
   5  -7 -14    2.42    0.92
   5  -7 -14    1.29    0.60
   5  -7 -13   24.67    2.50
   5  -7 -13   21.39    2.22
   5  -7 -12   13.54    1.84
   5  -7 -12   11.77    1.68
   5  -7 -11   21.45    2.22
   5  -7 -11   17.22    1.96
   5  -7 -10   55.58    3.51
   5  -7 -10   52.25    3.38
   5  -7  -9   15.98    1.99
   5  -7  -8   11.57    1.27
   5  -7  -8   11.56    1.51
   5  -7  -7   34.47    2.15
   5  -7  -7   36.58    2.69
   5  -7  -6  130.72    5.30
   5  -7  -5    0.87    0.53
  -5   7   4  112.58    4.36
   5  -7  -4  127.87    5.03
  -5   7   3    0.32    0.26
  -5   7   2   86.47    3.68
   5  -7  -2   95.29    3.94
   5  -7  -1   17.46    1.56
   5  -7   0   90.76    3.68
   5  -7   1    5.34    0.81
   5  -7   2    0.32    0.32
   5  -7   3    3.10    0.58
   5  -7   3    1.98    0.48
   5  -7   4   53.91    2.33
   5  -7   4   48.78    2.72
   5  -7   4   50.01    2.26
   5  -7   5    3.16    0.74
   5  -7   5    3.87    0.60
   5  -7   5    3.23    0.53
   5  -7   6   -0.41    0.55
   5  -7   6    0.09    0.24
   5  -7   6    0.44    0.26
   5  -7   7    5.60    1.08
   5  -7   7    5.33    0.55
   5  -7   7    5.44    0.91
   5  -7   8    4.76    0.96
   5  -7   8    4.89    0.77
   5  -7   9    7.59    1.25
   5  -7   9    8.56    1.06
   5  -7  10    4.70    1.12
   5  -7  10    5.97    0.84
   5  -7  11    0.36    0.68
   5  -7  12    5.30    1.20
   5  -7  13   20.77    2.34
   5  -6 -15   12.59    1.76
   5  -6 -14    3.56    1.05
   5  -6 -14    2.75    0.83
   5  -6 -14    3.55    0.96
   5  -6 -13    2.13    0.64
   5  -6 -13    3.65    1.15
   5  -6 -13    1.70    0.72
   5  -6 -12   33.66    2.81
   5  -6 -12   33.16    2.73
   5  -6 -12   28.85    2.47
   5  -6 -11   17.83    1.97
   5  -6 -11   16.07    1.82
   5  -6 -10    7.65    1.19
   5  -6  -9    3.39    0.91
   5  -6  -8  158.38    5.23
   5  -6  -8  160.59    5.91
   5  -6  -7    4.80    0.86
   5  -6  -7    4.54    1.02
   5  -6  -6   74.60    3.70
  -5   6   5   10.40    1.22
   5  -6  -5   11.08    1.38
  -5   6   4  175.00    5.61
   5  -6  -4  187.68    6.15
   5  -6  -4  198.00    6.12
  -5   6   3   18.17    1.56
   5  -6  -3   18.18    1.65
   5  -6  -3   20.84    1.71
   5  -6  -2  182.10    5.95
   5  -6  -2  194.22    5.84
   5  -6  -1  150.26    5.20
   5  -6  -1  160.12    5.04
   5  -6   0   99.52    4.00
   5  -6   0   98.31    3.68
   5  -6   1  179.07    5.21
   5  -6   2   25.65    1.63
   5  -6   3   27.35    1.89
   5  -6   3   27.00    1.61
   5  -6   4   52.34    2.78
   5  -6   4   59.07    2.81
   5  -6   4   56.05    2.29
   5  -6   5  106.54    3.19
   5  -6   5  107.37    4.25
   5  -6   5  111.83    3.99
   5  -6   5  105.33    3.19
   5  -6   6   11.57    0.83
   5  -6   6   12.48    1.40
   5  -6   6   12.05    1.19
   5  -6   6   12.89    0.89
   5  -6   7   32.35    1.25
   5  -6   7   35.41    2.42
   5  -6   7   34.35    2.01
   5  -6   7   34.03    1.29
   5  -6   8   26.73    2.19
   5  -6   8   23.78    1.63
   5  -6   9    0.26    0.53
   5  -6   9    0.65    0.39
   5  -6  10    3.25    0.93
   5  -6  10    3.38    0.55
   5  -6  11    0.08    0.57
   5  -6  12   -0.90    0.79
   5  -6  13    0.17    0.72
   5  -5 -16    8.90    1.52
   5  -5 -15    3.35    0.98
   5  -5 -14   11.76    1.73
   5  -5 -14    6.79    1.26
   5  -5 -14    7.76    1.34
   5  -5 -13    6.89    1.34
   5  -5 -13    4.64    0.95
   5  -5 -12    0.92    0.68
   5  -5 -12    0.69    0.37
   5  -5 -11   19.33    2.01
   5  -5 -11   13.71    1.60
   5  -5 -10   82.02    4.05
   5  -5 -10   69.12    3.65
   5  -5  -9   11.97    1.51
   5  -5  -8   32.21    2.41
   5  -5  -8   33.12    2.26
   5  -5  -7  400.35   10.27
   5  -5  -7  419.85    9.80
  -5   5   6   32.39    2.18
   5  -5  -6   33.61    2.29
  -5   5   5   34.20    2.17
   5  -5  -5   37.52    2.43
   5  -5  -5   40.87    2.46
  -5   5   4   19.00    1.56
   5  -5  -4   19.09    1.71
   5  -5  -4   21.07    1.71
  -5   5   3  412.72   10.18
   5  -5  -3  459.64   10.75
   5  -5  -3  492.01   10.71
   5  -5  -2   81.50    3.51
   5  -5  -2   84.42    3.41
   5  -5  -1  112.76    4.19
   5  -5  -1  115.86    4.00
   5  -5   0  333.09    8.33
   5  -5   0  333.21    7.94
   5  -5   1  543.36   11.86
   5  -5   1  541.77   11.35
   5  -5   2   29.32    1.88
   5  -5   2   28.69    1.66
   5  -5   3   19.72    1.52
   5  -5   3   20.66    1.32
   5  -5   4  378.20    8.79
   5  -5   4  379.80    8.04
   5  -5   5  201.18    6.18
   5  -5   5  205.73    5.64
   5  -5   5  211.37    4.94
   5  -5   6    0.59    0.46
   5  -5   6    0.74    0.24
   5  -5   6    0.51    0.29
   5  -5   7    2.31    0.74
   5  -5   7    1.37    0.22
   5  -5   7    1.31    0.22
   5  -5   7    1.49    0.39
   5  -5   8  153.91    5.54
   5  -5   8  142.46    4.10
   5  -5   9    2.31    0.79
   5  -5   9    2.76    0.46
   5  -5  10    0.47    0.67
   5  -5  10    0.69    0.33
   5  -5  11   13.84    1.66
   5  -5  12   17.78    2.00
   5  -5  13    0.33    0.58
   5  -5  14    1.11    0.75
   5  -4 -16    1.19    0.69
   5  -4 -15   22.36    2.45
   5  -4 -15   15.64    1.68
   5  -4 -14    8.11    1.46
   5  -4 -14    6.53    1.01
   5  -4 -13    0.36    0.60
   5  -4 -13    0.27    0.57
   5  -4 -12   11.24    1.52
   5  -4 -12    8.94    1.24
   5  -4 -11    8.66    1.33
   5  -4 -11    9.21    1.27
   5  -4 -10   13.06    1.53
   5  -4 -10   11.16    1.32
   5  -4  -9   47.07    2.91
   5  -4  -9   46.50    2.76
   5  -4  -8   11.56    1.25
   5  -4  -8   15.86    1.59
   5  -4  -8   13.58    1.44
   5  -4  -7    3.59    0.70
   5  -4  -7    3.51    0.79
  -5   4   6   68.37    3.18
   5  -4  -6   67.28    3.21
   5  -4  -6   73.23    3.39
  -5   4   5   58.20    2.82
   5  -4  -5   54.08    2.82
   5  -4  -5   65.36    3.09
  -5   4   4    0.80    0.36
   5  -4  -4    0.55    0.33
   5  -4  -4    1.16    0.43
  -5   4   3   28.55    1.87
   5  -4  -3   29.07    1.94
   5  -4  -3   33.50    2.05
   5  -4  -2   82.37    3.42
   5  -4  -2   88.57    3.42
   5  -4  -1  376.10    9.05
   5  -4  -1  395.74    8.97
   5  -4   0    4.57    0.68
   5  -4   0    4.62    0.81
   5  -4   1   13.92    1.56
   5  -4   1   20.71    1.60
   5  -4   2  622.83   13.01
   5  -4   2  648.81   12.71
   5  -4   3   93.00    3.35
   5  -4   3   98.86    3.14
   5  -4   4   43.95    2.10
   5  -4   4   45.87    1.90
   5  -4   5  168.57    5.39
   5  -4   5  164.77    4.61
   5  -4   5  171.40    4.18
   5  -4   6  731.40   15.49
   5  -4   6  708.96   14.03
   5  -4   6  740.56   13.27
   5  -4   7   14.82    1.52
   5  -4   7   12.24    0.96
   5  -4   7   14.06    0.72
   5  -4   8   71.42    2.37
   5  -4   8   73.40    3.56
   5  -4   9  143.72    3.50
   5  -4   9  138.80    5.54
   5  -4  10  303.10    5.59
   5  -4  10  311.62    5.61
   5  -4  10  308.44    8.93
   5  -4  11    4.08    0.93
   5  -4  12    1.59    0.81
   5  -4  13   69.72    4.08
   5  -4  14   16.77    2.05
   5  -3 -15   25.60    2.55
   5  -3 -15   22.62    1.97
   5  -3 -14    5.39    1.15
   5  -3 -14    6.14    1.06
   5  -3 -13   51.45    3.43
   5  -3 -13   44.30    2.74
   5  -3 -12    6.17    1.14
   5  -3 -12    4.95    0.92
   5  -3 -11    5.00    1.10
   5  -3 -11    3.51    0.77
   5  -3 -10   32.03    2.40
   5  -3 -10   26.89    2.03
   5  -3  -9   14.23    1.55
   5  -3  -9   14.22    1.45
   5  -3  -8    9.20    1.12
   5  -3  -8   11.23    1.33
   5  -3  -8    7.93    1.05
   5  -3  -8    9.08    1.18
   5  -3  -7    4.77    0.79
   5  -3  -7    4.25    0.78
   5  -3  -7    5.12    0.82
   5  -3  -7    5.55    0.89
   5  -3  -6    5.41    0.83
   5  -3  -6    6.25    0.94
   5  -3  -6    5.80    0.90
  -5   3   5    0.70    0.38
   5  -3  -5    0.36    0.30
   5  -3  -5    0.43    0.42
  -5   3   4   16.74    1.39
   5  -3  -4   15.98    1.41
   5  -3  -4   19.95    1.59
  -5   3   3   22.54    1.61
   5  -3  -3   25.26    1.74
   5  -3  -3   24.29    1.70
   5  -3  -2   10.75    1.12
   5  -3  -2   11.25    1.10
   5  -3  -1   20.31    1.49
   5  -3   0  263.13    6.61
   5  -3   1    5.60    0.79
   5  -3   2   26.48    1.59
   5  -3   3   74.76    2.76
   5  -3   4  259.72    6.15
   5  -3   5    0.32    0.35
   5  -3   5    1.02    0.38
   5  -3   6    3.45    0.76
   5  -3   6    2.54    0.46
   5  -3   7  171.85    5.63
   5  -3   7  168.32    4.13
   5  -3   7  177.29    3.90
   5  -3   8  110.46    4.42
   5  -3   8   92.59    2.57
   5  -3   8   99.34    2.21
   5  -3   8   95.87    2.25
   5  -3   9   52.03    1.43
   5  -3   9   51.04    2.99
   5  -3  10    1.70    0.71
   5  -3  11  220.90    7.33
   5  -3  12   18.32    1.99
   5  -3  13   35.89    2.82
   5  -3  14    1.13    0.70
   5  -2 -15   14.36    2.00
   5  -2 -15   15.28    1.58
   5  -2 -14   47.78    3.44
   5  -2 -14   47.57    2.80
   5  -2 -13   85.90    4.49
   5  -2 -13   76.28    3.61
   5  -2 -12   24.98    2.28
   5  -2 -12   20.93    1.79
   5  -2 -11   12.83    1.56
   5  -2 -11   10.42    1.24
   5  -2 -10  130.38    5.04
   5  -2 -10  118.88    4.42
   5  -2  -9   41.21    2.66
   5  -2  -9   44.44    2.51
   5  -2  -9   44.96    2.72
   5  -2  -8   31.11    2.21
   5  -2  -8   27.92    1.99
   5  -2  -8   25.87    1.85
  -5   2   8   25.08    1.88
   5  -2  -8   28.04    2.11
   5  -2  -7   30.27    2.05
   5  -2  -7   28.31    1.90
   5  -2  -7   28.14    1.92
  -5   2   7   31.99    2.08
   5  -2  -7   30.07    2.10
   5  -2  -6  155.75    5.02
   5  -2  -6  152.36    4.84
   5  -2  -6  147.08    4.81
  -5   2   6  159.86    5.08
   5  -2  -6  155.55    5.11
  -5   2   5   -0.04    0.25
   5  -2  -5    0.07    0.30
  -5   2   5    0.36    0.35
  -5   2   4    3.64    0.65
   5  -2  -4    2.84    0.64
  -5   2   4    3.16    0.65
  -5   2   3   32.25    1.87
   5  -2  -3   30.92    1.84
  -5   2   3   35.46    2.02
  -5   2   2   54.56    2.49
   5  -2  -2   43.52    2.19
   5  -2  -1   -0.06    0.33
  -5   2   1    0.26    0.25
   5  -2   0    0.77    0.37
  -5   2   0    0.48    0.32
   5  -2   1    3.10    0.58
  -5   2  -1    4.63    0.66
   5  -2   2    0.72    0.40
  -5   2  -2    0.38    0.23
   5  -2   3    4.77    0.63
  -5   2  -3    4.35    0.62
   5  -2   4    4.42    0.61
   5  -2   5   58.24    2.12
   5  -2   6    5.33    0.86
   5  -2   6    4.39    0.51
   5  -2   7   26.97    1.96
   5  -2   7   27.16    1.21
   5  -2   7   26.64    1.19
   5  -2   8   12.57    1.40
   5  -2   8    9.36    0.60
   5  -2   8    9.89    0.66
   5  -2   9   68.15    3.40
   5  -2   9   63.82    1.79
   5  -2   9   65.32    1.80
   5  -2  10    6.94    1.11
   5  -2  10    4.92    0.31
   5  -2  11    7.43    1.19
   5  -2  12   19.75    2.05
   5  -2  13   35.87    2.77
   5  -2  14   20.32    2.20
   5  -2  15    7.43    1.56
   5  -1 -15   21.09    2.29
   5  -1 -15   17.61    1.64
   5  -1 -14   12.29    1.71
   5  -1 -14    9.88    1.24
   5  -1 -13   88.52    4.54
   5  -1 -13   83.10    3.71
   5  -1 -12  145.24    5.79
   5  -1 -12  132.94    4.84
   5  -1 -11   21.38    2.03
   5  -1 -11   16.86    1.50
  -5   1  11   15.65    1.54
   5  -1 -10    9.15    1.26
   5  -1 -10    9.77    1.18
  -5   1  10    9.44    1.21
   5  -1  -9  143.93    5.14
  -5   1   9  146.11    5.00
   5  -1  -9  134.14    4.68
   5  -1  -9  141.99    5.14
   5  -1  -8  481.08   11.10
   5  -1  -8  458.00   10.82
   5  -1  -8  450.11   10.54
  -5   1   8  483.75   10.98
   5  -1  -8  467.23   11.05
   5  -1  -7   20.14    1.66
   5  -1  -7   18.04    1.53
   5  -1  -7   16.98    1.43
  -5   1   7   21.43    1.66
   5  -1  -6    2.58    0.63
   5  -1  -6    1.89    0.54
   5  -1  -6    2.48    0.57
  -5   1   6    3.21    0.66
  -5   1   5  258.59    6.74
   5  -1  -5  251.27    6.62
  -5   1   5  269.57    6.90
  -5   1   4  176.42    5.06
   5  -1  -4  168.50    4.97
  -5   1   4  181.06    5.19
  -5   1   3    1.30    0.42
   5  -1  -3    1.33    0.39
  -5   1   3    0.94    0.30
  -5   1   2   99.17    3.45
   5  -1  -2  102.56    3.49
  -5   1   2  112.27    3.68
   5  -1  -1  239.50    6.07
  -5   1   1  258.70    6.31
   5  -1   0   15.43    1.18
  -5   1   0   17.74    1.29
   5  -1   1    9.71    1.02
  -5   1  -1    6.98    0.87
  -5   1  -2   71.77    2.63
   5  -1   2   70.46    2.54
  -5   1  -3   21.31    1.32
   5  -1   3   22.01    1.29
  -5   1  -4    9.59    0.86
   5  -1   4   10.74    0.85
   5  -1   5   29.91    1.42
  -5   1  -5   31.22    1.54
   5  -1   6    8.10    1.04
   5  -1   6    9.13    0.72
  -5   1  -6    9.00    0.77
   5  -1   7   10.80    1.24
   5  -1   7   10.86    0.73
   5  -1   7    9.99    0.79
   5  -1   8   67.63    3.23
   5  -1   8   68.48    1.85
   5  -1   8   63.78    2.18
   5  -1   9    4.27    0.85
   5  -1   9    4.35    0.49
   5  -1   9    3.58    0.47
   5  -1  10    8.94    1.24
   5  -1  10    8.49    0.67
   5  -1  11   14.54    1.62
   5  -1  11   12.79    0.76
   5  -1  12   39.38    2.79
   5  -1  13    0.09    0.45
   5  -1  14   13.42    1.76
   5  -1  15   15.10    1.94
   5   0 -15   24.51    2.53
   5   0 -15   22.59    1.84
   5   0 -14   17.80    2.13
   5   0 -14   15.94    1.53
   5   0 -13    0.37    0.60
   5   0 -13    0.20    0.44
   5   0 -12    6.85    1.20
   5   0 -12    4.82    0.79
   5   0 -11   60.42    3.36
  -5   0  11   56.02    3.01
   5   0 -11   50.02    2.71
   5   0 -10   37.91    2.54
   5   0 -10   35.06    2.18
  -5   0  10   39.13    2.44
   5   0 -10   35.12    2.36
   5   0  -9   25.94    2.01
  -5   0   9   25.52    1.88
   5   0  -9   24.52    1.76
   5   0  -8  143.74    4.87
  -5   0   8  132.05    4.59
   5   0  -8  119.30    4.30
   5   0  -8  131.40    4.68
   5   0  -7  325.52    8.21
  -5   0   7  337.11    8.28
   5   0  -7  311.26    7.92
   5   0  -7  327.90    8.20
   5   0  -6   46.70    2.42
  -5   0   6   49.39    2.51
   5   0  -6   43.55    2.29
   5   0  -6   42.96    2.31
   5   0  -5   13.70    1.23
  -5   0   5   13.10    1.23
   5   0  -5   13.09    1.20
   5   0  -5   13.96    1.25
  -5   0   4  113.39    3.78
  -5   0   4  123.57    4.05
   5   0  -4  116.31    3.88
  -5   0   3  408.17    9.08
  -5   0   3  440.74    9.45
   5   0  -3  413.29    9.25
  -5   0   2   19.80    1.35
  -5   0   2   22.30    1.48
   5   0  -2   22.19    1.48
  -5   0   1   17.89    1.30
   5   0  -1   16.32    1.22
  -5   0   0  406.77    8.75
   5   0   0  393.73    8.63
  -5   0  -1  249.95    6.03
   5   0   1  245.87    5.93
   5   0   2    0.18    0.25
  -5   0  -2    0.08    0.23
  -5   0  -3   75.20    2.63
   5   0   3   71.52    2.52
  -5   0  -4  129.05    3.63
   5   0   4  123.50    3.50
  -5   0  -5  128.01    3.57
   5   0   5  124.29    3.44
   5   0   6   34.86    2.06
  -5   0  -6   37.18    1.63
   5   0   6   36.82    1.55
   5   0   6   36.82    1.72
   5   0   7   67.24    3.05
  -5   0  -7   67.96    2.21
   5   0   7   66.53    2.11
   5   0   7   66.90    2.44
   5   0   8   70.25    2.58
   5   0   8   74.68    3.37
  -5   0  -8   78.22    2.26
   5   0   8   75.79    2.64
   5   0   9   31.98    2.19
   5   0   9   30.69    1.58
   5   0   9   32.07    1.61
   5   0  10   28.36    2.14
   5   0  10   24.67    1.39
   5   0  10   26.94    1.47
   5   0  11   16.44    1.66
   5   0  11   17.14    1.18
   5   0  12   11.61    1.48
   5   0  13   29.86    2.48
   5   0  14   30.59    2.61
   5   0  15    0.04    0.72
   5   1 -15    6.72    1.49
   5   1 -15    5.72    0.93
   5   1 -14    1.87    0.68
   5   1 -14    1.11    0.52
   5   1 -13   19.32    2.04
   5   1 -13   17.65    1.63
   5   1 -12    5.95    1.06
   5   1 -12    7.61    1.06
   5   1 -11   46.54    2.90
  -5  -1  11   43.93    2.62
   5   1 -11   44.17    2.54
   5   1 -10    4.40    0.84
   5   1 -10    5.64    0.87
  -5  -1  10    4.54    0.79
   5   1  -9  145.88    5.26
  -5  -1   9  164.73    5.35
   5   1  -9  154.54    5.06
   5   1  -8   30.24    2.07
  -5  -1   8   23.99    1.82
   5   1  -8   21.53    1.67
   5   1  -7   24.35    1.75
  -5  -1   7   24.27    1.76
   5   1  -7   21.92    1.63
   5   1  -7   24.88    1.79
   5   1  -6  116.46    3.99
  -5  -1   6  112.15    4.00
   5   1  -6  108.46    3.90
   5   1  -6  115.71    4.02
   5   1  -5   39.86    2.09
  -5  -1   5   43.89    2.29
   5   1  -5   39.27    2.15
   5   1  -5   41.76    2.19
  -5  -1   4  108.56    3.57
  -5  -1   4  112.22    3.85
   5   1  -4  108.96    3.74
  -5  -1   3   45.53    2.08
  -5  -1   3   46.63    2.23
   5   1  -3   43.71    2.19
  -5  -1   2  155.65    4.33
  -5  -1   2  164.40    4.69
   5   1  -2  160.68    4.64
  -5  -1   1  118.76    3.77
   5   1  -1  112.47    3.66
  -5  -1   0  255.08    6.25
   5   1   0  251.31    6.20
  -5  -1  -1   17.01    1.23
   5   1   1   17.50    1.25
  -5  -1  -2  184.77    4.85
   5   1   2  182.13    4.79
   5   1   3    0.78    0.38
  -5  -1  -3   -0.10    0.19
   5   1   4    3.31    0.52
  -5  -1  -4    3.00    0.51
   5   1   5   24.08    1.62
  -5  -1  -5   26.11    1.40
   5   1   5   25.35    1.37
   5   1   5   25.32    1.51
   5   1   6  286.04    7.21
  -5  -1  -6  286.09    6.37
   5   1   6  286.29    6.31
   5   1   6  286.59    6.76
   5   1   7    0.56    0.36
   5   1   7    0.34    0.31
  -5  -1  -7    0.64    0.30
   5   1   8    1.14    0.53
   5   1   8    0.96    0.41
   5   1   8    1.15    0.43
  -5  -1  -8    0.50    0.25
   5   1   9  108.89    3.68
   5   1   9  112.37    4.30
  -5  -1  -9  120.13    3.00
   5   1   9  113.04    3.74
   5   1  10    7.03    0.99
   5   1  10    5.83    0.79
   5   1  10    6.35    0.80
   5   1  11    0.80    0.44
   5   1  11    1.15    0.45
   5   1  12   24.35    2.07
   5   1  12   22.25    1.50
   5   1  13   14.77    1.72
   5   1  14    3.46    0.95
   5   1  15    4.05    1.05
   5   1  16    0.69    0.73
   5   2 -15   12.27    1.78
   5   2 -15   11.11    1.32
   5   2 -14    5.85    1.28
   5   2 -14    5.06    0.95
   5   2 -13    1.19    0.57
   5   2 -13    2.39    0.71
   5   2 -12    0.91    0.53
   5   2 -12    0.16    0.49
   5   2 -11    3.88    0.92
   5   2 -11    3.90    0.72
   5   2 -10   18.33    1.70
  -5  -2  10   17.32    1.59
   5   2 -10   14.82    1.44
   5   2  -9   16.36    1.69
  -5  -2   9   21.11    1.82
   5   2  -9   20.82    1.83
   5   2  -8   12.66    1.34
   5   2  -8   11.04    1.22
  -5  -2   8   13.13    1.34
   5   2  -7   12.36    1.23
  -5  -2   7   15.07    1.38
   5   2  -7   14.21    1.33
   5   2  -7   14.24    1.35
   5   2  -6  241.93    6.35
   5   2  -6  238.09    6.46
  -5  -2   6  244.07    6.56
   5   2  -6  232.28    6.41
   5   2  -5    0.82    0.44
   5   2  -5    0.27    0.22
   5   2  -5    1.42    0.54
  -5  -2   5    1.13    0.43
   5   2  -4   47.72    2.30
  -5  -2   4   51.78    2.49
   5   2  -4   49.48    2.42
  -5  -2   3   -0.01    0.19
   5   2  -3    0.49    0.33
  -5  -2   3    0.87    0.40
  -5  -2   2  279.35    6.41
   5   2  -2  279.49    6.99
  -5  -2   2  298.54    7.15
  -5  -2   1    1.87    0.44
  -5  -2   1    2.30    0.56
   5   2  -1    2.64    0.58
   5   2   0  357.09    8.24
  -5  -2   0  369.12    8.33
   5   2   1   61.71    2.54
  -5  -2  -1   64.87    2.63
   5   2   2  135.90    4.08
  -5  -2  -2  142.47    4.19
   5   2   3   89.13    3.07
  -5  -2  -3   89.52    3.11
   5   2   4   52.23    2.22
  -5  -2  -4   53.53    2.27
   5   2   4   51.54    2.38
   5   2   5   47.63    2.26
   5   2   5   47.21    2.08
  -5  -2  -5   50.23    2.15
   5   2   5   47.68    2.28
   5   2   6    0.78    0.36
   5   2   6    0.11    0.31
  -5  -2  -6    0.24    0.29
   5   2   7   96.46    3.55
  -5  -2  -7   95.99    3.05
   5   2   7   92.49    3.42
   5   2   8    2.74    0.86
   5   2   8    2.55    0.76
   5   2   8    4.00    0.91
  -5  -2  -8    2.01    0.48
   5   2   9   28.37    1.85
   5   2   9   29.83    2.02
  -5  -2  -9   29.13    1.42
   5   2   9   28.20    1.85
   5   2  10   35.34    2.09
   5   2  10   41.37    2.47
  -5  -2 -10   38.05    1.49
   5   2  10   38.16    2.17
   5   2  11    0.18    0.38
   5   2  11    0.41    0.33
   5   2  12    2.91    0.64
   5   2  12    2.78    0.75
   5   2  13   -0.02    0.49
   5   2  14    5.01    1.01
   5   2  15    0.21    0.51
   5   3 -15    0.87    0.49
   5   3 -15    1.04    0.52
   5   3 -14   19.62    2.18
   5   3 -14   17.96    1.72
   5   3 -13    3.20    0.86
   5   3 -13    3.09    0.72
   5   3 -12    1.60    0.56
   5   3 -12    2.20    0.69
   5   3 -11   10.16    1.32
   5   3 -11    9.25    1.22
   5   3 -10   13.35    1.48
   5   3 -10   12.38    1.36
   5   3  -9    3.57    0.84
   5   3  -9    4.68    0.95
   5   3  -8   12.66    1.34
  -5  -3   8   13.47    1.44
   5   3  -8   14.24    1.41
   5   3  -7   12.99    1.24
  -5  -3   7   12.75    1.30
   5   3  -7   10.84    1.19
   5   3  -7   14.06    1.35
   5   3  -6   21.14    1.53
   5   3  -6   20.54    1.61
  -5  -3   6   20.62    1.70
   5   3  -6   19.67    1.54
   5   3  -5   99.91    3.42
  -5  -3   5  102.31    3.86
   5   3  -5   96.35    3.73
   5   3  -5   97.08    3.55
   5   3  -4   13.01    1.24
  -5  -3   4   14.36    1.34
   5   3  -4   12.98    1.15
   5   3  -3   14.07    1.28
  -5  -3   3   13.43    1.28
   5   3  -3   11.59    1.05
  -5  -3   2   85.55    2.72
   5   3  -2   86.62    3.34
  -5  -3   2   89.57    3.41
  -5  -3   1   28.18    1.38
   5   3  -1   29.98    1.84
  -5  -3   1   33.52    1.95
   5   3   0   40.62    2.14
  -5  -3   0   39.26    2.12
   5   3   1   64.04    2.72
  -5  -3  -1   65.61    2.76
   5   3   2    5.81    0.81
  -5  -3  -2    5.11    0.76
   5   3   3   52.63    2.39
  -5  -3  -3   53.79    2.43
   5   3   3   51.71    2.50
   5   3   4    2.41    0.56
   5   3   4    1.20    0.43
  -5  -3  -4    1.71    0.45
   5   3   5   96.88    3.29
  -5  -3  -5   95.54    3.33
   5   3   5   96.40    3.61
   5   3   6    1.95    0.52
   5   3   6    2.07    0.52
  -5  -3  -6    2.85    0.51
   5   3   7   28.42    1.91
   5   3   7   27.22    1.71
  -5  -3  -7   25.81    1.55
   5   3   7   28.04    1.88
   5   3   8   30.90    2.05
   5   3   8   31.16    1.95
  -5  -3  -8   30.57    1.68
   5   3   8   33.16    2.11
   5   3   9   18.95    1.63
   5   3   9   20.84    1.65
  -5  -3  -9   19.63    1.27
   5   3   9   19.34    1.66
   5   3  10    1.37    0.47
   5   3  10    1.11    0.50
   5   3  10    0.46    0.50
   5   3  11   37.42    2.38
   5   3  11   35.46    2.31
   5   3  12   30.80    2.28
   5   3  12   32.00    2.25
   5   3  13   10.34    1.33
   5   3  14   12.82    1.59
   5   4 -15   -0.58    0.55
   5   4 -15   -0.04    0.39
   5   4 -14    8.97    1.45
   5   4 -14    6.94    1.11
   5   4 -13    6.90    1.25
   5   4 -13    9.66    1.29
   5   4 -12   31.40    2.47
   5   4 -12   31.60    2.29
   5   4 -11    3.23    0.81
   5   4 -11    4.67    0.93
   5   4 -10    7.15    1.04
   5   4 -10    6.09    1.03
   5   4  -9   23.00    1.86
   5   4  -9   19.51    1.73
   5   4  -8    9.72    1.16
   5   4  -8   10.62    1.26
   5   4  -7   -0.28    0.34
   5   4  -7   -0.26    0.38
   5   4  -7    0.13    0.33
   5   4  -6   19.97    1.44
   5   4  -6   16.39    1.51
  -5  -4   6   20.14    1.68
   5   4  -6   15.81    1.39
   5   4  -5   35.89    1.86
   5   4  -5   31.13    2.07
  -5  -4   5   34.36    2.19
   5   4  -5   32.37    1.92
   5   4  -4   10.86    1.22
  -5  -4   4   10.95    1.20
   5   4  -4   10.95    1.04
  -5  -4   3    8.92    1.07
   5   4  -3    8.37    1.05
   5   4  -3    8.46    0.89
   5   4  -2    1.39    0.51
  -5  -4   2    3.21    0.64
   5   4  -2    1.91    0.45
  -5  -4   1   15.28    0.93
   5   4  -1   14.93    1.39
  -5  -4   1   14.59    1.33
  -5  -4   0  123.78    3.20
   5   4   0  129.30    4.35
  -5  -4   0  137.09    4.47
   5   4   1   48.08    2.44
  -5  -4  -1   49.53    2.48
   5   4   2    1.16    0.44
   5   4   2    1.51    0.48
  -5  -4  -2    2.24    0.59
   5   4   3    0.02    0.34
  -5  -4  -3   -0.21    0.37
   5   4   4   86.65    2.92
  -5  -4  -4   88.74    3.39
   5   4   4   87.85    3.58
   5   4   5   57.83    2.32
  -5  -4  -5   57.38    2.63
   5   4   5   58.27    2.87
   5   4   6   13.55    1.35
  -5  -4  -6   15.12    1.29
   5   4   6   14.88    1.17
   5   4   7    6.07    0.94
   5   4   7    5.82    0.77
  -5  -4  -7    7.21    0.90
   5   4   8  115.21    3.84
  -5  -4  -8  107.86    3.70
   5   4   8  106.96    4.28
   5   4   9    0.77    0.67
  -5  -4  -9    0.21    0.51
   5   4   9    0.68    0.50
   5   4  10    2.23    0.62
   5   4  10    2.25    0.62
   5   4  11    0.99    0.50
   5   4  11    1.63    0.67
   5   4  12   90.25    3.87
   5   4  12   82.22    3.98
   5   5 -15   54.35    3.75
   5   5 -15   55.84    3.26
   5   5 -14    8.70    1.49
   5   5 -14    7.36    1.17
   5   5 -13    0.94    0.66
   5   5 -13    0.53    0.64
   5   5 -12   11.38    1.52
   5   5 -12   10.17    1.37
   5   5 -11  132.28    5.16
   5   5 -11  128.88    5.03
   5   5 -10   32.26    2.30
   5   5 -10   28.32    2.20
   5   5  -9    3.50    0.82
   5   5  -9    4.08    0.99
   5   5  -8   99.99    3.84
   5   5  -8   88.41    3.94
   5   5  -7  215.89    5.95
   5   5  -7  214.26    6.58
   5   5  -7  212.28    6.26
   5   5  -6   29.98    1.77
   5   5  -6   26.57    2.00
   5   5  -6   29.05    1.89
   5   5  -5   47.62    2.14
   5   5  -5   45.93    2.34
   5   5  -5   46.59    2.67
   5   5  -4  126.09    4.03
   5   5  -4  128.02    4.66
   5   5  -3   85.71    3.07
   5   5  -3   93.03    3.80
   5   5  -2   21.07    1.35
   5   5  -2   24.29    1.84
  -5  -5   2   23.27    1.80
   5   5  -1   61.15    2.31
   5   5  -1   60.88    3.01
  -5  -5   1   66.44    3.11
   5   5   0  119.65    3.42
   5   5   0  118.09    4.35
  -5  -5   0  127.14    4.47
   5   5   0  118.51    4.37
  -5  -5  -1   88.54    2.26
   5   5   1   84.03    3.54
  -5  -5  -1   92.65    3.69
   5   5   1   88.30    3.70
  -5  -5  -2   57.24    2.82
   5   5   2   54.53    2.86
  -5  -5  -3   16.80    1.46
   5   5   3   14.36    1.44
   5   5   4    4.22    0.83
   5   5   4    3.76    0.51
  -5  -5  -4    4.02    0.69
   5   5   5   45.83    1.91
  -5  -5  -5   45.20    2.45
   5   5   5   46.96    2.70
   5   5   6  120.68    3.50
  -5  -5  -6  112.19    4.11
   5   5   6  116.07    4.56
   5   5   7    4.56    0.91
  -5  -5  -7    4.97    0.80
   5   5   7    4.16    0.60
   5   5   8    0.30    0.51
   5   5   8    2.01    0.51
  -5  -5  -8    1.13    0.44
   5   5   9   58.09    2.57
   5   5   9   56.05    3.22
   5   5  10   34.79    2.02
   5   5  10   32.84    2.48
   5   5  11   -0.48    0.52
   5   5  12    8.13    1.25
   5   6 -15   31.41    2.83
   5   6 -14   10.28    1.58
   5   6 -13   45.41    3.13
   5   6 -12   32.89    2.54
   5   6 -12   31.87    2.49
   5   6 -11    1.38    0.65
   5   6 -11    0.01    0.48
   5   6 -10   27.90    2.12
   5   6 -10   26.17    2.21
   5   6  -9   54.56    2.91
   5   6  -9   55.76    3.24
   5   6  -8   17.44    1.49
   5   6  -8   15.87    1.67
   5   6  -7    4.33    0.74
   5   6  -7    4.47    0.92
   5   6  -6  179.26    4.95
   5   6  -6  170.61    5.31
   5   6  -6  168.60    5.87
   5   6  -5   38.40    2.13
   5   6  -5   39.22    2.56
   5   6  -4    0.51    0.36
   5   6  -4    0.75    0.42
   5   6  -3   29.73    1.67
   5   6  -3   30.90    2.23
   5   6  -2  137.69    3.95
   5   6  -2  143.70    5.09
   5   6  -2  140.73    5.00
   5   6  -1    8.02    0.81
   5   6  -1    8.99    1.30
   5   6   0   15.09    0.99
   5   6   0   15.64    1.54
   5   6   1  140.95    3.61
   5   6   1  148.78    5.22
   5   6   2   40.80    2.56
   5   6   3    6.51    0.60
   5   6   3    8.00    1.17
   5   6   4   13.62    0.86
   5   6   4   12.74    1.43
   5   6   5   42.35    1.63
   5   6   5   41.19    2.70
   5   6   6   24.02    1.25
   5   6   6   21.29    1.94
   5   6   7   33.29    1.57
   5   6   7   31.33    2.41
   5   6   8   17.42    1.16
   5   6   8   14.70    1.71
   5   6   9    1.36    0.59
   5   6  10    7.09    1.29
   5   6  11   24.24    2.28
   5   6  12    1.70    0.85
   5   7 -15   -0.58    0.62
   5   7 -14   21.40    2.25
   5   7 -13    2.36    0.78
   5   7 -12    8.13    1.27
   5   7 -11   21.30    1.96
   5   7 -10   20.32    1.80
   5   7  -9    7.07    1.09
   5   7  -8    5.58    0.91
   5   7  -7   42.83    2.21
   5   7  -6   72.32    3.19
   5   7  -6   77.43    2.86
   5   7  -5    0.21    0.26
   5   7  -5   -0.24    0.54
   5   7  -4    2.72    0.54
   5   7  -4    2.86    0.74
   5   7  -3  104.49    3.43
   5   7  -3  112.76    4.54
   5   7  -2   82.57    2.81
   5   7  -2   90.90    4.02
   5   7  -1    0.75    0.23
   5   7  -1    1.61    0.75
   5   7   0   41.00    1.60
   5   7   0   42.35    2.70
   5   7   1   35.00    1.35
   5   7   1   35.88    2.50
   5   7   2   43.26    1.41
   5   7   2   49.48    2.96
   5   7   3    2.02    0.25
   5   7   3    1.86    0.28
   5   7   3    2.14    0.75
   5   7   4   11.26    0.56
   5   7   4   13.55    1.59
   5   7   5   34.89    2.60
   5   7   6    1.12    0.53
   5   7   7    1.45    0.70
   5   7   8    2.22    0.84
   5   7   9    1.99    0.87
   5   7  10    1.14    0.74
   5   7  11    0.45    0.64
   5   7  12    0.68    0.66
   5   8 -14    9.72    1.56
   5   8 -13   22.99    2.25
   5   8 -12    9.56    1.37
   5   8 -12    9.19    1.32
   5   8 -11   23.53    2.04
   5   8 -11   21.20    1.96
   5   8 -10    0.17    0.40
   5   8 -10   -0.86    0.53
   5   8  -9   58.28    2.90
   5   8  -9   52.50    3.18
   5   8  -8   39.02    2.18
   5   8  -8   37.30    2.63
   5   8  -7    1.22    0.42
   5   8  -7    1.73    0.62
   5   8  -6   14.43    1.37
   5   8  -6   15.59    1.66
   5   8  -5   83.83    3.32
   5   8  -5   95.42    4.31
   5   8  -4   27.03    1.67
   5   8  -4   27.63    2.23
   5   8  -3    0.99    0.37
   5   8  -3    0.53    0.54
   5   8  -2   49.52    2.00
   5   8  -2   51.99    3.13
   5   8  -1  115.20    3.13
   5   8  -1  123.10    5.02
   5   8   0    5.02    0.45
   5   8   0    6.76    1.17
   5   8   1    3.90    1.07
   5   8   2   91.42    4.40
   5   8   3   70.29    3.89
   5   8   4    5.90    1.18
   5   8   5    1.00    0.54
   5   8   6   84.28    4.47
   5   8   7    9.57    1.61
   5   8   8    1.10    0.79
   5   8   9    9.94    1.59
   5   8  10   18.47    2.21
   5   8  11    2.46    1.01
   5   9 -11   11.38    1.54
   5   9 -10    2.31    0.70
   5   9  -9    0.29    0.49
   5   9  -8   18.93    1.94
   5   9  -7   50.85    3.23
   5   9  -6    0.14    0.51
   5   9  -5    9.22    1.37
   5   9  -4   32.89    2.59
   5   9  -3   53.13    3.30
   5   9  -2    2.35    0.87
   5   9  -1    2.14    0.83
   5   9   0   50.37    3.32
   5   9   1   16.44    1.87
   5   9   2    0.96    0.76
   5   9   3    2.82    0.73
   5   9   4   17.56    2.03
   5   9   5    0.84    0.67
   5   9   6    1.64    0.86
   5   9   7    4.03    1.10
   5   9   8    3.11    1.07
   5  10 -11    0.57    0.55
   5  10 -10    2.32    0.81
   5  10  -9    0.80    0.65
   5  10  -8    0.60    0.61
   5  10  -7   -1.25    0.61
   5  10  -6    2.36    0.85
   5  10  -5   -0.26    0.51
   5  10  -4    0.67    0.65
   5  10  -3    1.61    0.81
   5  10  -2   14.69    1.85
   5  10  -1   -0.44    0.50
   5  10   0    1.62    0.78
   5  10   1    3.78    1.06
   5  10   2   18.72    2.14
   5  10   3   -0.05    0.51
   5  10   4    2.66    1.10
   5  10   5    5.42    1.35
   5  11 -10    2.74    0.84
   5  11  -9    2.15    0.82
   5  11  -8    4.65    1.14
   5  11  -7   -0.08    0.56
   5  11  -6    0.16    0.46
   5  11  -5    0.76    0.60
   5  11  -4   -0.42    0.55
   5  11  -3    0.15    0.53
   5  11  -2    1.99    0.94
   5  11  -1    0.60    0.62
   5  11   0    0.17    0.49
   6 -13  -2    3.85    1.04
  -6  13   2    3.35    1.04
   6 -13  -1    2.21    0.94
  -6  13   1    2.94    1.08
   6 -13   0    4.87    1.08
  -6  13   0    7.03    1.47
   6 -13   3    6.35    1.14
   6 -13   4   16.57    1.86
   6 -13   5   24.40    2.26
   6 -13   6    0.79    0.69
   6 -13   7    0.84    0.73
   6 -12  -4    2.29    0.77
  -6  12   4    2.78    1.07
   6 -12  -3    8.74    1.57
  -6  12   3    9.20    1.70
   6 -12  -2    0.73    0.62
  -6  12   2    0.82    0.52
   6 -12  -1    3.87    0.86
   6 -12  -1    2.36    0.71
  -6  12   1    3.36    1.06
   6 -12   0    4.91    0.98
   6 -12   0    4.89    1.20
  -6  12   0    5.65    1.21
   6 -12   1   18.77    1.79
   6 -12   1   18.36    1.95
   6 -12   2    2.02    0.70
   6 -12   2    0.69    0.53
   6 -12   3   -0.89    0.59
   6 -12   4   35.53    2.69
   6 -12   5    7.71    1.34
   6 -12   6    1.34    0.67
   6 -12   7   -0.15    0.60
   6 -12   8   47.81    3.46
   6 -11  -7   12.96    1.92
   6 -11  -7   13.93    2.06
   6 -11  -6    0.43    0.52
   6 -11  -6   -0.06    0.68
   6 -11  -5    1.49    0.89
   6 -11  -5    3.08    1.08
   6 -11  -4   21.52    2.31
   6 -11  -3   12.10    1.72
  -6  11   3   10.92    1.70
   6 -11  -2    4.54    1.03
  -6  11   2    6.82    1.34
   6 -11  -1    9.86    1.51
   6 -11   0    6.19    1.18
   6 -11   1   11.12    1.47
   6 -11   1   12.38    1.45
   6 -11   2   38.32    2.66
   6 -11   2   37.05    2.56
   6 -11   3   14.12    1.56
   6 -11   3   14.82    1.66
   6 -11   4    3.37    0.78
   6 -11   4    2.57    0.74
   6 -11   5   32.47    2.55
   6 -11   6   60.37    3.65
   6 -11   7    2.81    0.93
   6 -11   8    1.41    0.74
   6 -11   9   69.73    4.28
   6 -10 -10   50.76    3.93
   6 -10  -9    9.80    1.67
   6 -10  -8    8.12    1.41
   6 -10  -8    8.28    1.65
   6 -10  -7    0.58    0.50
   6 -10  -7    0.16    0.72
   6 -10  -6   62.14    3.98
   6 -10  -6   73.01    4.48
   6 -10  -5    8.94    1.49
   6 -10  -5   10.58    1.68
   6 -10  -4   20.29    2.12
   6 -10  -4   19.40    2.29
   6 -10  -3   32.87    2.66
   6 -10  -2   54.84    3.35
   6 -10  -1    2.10    0.70
   6 -10   0   -0.05    0.44
   6 -10   1   52.28    3.08
   6 -10   2   28.92    2.21
   6 -10   2   30.12    2.25
   6 -10   3    6.58    1.08
   6 -10   3    6.89    1.04
   6 -10   4   16.91    1.75
   6 -10   4   16.72    1.55
   6 -10   5   15.93    1.77
   6 -10   5   16.07    1.47
   6 -10   6    9.02    1.37
   6 -10   7   24.52    2.34
   6 -10   8    6.65    1.24
   6 -10   8    7.86    1.30
   6 -10   9   -0.53    0.52
   6 -10   9    0.08    0.43
   6 -10  10    9.86    1.60
   6  -9 -12   16.81    2.22
   6  -9 -11   -0.05    0.67
   6  -9 -10   15.87    2.05
   6  -9 -10   16.04    2.07
   6  -9  -9   11.46    1.82
   6  -9  -9    9.02    1.60
   6  -9  -8   18.83    2.24
   6  -9  -8   17.32    2.29
   6  -9  -7   14.16    1.84
   6  -9  -7   16.38    2.09
   6  -9  -6   16.78    1.98
   6  -9  -6   16.75    2.08
   6  -9  -5   45.13    3.12
   6  -9  -5   43.01    3.24
   6  -9  -4    9.75    1.45
   6  -9  -4   12.12    1.71
   6  -9  -3   13.17    1.64
   6  -9  -3   12.81    1.73
   6  -9  -2   31.38    2.44
   6  -9  -2   32.13    2.66
   6  -9  -1   52.12    3.07
   6  -9   0   16.09    1.63
   6  -9   1    9.22    1.30
   6  -9   2    2.76    0.71
   6  -9   3   47.35    2.64
   6  -9   3   49.67    2.96
   6  -9   3   49.31    2.68
   6  -9   4    3.31    0.78
   6  -9   4    3.89    0.71
   6  -9   4    3.83    0.74
   6  -9   5    2.16    0.71
   6  -9   5    1.79    0.66
   6  -9   5    1.83    0.42
   6  -9   6    4.22    1.02
   6  -9   6    3.21    0.60
   6  -9   6    3.91    0.94
   6  -9   7   18.64    2.00
   6  -9   7   17.74    1.83
   6  -9   8    1.12    0.67
   6  -9   8    0.77    0.42
   6  -9   9    0.84    0.47
   6  -9   9    0.52    0.45
   6  -9  10    0.96    0.49
   6  -9  11    0.22    0.64
   6  -8 -14   -0.58    0.56
   6  -8 -13    3.51    1.09
   6  -8 -12   14.18    1.93
   6  -8 -12   13.86    1.95
   6  -8 -11    0.39    0.51
   6  -8 -11   -0.79    0.63
   6  -8 -10    2.36    0.86
   6  -8 -10    0.98    1.08
   6  -8  -9   28.82    2.63
   6  -8  -9   27.77    2.65
   6  -8  -8   40.37    3.11
   6  -8  -7    6.18    1.25
   6  -8  -6    6.22    1.27
   6  -8  -5   33.77    2.72
   6  -8  -4    1.69    0.71
   6  -8  -3    0.20    0.45
   6  -8  -2    0.83    0.55
   6  -8  -1  169.80    6.24
   6  -8   0   16.08    1.74
   6  -8   1   96.16    4.41
   6  -8   1   92.93    3.90
   6  -8   2  117.40    4.32
   6  -8   2  119.91    4.91
   6  -8   2  115.61    4.31
   6  -8   3    5.11    0.81
   6  -8   3    6.10    0.92
   6  -8   3    3.93    0.88
   6  -8   4    8.39    1.20
   6  -8   4    9.70    1.06
   6  -8   4    8.77    1.01
   6  -8   4    9.23    1.26
   6  -8   5    5.12    0.98
   6  -8   5    4.06    0.70
   6  -8   5    4.52    0.71
   6  -8   5    4.38    0.83
   6  -8   6   30.78    1.73
   6  -8   6   29.77    2.39
   6  -8   6   30.19    2.26
   6  -8   6   31.95    1.75
   6  -8   7    3.24    0.88
   6  -8   7    2.28    0.44
   6  -8   7    2.64    0.71
   6  -8   8   28.01    2.45
   6  -8   8   25.11    2.00
   6  -8   9    0.95    0.59
   6  -8   9    1.78    0.63
   6  -8  10   10.74    1.61
   6  -8  11    1.07    0.54
   6  -7 -14   -0.04    0.61
   6  -7 -13    1.15    0.92
   6  -7 -13    1.48    0.81
   6  -7 -12    0.90    0.61
   6  -7 -12    1.13    0.66
   6  -7 -11    8.08    1.40
   6  -7 -10    5.74    1.25
   6  -7  -9    0.57    0.52
   6  -7  -8   17.60    2.02
   6  -7  -7  113.16    5.13
   6  -7  -6    0.93    0.62
   6  -7  -5   17.93    1.88
   6  -7  -4   93.59    4.40
   6  -7  -3  117.35    4.94
   6  -7  -2   10.43    1.38
   6  -7  -1    2.08    0.63
   6  -7  -1    3.14    0.84
   6  -7   0  280.99    8.12
   6  -7   0  272.23    7.56
   6  -7   1    2.97    0.69
   6  -7   1    2.81    0.77
   6  -7   2  139.32    5.15
   6  -7   2  135.34    4.60
   6  -7   3  242.42    7.17
   6  -7   3  233.36    6.37
   6  -7   4   23.54    1.96
   6  -7   4   25.35    2.00
   6  -7   4   23.61    1.59
   6  -7   5   10.87    1.40
   6  -7   5   10.42    0.97
   6  -7   5   10.59    1.02
   6  -7   5   12.92    1.42
   6  -7   6    1.47    0.57
   6  -7   6    1.00    0.29
   6  -7   6    1.78    0.44
   6  -7   6    1.65    0.62
   6  -7   7   14.73    0.98
   6  -7   7   14.19    1.66
   6  -7   7   16.47    1.53
   6  -7   7   13.24    0.91
   6  -7   8   49.22    3.17
   6  -7   8   46.96    2.61
   6  -7   9    3.56    1.38
   6  -7   9    5.93    1.11
   6  -7  10    0.46    0.44
   6  -7  11   32.65    2.79
   6  -7  12   11.84    1.80
   6  -6 -14    0.94    0.63
   6  -6 -14    1.01    0.68
   6  -6 -13   -0.39    0.71
   6  -6 -12   11.60    1.60
   6  -6 -11   16.17    1.86
   6  -6 -10    5.76    1.20
   6  -6  -9   10.96    1.52
   6  -6  -8   12.49    1.55
   6  -6  -7   16.51    1.77
   6  -6  -6   42.88    2.85
   6  -6  -5   12.48    1.53
   6  -6  -4    0.86    0.58
   6  -6  -3   24.87    2.08
   6  -6  -2  153.86    5.53
   6  -6  -2  156.27    5.31
   6  -6  -1   13.41    1.35
   6  -6  -1   11.41    1.43
   6  -6   0   12.60    1.30
   6  -6   0   13.05    1.44
   6  -6   1   73.73    3.44
   6  -6   1   66.70    3.00
   6  -6   2   70.68    3.34
   6  -6   2   70.89    3.00
   6  -6   3   19.69    1.67
   6  -6   3   19.49    1.44
   6  -6   4   30.65    2.09
   6  -6   4   31.91    1.80
   6  -6   5  228.08    7.19
   6  -6   5  258.64    6.99
   6  -6   5  247.15    6.03
   6  -6   6  126.36    5.06
   6  -6   6  134.00    4.59
   6  -6   6  137.13    3.78
   6  -6   7   22.24    1.14
   6  -6   7   21.93    2.02
   6  -6   7   22.97    1.67
   6  -6   7   19.89    1.09
   6  -6   8    1.65    0.65
   6  -6   8    0.88    0.22
   6  -6   8    1.43    0.26
   6  -6   8    1.14    0.46
   6  -6   9  189.96    6.83
   6  -6   9  178.36    5.09
   6  -6  10   38.03    2.92
   6  -6  11    4.01    1.04
   6  -6  12   12.80    1.81
   6  -5 -15    8.15    1.38
   6  -5 -14   51.29    3.72
   6  -5 -14   40.33    2.95
   6  -5 -13    3.93    0.98
   6  -5 -13    4.29    0.98
   6  -5 -12    6.10    1.19
   6  -5 -12    5.17    1.06
   6  -5 -11   -0.19    0.51
   6  -5 -10   40.86    2.84
   6  -5  -9    8.90    1.27
   6  -5  -8    5.54    1.08
   6  -5  -7   14.03    1.61
   6  -5  -6   29.56    2.24
   6  -5  -5    7.21    1.16
  -6   5   4    6.32    0.97
   6  -5  -4    7.05    1.06
   6  -5  -4    6.70    1.06
  -6   5   3   11.65    1.28
   6  -5  -3   10.84    1.31
   6  -5  -3   12.46    1.35
   6  -5  -2    2.72    0.62
   6  -5  -2    2.66    0.64
   6  -5  -1   39.25    2.43
   6  -5  -1   41.57    2.37
   6  -5   0   60.59    3.04
   6  -5   0   63.58    2.92
   6  -5   1    5.96    0.91
   6  -5   1    6.96    0.95
   6  -5   2    0.56    0.38
   6  -5   2    0.99    0.32
   6  -5   3   76.83    3.25
   6  -5   3   74.28    2.93
   6  -5   4   91.24    3.55
   6  -5   4   92.10    3.18
   6  -5   5   34.96    2.39
   6  -5   5   38.66    2.15
   6  -5   5   39.74    1.85
   6  -5   6   50.82    2.97
   6  -5   6   50.66    2.46
   6  -5   6   56.83    2.12
   6  -5   7  160.75    5.86
   6  -5   7  166.57    4.86
   6  -5   7  172.25    4.08
   6  -5   8   25.25    1.01
   6  -5   8   31.00    2.56
   6  -5   8   24.07    1.51
   6  -5   8   23.20    0.96
   6  -5   9   -0.09    0.51
   6  -5   9    0.68    0.36
   6  -5  10   66.47    2.23
   6  -5  10   66.36    3.81
   6  -5  11   52.00    3.47
   6  -5  12    1.93    0.86
   6  -5  13    2.93    0.90
   6  -4 -15    0.70    0.56
   6  -4 -14   48.10    3.58
   6  -4 -14   43.95    2.99
   6  -4 -13    1.47    0.85
   6  -4 -13    0.31    0.41
   6  -4 -12   38.97    3.01
   6  -4 -12   34.78    2.56
   6  -4 -11    3.28    0.81
   6  -4 -11    2.01    0.78
   6  -4 -10   95.22    4.52
   6  -4 -10   80.37    3.94
   6  -4  -9    0.23    0.40
   6  -4  -8  137.18    5.19
   6  -4  -7  248.66    7.42
   6  -4  -6    5.54    0.98
  -6   4   5   11.64    1.30
   6  -4  -5   12.05    1.41
   6  -4  -5   13.76    1.46
  -6   4   4    1.26    0.49
   6  -4  -4    2.05    0.67
   6  -4  -4    1.60    0.65
  -6   4   3   56.05    2.88
   6  -4  -3   57.46    2.96
   6  -4  -3   70.16    3.25
   6  -4  -2   21.17    1.74
   6  -4  -2   23.73    1.81
   6  -4  -1    1.60    0.43
   6  -4  -1    1.50    0.56
   6  -4   0   10.36    1.17
   6  -4   0   13.41    1.27
   6  -4   1    4.27    0.71
   6  -4   1    5.75    0.92
   6  -4   2    0.49    0.24
   6  -4   2    0.26    0.33
   6  -4   3    1.04    0.39
   6  -4   3    1.07    0.42
   6  -4   4    7.24    0.82
   6  -4   4    5.65    0.82
   6  -4   5   13.60    1.19
   6  -4   5   14.31    1.10
   6  -4   6    0.69    0.38
   6  -4   6    1.11    0.33
   6  -4   6    0.92    0.32
   6  -4   7    3.24    0.86
   6  -4   7    3.28    0.59
   6  -4   7    2.99    0.44
   6  -4   8   65.95    3.56
   6  -4   8   70.81    2.50
   6  -4   8   70.89    2.01
   6  -4   9    2.82    0.41
   6  -4   9    3.35    0.83
   6  -4  10    3.93    0.94
   6  -4  11    6.73    1.29
   6  -4  12   37.68    2.99
   6  -4  13    0.20    0.74
   6  -3 -15    6.44    1.17
   6  -3 -14   -0.83    0.69
   6  -3 -14    0.13    0.46
   6  -3 -13  106.90    5.22
   6  -3 -13   89.92    4.30
   6  -3 -12   11.31    1.62
   6  -3 -12    9.84    1.35
   6  -3 -11   37.62    2.81
   6  -3 -11   26.88    2.18
   6  -3 -10    2.42    0.85
   6  -3 -10    4.41    0.96
   6  -3  -9  346.49    9.38
   6  -3  -9  313.63    8.77
   6  -3  -8    5.18    1.01
   6  -3  -7   28.60    2.08
  -6   3   6  142.53    5.00
   6  -3  -6  133.79    4.86
   6  -3  -6  148.30    5.31
  -6   3   5  108.60    4.19
   6  -3  -5  101.43    4.08
   6  -3  -5  117.51    4.47
  -6   3   4    2.25    0.60
   6  -3  -4    1.89    0.58
  -6   3   4    1.84    0.50
   6  -3  -4    2.20    0.55
  -6   3   3   18.00    1.53
   6  -3  -3   16.99    1.50
  -6   3   3   20.38    1.65
   6  -3  -2   55.89    2.75
  -6   3   2   66.01    3.04
   6  -3  -1  231.24    6.53
  -6   3   1  264.54    6.91
   6  -3   0    0.06    0.31
   6  -3   1   13.81    1.36
   6  -3   2   99.69    3.53
   6  -3   3    8.66    0.95
   6  -3   4    0.52    0.34
   6  -3   5   22.93    1.44
   6  -3   6   10.65    1.26
   6  -3   6   10.77    0.94
   6  -3   7    3.21    0.73
   6  -3   7    5.47    0.65
   6  -3   8   11.11    1.39
   6  -3   8   13.45    0.93
   6  -3   8   13.93    0.82
   6  -3   9    0.49    0.18
   6  -3   9    0.41    0.19
   6  -3   9   -0.14    0.56
   6  -3   9    0.71    0.25
   6  -3   9    0.29    0.16
   6  -3  10    3.10    0.68
   6  -3  11   26.88    2.35
   6  -3  12   12.32    1.74
   6  -3  13    8.30    1.48
   6  -3  14    1.94    0.73
   6  -2 -15   33.37    2.99
   6  -2 -15   29.94    2.39
   6  -2 -14   -1.22    0.86
   6  -2 -14   -0.30    0.51
   6  -2 -13    8.97    1.49
   6  -2 -13    6.95    1.15
   6  -2 -12   54.54    3.49
   6  -2 -12   48.12    2.93
   6  -2 -11   64.40    3.70
   6  -2 -11   56.17    3.16
   6  -2 -10   13.52    1.62
   6  -2 -10   12.94    1.45
   6  -2  -9    5.56    1.22
   6  -2  -9    7.98    1.22
   6  -2  -8  459.24   10.96
   6  -2  -8  403.63   10.27
   6  -2  -7   57.75    2.96
  -6   2   7   61.87    3.18
  -6   2   6    9.95    1.20
   6  -2  -6    6.94    0.97
  -6   2   6   10.30    1.26
  -6   2   5    1.93    0.56
   6  -2  -5    2.19    0.56
  -6   2   5    1.59    0.55
  -6   2   4  393.03    9.54
   6  -2  -4  389.47    9.54
  -6   2   4  442.50   10.05
  -6   2   3  171.92    5.34
   6  -2  -3  171.56    5.33
  -6   2   3  193.89    5.71
   6  -2  -2   64.01    2.90
  -6   2   2   70.32    3.11
   6  -2  -1   78.13    3.19
  -6   2   1   86.02    3.41
   6  -2   0  577.07   12.58
  -6   2   0  655.49   13.11
   6  -2   1   18.66    1.40
  -6   2  -1   20.88    1.55
   6  -2   2   23.74    1.53
  -6   2  -2   25.47    1.68
   6  -2   3   36.26    1.89
  -6   2  -3   39.78    2.07
  -6   2  -4  159.98    4.61
   6  -2   4  153.41    4.40
   6  -2   5    7.76    0.82
   6  -2   6    7.13    1.04
   6  -2   6    6.58    0.71
   6  -2   7   61.45    3.19
   6  -2   7   61.63    2.23
   6  -2   8   18.48    1.76
   6  -2   8   20.62    1.09
   6  -2   8   22.63    1.22
   6  -2   9    0.59    0.24
   6  -2   9    0.75    0.28
   6  -2   9    0.61    0.63
   6  -2   9    0.60    0.24
   6  -2  10   11.68    1.51
   6  -2  10   11.85    0.73
   6  -2  11   25.35    2.26
   6  -2  12   10.12    1.59
   6  -2  13   16.29    1.95
   6  -2  14    6.25    1.26
   6  -1 -15    1.21    0.81
   6  -1 -15   -1.24    0.73
   6  -1 -14    3.42    1.02
   6  -1 -14    3.31    0.82
   6  -1 -13   18.55    2.09
   6  -1 -13   14.56    1.63
   6  -1 -12    1.60    0.59
   6  -1 -12    0.58    0.39
   6  -1 -11    3.16    0.90
   6  -1 -11    2.98    0.81
   6  -1 -10   71.92    3.72
   6  -1 -10   67.07    3.34
   6  -1  -9   31.93    2.38
   6  -1  -9   36.76    2.41
   6  -1  -8   34.29    2.34
  -6   1   8   30.93    2.22
   6  -1  -8   26.75    2.00
  -6   1   7   45.16    2.66
   6  -1  -7   37.37    2.32
   6  -1  -6  328.12    8.43
   6  -1  -6  311.48    8.30
  -6   1   6  356.78    8.82
  -6   1   5   12.94    1.29
  -6   1   5   13.14    1.39
   6  -1  -5   12.19    1.29
  -6   1   4   45.40    2.42
   6  -1  -4   43.01    2.39
  -6   1   4   51.61    2.65
  -6   1   3  224.32    6.29
   6  -1  -3  231.88    6.38
  -6   1   3  253.94    6.68
  -6   1   2  527.90   11.99
   6  -1  -2  568.30   12.16
   6  -1  -1  205.97    5.83
  -6   1   1  228.70    6.12
  -6   1   0   30.71    1.89
   6  -1   0   26.09    1.69
  -6   1  -1  520.11   10.95
   6  -1   1  490.94   10.68
  -6   1  -2   47.31    2.29
   6  -1   2   47.94    2.23
  -6   1  -3   64.85    2.66
   6  -1   3   60.34    2.49
  -6   1  -4   33.29    1.81
   6  -1   4   31.31    1.68
  -6   1  -5  292.63    6.82
   6  -1   5  276.22    6.51
   6  -1   6   33.71    2.24
   6  -1   6   36.62    1.71
  -6   1  -6   39.15    1.87
   6  -1   7    1.16    0.38
   6  -1   7    0.71    0.43
   6  -1   7    0.54    0.24
  -6   1  -7    0.49    0.25
   6  -1   8   35.72    2.40
   6  -1   8   39.33    1.56
   6  -1   8   38.18    1.76
   6  -1   9   60.26    3.31
   6  -1   9   58.10    2.24
   6  -1   9   62.32    2.32
   6  -1  10    0.60    0.25
   6  -1  10    1.38    0.54
   6  -1  11   13.50    1.64
   6  -1  12   37.30    2.83
   6  -1  13   20.90    2.22
   6  -1  14    1.04    0.64
   6   0 -15    1.22    0.74
   6   0 -15    1.48    0.70
   6   0 -14    0.47    0.59
   6   0 -14   -0.45    0.56
   6   0 -13   -0.22    0.63
   6   0 -13   -0.18    0.47
   6   0 -12    0.10    0.45
   6   0 -12    0.65    0.58
   6   0 -11    0.39    0.41
   6   0 -11   -0.25    0.42
   6   0 -10    0.50    0.44
   6   0 -10   -1.13    0.64
   6   0  -9    3.87    0.84
   6   0  -9    4.25    0.86
   6   0  -8   32.69    2.28
  -6   0   8   25.96    2.03
   6   0  -8   24.74    1.91
   6   0  -7    0.23    0.40
   6   0  -7    0.08    0.35
  -6   0   7    0.87    0.51
   6   0  -6    4.02    0.76
   6   0  -6    4.73    0.79
  -6   0   6    5.51    0.85
  -6   0   5   32.33    2.03
  -6   0   5   35.10    2.19
   6   0  -5   29.77    1.99
  -6   0   4   40.59    2.22
  -6   0   4   45.47    2.48
   6   0  -4   41.15    2.32
  -6   0   3   54.55    2.54
  -6   0   3   60.69    2.83
   6   0  -3   51.13    2.57
  -6   0   2    0.39    0.28
   6   0  -2    0.55    0.40
  -6   0   2    0.88    0.48
  -6   0   1  117.61    3.98
   6   0  -1  105.73    3.76
   6   0   0    0.74    0.39
  -6   0   0   -0.11    0.31
  -6   0  -1  175.39    5.05
   6   0   1  172.08    4.92
  -6   0  -2   36.10    1.95
   6   0   2   32.81    1.81
  -6   0  -3   99.76    3.42
   6   0   3   92.09    3.24
  -6   0  -4  193.39    5.14
   6   0   4  179.23    4.88
   6   0   5    1.32    0.38
  -6   0  -5    1.48    0.39
   6   0   6   81.48    3.55
  -6   0  -6   91.22    3.06
   6   0   6   86.98    2.90
   6   0   7   33.41    2.20
   6   0   7   38.57    1.71
  -6   0  -7   38.42    1.80
   6   0   7   36.81    1.89
   6   0   8   75.51    3.55
   6   0   8   74.82    2.45
  -6   0  -8   69.17    2.47
   6   0   8   71.52    2.78
   6   0   9    1.15    0.82
   6   0   9    0.92    0.53
   6   0   9    0.45    0.57
   6   0  10   60.70    3.33
   6   0  10   55.04    2.39
   6   0  10   60.28    2.46
   6   0  11    2.25    0.49
   6   0  11    2.96    0.80
   6   0  12    0.51    0.51
   6   0  13    9.98    1.51
   6   0  14   19.58    2.11
   6   0  15    0.93    0.53
   6   1 -15   20.76    2.39
   6   1 -15   18.20    1.81
   6   1 -14   17.83    2.08
   6   1 -14   16.57    1.71
   6   1 -13   -0.10    0.48
   6   1 -13   -0.12    0.36
   6   1 -12    5.63    1.12
   6   1 -12    3.83    0.84
   6   1 -11   17.33    1.80
   6   1 -11   18.32    1.72
   6   1 -10   13.69    1.54
   6   1 -10   12.44    1.39
   6   1  -9    3.70    0.90
   6   1  -9    4.54    0.94
   6   1  -8   34.78    2.35
   6   1  -8   28.46    2.05
   6   1  -7   36.35    2.27
  -6  -1   7   34.85    2.28
   6   1  -7   31.34    2.11
   6   1  -6   32.42    2.08
  -6  -1   6   33.91    2.19
   6   1  -6   29.89    2.03
   6   1  -5   61.44    2.89
  -6  -1   5   61.03    2.95
   6   1  -5   57.16    2.83
  -6  -1   4   10.50    1.04
   6   1  -4   10.02    1.14
  -6  -1   4   10.54    1.17
  -6  -1   3    1.52    0.43
   6   1  -3    1.56    0.56
  -6  -1   3    1.68    0.53
  -6  -1   2  152.10    4.57
  -6  -1   2  170.75    5.09
   6   1  -2  155.60    4.87
  -6  -1   1  149.68    4.66
   6   1  -1  140.28    4.52
   6   1   0    1.49    0.45
  -6  -1   0    2.89    0.58
   6   1   1    1.48    0.60
  -6  -1  -1    0.54    0.40
  -6  -1  -2  219.62    5.80
   6   1   2  216.59    5.76
  -6  -1  -3   38.34    2.02
   6   1   3   40.01    2.03
   6   1   4    4.82    0.68
  -6  -1  -4    5.57    0.75
   6   1   5    4.91    0.68
  -6  -1  -5    5.20    0.69
   6   1   6  127.32    4.49
  -6  -1  -6  133.19    3.96
   6   1   6  132.04    3.88
   6   1   6  128.94    4.16
   6   1   7    3.62    0.65
   6   1   7    3.24    0.77
   6   1   7    2.94    0.49
  -6  -1  -7    3.18    0.54
   6   1   8   49.15    2.75
  -6  -1  -8   53.11    2.17
   6   1   8   51.36    2.42
   6   1   9    3.90    0.98
   6   1   9    3.88    0.75
   6   1   9    4.31    0.83
  -6  -1  -9    4.81    0.71
   6   1  10   67.22    3.43
   6   1  10   62.39    2.79
   6   1  10   70.80    2.94
   6   1  11   19.51    1.87
   6   1  11   16.61    1.38
   6   1  12   18.75    1.90
   6   1  13    6.11    1.18
   6   1  14    8.37    1.36
   6   1  15    8.90    1.44
   6   2 -15   12.36    1.84
   6   2 -15   12.95    1.55
   6   2 -14   12.54    1.76
   6   2 -14   12.01    1.50
   6   2 -13   50.95    3.44
   6   2 -13   46.44    2.92
   6   2 -12   30.49    2.55
   6   2 -12   26.59    2.15
   6   2 -11    7.05    1.16
   6   2 -11    7.90    1.17
   6   2 -10    5.37    0.99
   6   2 -10    5.48    0.96
   6   2  -9   79.02    3.71
   6   2  -9   81.59    3.72
   6   2  -8   13.77    1.44
   6   2  -8   10.81    1.28
   6   2  -7    8.73    1.07
   6   2  -7    9.10    1.16
  -6  -2   6   70.45    3.30
   6   2  -6   67.09    3.18
   6   2  -6   69.50    3.16
  -6  -2   5   67.49    3.12
   6   2  -5   61.95    3.01
   6   2  -5   63.77    2.94
  -6  -2   4   13.53    1.33
   6   2  -4   12.20    1.26
   6   2  -4   13.78    1.30
  -6  -2   3   25.52    1.59
  -6  -2   3   29.94    1.97
   6   2  -3   27.27    1.88
  -6  -2   2   78.77    2.91
  -6  -2   2   84.76    3.40
   6   2  -2   78.01    3.27
  -6  -2   1   96.33    3.30
  -6  -2   1  109.53    3.91
   6   2  -1  102.56    3.77
  -6  -2   0  145.19    4.63
   6   2   0  135.07    4.47
   6   2   1   33.63    1.97
  -6  -2  -1   36.33    2.07
   6   2   2    9.16    1.02
  -6  -2  -2    8.90    0.99
   6   2   3   62.77    2.71
  -6  -2  -3   64.69    2.78
  -6  -2  -4   88.58    3.28
   6   2   4   85.75    3.21
  -6  -2  -5   26.49    1.65
   6   2   5   26.46    1.62
   6   2   5   23.60    1.68
   6   2   6   32.76    2.04
  -6  -2  -6   35.57    1.90
   6   2   6   33.73    1.87
   6   2   6   35.49    2.07
   6   2   7   85.09    3.52
  -6  -2  -7   82.38    3.01
   6   2   7   84.74    3.40
   6   2   8   83.79    3.50
   6   2   8   90.57    3.77
  -6  -2  -8   86.75    3.06
   6   2   8   89.00    3.56
   6   2   9   47.63    2.57
   6   2   9   50.18    2.78
  -6  -2  -9   49.68    2.13
   6   2   9   50.61    2.64
   6   2  10    1.43    0.55
   6   2  10    1.80    0.56
   6   2  10    1.24    0.50
   6   2  11   24.08    2.01
   6   2  11   22.97    1.77
   6   2  12    5.74    1.16
   6   2  13    9.64    1.49
   6   2  14    0.11    0.61
   6   2  15   14.24    1.77
   6   3 -15   64.53    4.18
   6   3 -15   57.79    3.39
   6   3 -14    0.14    0.54
   6   3 -14    0.43    0.56
   6   3 -13    5.99    1.22
   6   3 -13    5.04    1.00
   6   3 -12   77.81    4.13
   6   3 -12   77.88    3.84
   6   3 -11   65.49    3.60
   6   3 -11   61.49    3.34
   6   3 -10   16.68    1.70
   6   3 -10   14.95    1.57
   6   3  -9    7.04    1.11
   6   3  -9    8.81    1.32
   6   3  -8  125.21    4.60
   6   3  -8  123.55    4.73
   6   3  -7  120.40    4.34
   6   3  -7  112.09    4.45
   6   3  -6   35.41    2.34
   6   3  -6   40.96    2.36
   6   3  -5   33.15    2.20
   6   3  -5   37.75    2.21
   6   3  -4   63.23    3.09
  -6  -3   4   67.08    3.19
   6   3  -4   63.84    2.87
  -6  -3   3    0.53    0.31
   6   3  -3    0.69    0.46
   6   3  -3    0.42    0.34
  -6  -3   2    1.02    0.34
  -6  -3   2    0.99    0.43
   6   3  -2    1.39    0.45
  -6  -3   1   74.82    2.71
   6   3  -1   80.13    3.36
  -6  -3   1   85.99    3.49
  -6  -3   0   47.49    2.06
   6   3   0   46.34    2.46
  -6  -3   0   51.60    2.62
  -6  -3  -1    5.25    0.83
   6   3   1    6.21    0.90
  -6  -3  -2    9.87    1.11
   6   3   2    9.48    1.05
  -6  -3  -3    6.73    0.91
   6   3   3    6.44    0.90
   6   3   4    9.36    1.07
   6   3   4    8.36    0.98
  -6  -3  -4    9.80    1.08
   6   3   5   28.30    1.79
   6   3   5   26.26    1.74
  -6  -3  -5   28.27    1.83
   6   3   5   29.54    1.98
   6   3   6   16.55    1.37
  -6  -3  -6   15.55    1.34
   6   3   6   17.47    1.53
   6   3   7    0.31    0.31
   6   3   7    0.43    0.31
  -6  -3  -7   -0.23    0.34
   6   3   8    7.06    0.93
   6   3   8    7.79    1.04
  -6  -3  -8    8.74    0.93
   6   3   9   59.62    2.98
   6   3   9   53.28    2.90
   6   3  10    1.47    0.55
   6   3  10    1.05    0.38
   6   3  11    4.86    0.90
   6   3  11    4.15    0.90
   6   3  12    8.69    1.30
   6   3  13   27.17    2.30
   6   4 -15   21.49    2.38
   6   4 -15   19.85    2.05
   6   4 -14   18.26    2.11
   6   4 -14   15.50    1.78
   6   4 -13   -0.42    0.60
   6   4 -13   -0.05    0.55
   6   4 -12   85.25    4.33
   6   4 -12   81.57    4.04
   6   4 -11    0.85    0.59
   6   4 -11    0.49    0.54
   6   4 -10   29.73    2.26
   6   4 -10   29.09    2.28
   6   4  -9   10.70    1.32
   6   4  -9   14.66    1.62
   6   4  -8   77.24    3.45
   6   4  -8   70.32    3.56
   6   4  -7   51.98    2.67
   6   4  -7   50.66    2.91
   6   4  -6   82.00    3.76
   6   4  -6   84.49    3.55
   6   4  -5   31.91    2.24
   6   4  -5   30.30    1.97
   6   4  -4    1.01    0.44
   6   4  -4    0.42    0.35
   6   4  -3   73.49    3.41
   6   4  -3   75.91    3.06
   6   4  -2   10.87    1.25
   6   4  -2   11.20    1.06
  -6  -4   1   10.65    0.87
   6   4  -1   12.60    1.38
  -6  -4   0    6.28    0.66
   6   4   0    7.61    1.04
  -6  -4   0    8.48    1.10
   6   4   1   95.28    3.83
  -6  -4  -1  103.46    3.98
   6   4   2    8.86    1.16
   6   4   2    9.81    1.15
  -6  -4  -2   10.30    1.16
   6   4   3    1.18    0.50
   6   4   3    1.60    0.61
  -6  -4  -3    1.67    0.54
   6   4   4   13.81    1.43
  -6  -4  -4   14.16    1.35
   6   4   5   38.85    2.03
  -6  -4  -5   37.07    2.21
   6   4   5   37.64    2.37
   6   4   6    5.90    1.01
  -6  -4  -6    4.95    0.81
   6   4   6    5.22    0.74
   6   4   7    6.76    1.00
  -6  -4  -7    5.80    0.84
   6   4   7    6.24    0.85
   6   4   8    7.14    1.14
  -6  -4  -8    6.60    0.92
   6   4   8    7.84    0.97
   6   4   9    1.62    0.59
   6   4   9    1.19    0.74
   6   4  10    6.47    1.14
   6   4  10    5.37    0.85
   6   4  11   14.79    1.63
   6   4  11   16.66    1.60
   6   4  12    1.77    0.64
   6   5 -15    6.73    1.30
   6   5 -15    7.64    1.33
   6   5 -14   18.73    2.15
   6   5 -14   17.93    1.95
   6   5 -13   -0.45    0.62
   6   5 -13    1.05    0.59
   6   5 -12    3.96    1.03
   6   5 -12    2.55    0.75
   6   5 -11   59.00    3.37
   6   5 -11   56.33    3.37
   6   5 -10   44.77    2.78
   6   5 -10   43.57    2.88
   6   5  -9   23.44    1.89
   6   5  -9   26.56    2.23
   6   5  -8    1.79    0.72
   6   5  -8    3.77    1.08
   6   5  -7  152.57    4.89
   6   5  -7  143.03    5.42
   6   5  -6   -0.40    0.46
   6   5  -5   12.66    1.45
   6   5  -5   11.71    1.21
   6   5  -4    1.49    0.52
   6   5  -4    0.80    0.36
   6   5  -3  118.96    4.66
   6   5  -3  121.24    4.00
   6   5  -2    3.63    0.80
   6   5  -2    3.00    0.59
   6   5  -1   78.46    3.60
   6   5  -1   76.38    2.88
  -6  -5   0   25.52    1.23
   6   5   0   26.66    2.02
  -6  -5  -1   67.43    2.17
   6   5   1   63.86    3.20
   6   5   1   67.33    3.35
   6   5   2   19.52    1.69
   6   5   2   21.52    1.83
   6   5   3    2.30    0.71
   6   5   4   23.28    1.45
   6   5   4   22.65    1.92
   6   5   5    3.65    0.62
   6   5   5    3.59    0.77
   6   5   6   19.90    1.39
   6   5   6   18.03    1.77
   6   5   7    1.31    0.63
   6   5   7    2.08    0.52
   6   5   8    1.59    0.71
   6   5   8    3.36    0.62
   6   5   9    1.17    0.71
   6   5   9    1.09    0.49
   6   5  10    2.12    0.65
   6   5  11    1.49    0.86
   6   5  12   -0.47    0.48
   6   6 -15    2.30    0.93
   6   6 -14    9.99    1.54
   6   6 -14    9.24    1.46
   6   6 -13    2.51    0.90
   6   6 -13    1.93    0.67
   6   6 -12    4.35    0.98
   6   6 -12    2.88    0.96
   6   6 -11   -0.78    0.61
   6   6 -11   -0.99    0.75
   6   6 -10    3.06    0.72
   6   6 -10    3.14    1.00
   6   6  -9   24.23    2.02
   6   6  -9   25.47    2.35
   6   6  -8    1.49    0.52
   6   6  -8    1.77    0.70
   6   6  -7   17.10    1.80
   6   6  -6   31.90    2.44
   6   6  -5   42.09    2.35
   6   6  -5   43.73    2.85
   6   6  -4    8.52    0.98
   6   6  -4    9.09    1.27
   6   6  -3   26.05    1.69
   6   6  -3   29.48    2.27
   6   6  -2   60.77    2.55
   6   6  -2   62.00    3.34
   6   6  -1  166.29    4.61
   6   6  -1  170.88    5.90
   6   6  -1  168.99    5.89
   6   6   0  227.70    5.65
   6   6   0  241.62    7.32
   6   6   1   52.88    2.16
   6   6   1   61.79    3.32
  -6  -6  -2  123.01    2.84
   6   6   2  124.43    4.96
   6   6   3    5.45    1.03
  -6  -6  -3    3.79    0.42
   6   6   4    3.75    0.59
   6   6   4    3.69    0.82
   6   6   5   21.85    1.32
   6   6   5   25.15    2.18
   6   6   6   76.50    2.67
   6   6   6   72.22    3.86
   6   6   7    0.94    0.59
   6   6   8    1.29    0.71
   6   6   9   22.24    2.21
   6   6  10   11.86    1.68
   6   6  11    0.49    0.48
   6   6  12   -0.39    0.59
   6   7 -14    5.76    1.22
   6   7 -13    7.76    1.37
   6   7 -12    1.62    0.68
   6   7 -11    4.03    0.87
   6   7 -10    8.70    1.21
   6   7 -10    7.47    1.36
   6   7  -9    1.08    0.50
   6   7  -9    1.10    0.75
   6   7  -8   18.94    1.57
   6   7  -8   19.50    2.01
   6   7  -7   11.75    1.56
   6   7  -6    1.17    0.69
   6   7  -5   15.12    1.39
   6   7  -5   15.62    1.76
   6   7  -4   35.12    2.04
   6   7  -4   39.93    2.70
   6   7  -3    9.15    0.95
   6   7  -3    8.55    1.28
   6   7  -2    3.28    0.56
   6   7  -2    2.62    0.79
   6   7  -1   27.93    1.54
   6   7  -1   30.01    2.36
   6   7   0   69.35    2.47
   6   7   0   76.20    3.88
   6   7   1    0.55    0.27
   6   7   1    1.12    0.59
   6   7   2    0.25    0.50
   6   7   3   36.20    1.52
   6   7   3   36.43    2.70
   6   7   4   17.43    1.94
   6   7   5   -0.17    0.52
   6   7   6    0.55    0.55
   6   7   7   49.61    3.34
   6   7   8    4.82    1.18
   6   7   9    5.17    1.15
   6   7  10    3.03    1.07
   6   7  11   15.82    2.03
   6   8 -12    5.90    1.19
   6   8 -11    0.04    0.46
   6   8 -10   -0.64    0.46
   6   8  -9    0.23    0.54
   6   8  -8    3.88    0.92
   6   8  -7    0.03    0.47
   6   8  -6    1.46    0.72
   6   8  -5    3.80    0.97
   6   8  -4    5.92    1.14
   6   8  -3    8.66    1.36
   6   8  -2   16.41    1.83
   6   8  -1    1.57    0.84
   6   8   0   28.46    2.43
   6   8   1   46.70    3.17
   6   8   2   43.75    3.10
   6   8   3    0.02    0.46
   6   8   4    9.16    1.50
   6   8   5   54.95    3.61
   6   8   6    3.58    1.05
   6   8   7    0.73    0.65
   6   8   8   22.63    2.44
   6   8   9   12.76    1.85
   6   9 -11    1.67    0.84
   6   9 -10    9.04    1.47
   6   9  -9    4.05    1.11
   6   9  -8    3.33    0.93
   6   9  -7    4.46    1.05
   6   9  -6   -0.15    0.48
   6   9  -5    0.13    0.60
   6   9  -4    0.07    0.55
   6   9  -3    0.09    0.60
   6   9  -2   -0.45    0.50
   6   9  -1    0.85    0.47
   6   9   0    0.54    0.50
   6   9   1    0.38    0.61
   6   9   2    6.92    1.34
   6   9   3   -0.47    0.77
   6   9   4    1.44    0.73
   6   9   5    3.23    1.02
   6   9   6   13.69    1.92
   6  10 -10   11.77    1.68
   6  10  -9    5.86    1.28
   6  10  -8    9.46    1.49
   6  10  -7   23.46    2.38
   6  10  -6   -0.24    0.52
   6  10  -5    0.55    0.54
   6  10  -4    3.38    0.94
   6  10  -3    7.27    1.37
   6  10  -2    1.22    0.88
   6  10  -1    1.51    0.83
   6  10   0    8.94    1.60
   6  10   1    0.99    0.70
   6  10   2   -0.85    0.73
   7 -13  -1   -0.31    0.66
   7 -13   0    1.81    0.63
   7 -13   1   -0.33    0.67
   7 -13   2   -0.05    0.62
   7 -13   3   -0.45    0.56
   7 -13   4    0.45    0.55
   7 -13   5    5.91    1.28
   7 -13   6    0.26    0.65
   7 -12  -3   27.77    2.72
   7 -12  -2    8.38    1.48
   7 -12  -2    7.28    1.63
   7 -12  -1    6.34    1.28
   7 -12  -1    4.96    1.20
   7 -12   0    2.79    0.91
   7 -12   0    4.24    1.15
   7 -12   0    3.16    0.95
   7 -12   1   12.01    1.57
   7 -12   1   14.84    1.84
   7 -12   1   14.44    2.09
   7 -12   2    1.06    0.65
   7 -12   2   -0.27    0.46
   7 -12   2    2.76    0.98
   7 -12   3    0.85    0.66
   7 -12   3    0.93    0.55
   7 -12   3    0.99    0.60
   7 -12   4    5.42    1.16
   7 -12   4    4.78    0.96
   7 -12   4    5.68    1.33
   7 -12   5    2.36    0.94
   7 -12   5    1.85    0.88
   7 -12   6    1.76    0.68
   7 -12   6    1.80    0.89
   7 -12   7    1.98    0.75
   7 -12   7    4.37    1.17
   7 -11  -6    3.69    1.12
   7 -11  -6    6.29    1.53
   7 -11  -5   59.01    3.98
   7 -11  -5   58.54    4.21
   7 -11  -4    0.61    0.64
   7 -11  -4   -0.59    0.72
   7 -11  -3   24.66    2.49
   7 -11  -3   23.82    2.61
   7 -11  -2   16.79    1.97
   7 -11  -2   17.64    2.20
   7 -11  -1   52.48    3.44
   7 -11  -1   54.06    3.90
   7 -11   0   -0.15    0.50
   7 -11   0    1.45    0.80
   7 -11   1    3.50    1.06
   7 -11   1    4.60    1.37
   7 -11   2   36.11    2.69
   7 -11   2   36.16    2.66
   7 -11   2   40.40    3.30
   7 -11   3   19.93    2.03
   7 -11   3   21.25    1.94
   7 -11   3   21.37    2.31
   7 -11   4    1.38    0.76
   7 -11   4    0.87    0.48
   7 -11   4    0.26    0.53
   7 -11   5    9.77    1.57
   7 -11   5    7.91    1.38
   7 -11   6   18.95    2.12
   7 -11   6   22.42    2.39
   7 -11   7   14.01    1.86
   7 -11   7   17.99    2.09
   7 -11   8    1.05    0.62
   7 -11   8   -0.20    0.59
   7 -10  -8    1.42    0.85
   7 -10  -7    3.39    1.11
   7 -10  -7    3.54    1.24
   7 -10  -6   18.08    2.16
   7 -10  -6   22.00    2.53
   7 -10  -5   15.83    1.97
   7 -10  -5   19.38    2.37
   7 -10  -4   19.36    2.17
   7 -10  -4   21.23    2.43
   7 -10  -3    1.38    0.75
   7 -10  -3    1.36    0.78
   7 -10  -2   77.22    4.19
   7 -10  -2   85.27    4.79
   7 -10  -1    1.83    0.65
   7 -10  -1    3.38    1.05
   7 -10   0   92.54    4.44
   7 -10   0  102.64    5.16
   7 -10   1   -0.26    0.45
   7 -10   1    0.24    0.64
   7 -10   2  106.66    4.59
   7 -10   2  110.40    5.34
   7 -10   3    9.65    1.39
   7 -10   3   11.84    1.41
   7 -10   3   12.14    1.69
   7 -10   4   52.86    2.91
   7 -10   4   50.30    3.29
   7 -10   4   49.84    3.42
   7 -10   5    2.53    0.77
   7 -10   5    4.19    0.76
   7 -10   5    4.34    1.05
   7 -10   6   24.66    2.34
   7 -10   6   21.54    2.20
   7 -10   7   28.96    2.61
   7 -10   7   32.91    2.68
   7 -10   8   29.19    2.76
   7 -10   8   37.65    2.83
   7 -10   9    8.46    1.56
   7  -9 -11    2.27    0.75
   7  -9 -10    0.79    0.75
   7  -9  -9    2.38    1.08
   7  -9  -9    0.80    0.65
   7  -9  -8   19.19    2.19
   7  -9  -8   15.01    2.01
   7  -9  -7   10.70    1.78
   7  -9  -6    5.02    1.09
   7  -9  -5    2.53    0.99
   7  -9  -4   71.91    4.29
   7  -9  -3    2.86    1.03
   7  -9  -2    2.01    0.85
   7  -9  -1   28.42    2.58
   7  -9   0   81.04    4.38
   7  -9   1   29.99    2.30
   7  -9   1   32.18    2.68
   7  -9   2    2.34    0.78
   7  -9   2    1.71    0.54
   7  -9   3  125.94    4.72
   7  -9   3  135.24    5.65
   7  -9   4   17.60    1.57
   7  -9   4   18.14    1.97
   7  -9   4   16.52    1.81
   7  -9   5   40.90    2.32
   7  -9   5   39.37    2.88
   7  -9   5   41.37    2.91
   7  -9   6    1.66    0.80
   7  -9   6    0.67    0.40
   7  -9   6    0.73    0.55
   7  -9   7   98.35    4.90
   7  -9   7  101.96    4.63
   7  -9   8    4.67    1.12
   7  -9   8    3.82    0.85
   7  -9   9    5.53    1.25
   7  -9  10    7.66    1.65
   7  -8 -13    1.01    0.60
   7  -8 -12   15.24    2.07
   7  -8 -11    1.15    0.51
   7  -8 -10   -0.41    0.54
   7  -8  -9    7.80    1.45
   7  -8  -8    8.67    1.49
   7  -8  -7    5.50    1.24
   7  -8  -6    6.97    1.40
   7  -8  -5    1.36    0.75
   7  -8  -4    3.49    1.31
   7  -8  -3   37.00    2.87
   7  -8  -2   44.10    3.10
   7  -8  -1    2.20    0.85
   7  -8   0    0.06    0.52
   7  -8   1   47.89    3.11
   7  -8   2   29.61    2.41
   7  -8   3   10.57    1.19
   7  -8   3   11.56    1.49
   7  -8   4   11.38    1.50
   7  -8   4   11.67    1.21
   7  -8   4    9.00    1.32
   7  -8   5   81.27    4.20
   7  -8   5   90.29    3.48
   7  -8   5   93.69    4.31
   7  -8   5   88.29    3.44
   7  -8   6    0.78    0.58
   7  -8   6    1.31    0.41
   7  -8   6    1.48    0.55
   7  -8   7   32.31    2.67
   7  -8   7   32.25    2.36
   7  -8   8   62.79    3.89
   7  -8   8   65.97    3.34
   7  -8   9   40.37    3.17
   7  -8   9   43.12    2.58
   7  -8  10    3.65    1.19
   7  -7 -14   17.87    2.21
   7  -7 -13    0.52    0.59
   7  -7 -12    7.99    1.56
   7  -7 -11    8.85    1.52
   7  -7 -10   26.09    2.56
   7  -7  -9    1.59    0.79
   7  -7  -8    0.85    0.75
   7  -7  -7   55.36    3.55
   7  -7  -6    9.07    1.45
   7  -7  -5    7.70    1.30
   7  -7  -4   27.28    2.41
   7  -7  -3   21.36    2.09
   7  -7  -2   29.52    2.43
   7  -7  -1   35.89    2.66
   7  -7   0   14.87    1.68
   7  -7   1    2.68    0.67
   7  -7   1    2.88    0.83
   7  -7   2   55.95    3.21
   7  -7   2   56.47    2.88
   7  -7   3   38.75    2.62
   7  -7   3   36.28    2.22
   7  -7   4    1.33    0.48
   7  -7   4    1.66    0.65
   7  -7   5    2.54    0.69
   7  -7   5    1.75    0.45
   7  -7   5    0.26    0.40
   7  -7   6   60.81    3.60
   7  -7   6   64.92    3.28
   7  -7   6   72.24    2.78
   7  -7   7   25.32    1.44
   7  -7   7   22.01    2.20
   7  -7   7   24.19    1.93
   7  -7   8   20.43    2.21
   7  -7   8   16.17    1.55
   7  -7   9   17.29    2.29
   7  -7   9   19.90    1.66
   7  -7  10   86.69    4.73
   7  -7  11   -0.17    0.66
   7  -6 -15    4.41    1.21
   7  -6 -14   19.84    2.21
   7  -6 -13   45.01    3.38
   7  -6 -12   -0.13    0.55
   7  -6 -11   17.77    2.06
   7  -6 -10    4.81    1.13
   7  -6  -9   79.17    4.28
   7  -6  -8    1.29    0.95
   7  -6  -7   98.22    4.72
   7  -6  -6   27.19    2.33
   7  -6  -5   52.71    3.26
   7  -6  -4   19.72    1.95
   7  -6  -3    6.60    1.07
   7  -6  -2   25.34    2.10
   7  -6  -1    2.30    0.70
   7  -6   0   10.90    1.26
   7  -6   0   10.99    1.38
   7  -6   1    2.89    0.68
   7  -6   1    1.83    0.55
   7  -6   2   12.17    1.28
   7  -6   2   11.54    1.33
   7  -6   3   -0.01    0.26
   7  -6   3    0.51    0.36
   7  -6   4    3.87    0.86
   7  -6   4    5.58    0.78
   7  -6   5    2.08    0.68
   7  -6   5    3.83    0.82
   7  -6   5    3.24    0.62
   7  -6   6    0.14    0.41
   7  -6   6    0.87    0.37
   7  -6   6   -0.18    0.33
   7  -6   7    6.58    1.19
   7  -6   7    6.73    0.71
   7  -6   7    7.10    0.96
   7  -6   8   24.45    2.29
   7  -6   8   22.48    1.65
   7  -6   9    0.87    0.82
   7  -6   9    0.24    0.30
   7  -6  10    0.50    0.54
   7  -6  11   27.30    2.59
   7  -5 -15    6.65    1.26
   7  -5 -14    3.38    0.93
   7  -5 -13   35.69    2.84
   7  -5 -12    6.40    1.23
   7  -5 -11   17.91    1.98
   7  -5 -10   54.51    3.40
   7  -5  -9   35.48    2.87
   7  -5  -8    5.98    1.09
   7  -5  -7   28.07    2.34
   7  -5  -6  155.10    5.86
   7  -5  -5   12.28    1.53
   7  -5  -4   73.85    3.73
   7  -5  -3    5.53    0.99
   7  -5  -2  216.77    6.92
   7  -5  -2  238.81    7.03
   7  -5  -1    8.39    1.13
   7  -5  -1    7.82    1.13
   7  -5   0   10.62    1.33
   7  -5   0   14.85    1.44
   7  -5   1   40.14    2.49
   7  -5   1   44.57    2.49
   7  -5   2   28.11    2.06
   7  -5   2   29.37    1.97
   7  -5   3   22.78    1.82
   7  -5   3   25.00    1.75
   7  -5   4    0.50    0.36
   7  -5   4    0.56    0.38
   7  -5   5   39.22    2.29
   7  -5   5   42.85    2.12
   7  -5   6   11.33    1.42
   7  -5   6   13.17    1.25
   7  -5   6   14.96    1.16
   7  -5   7    0.50    0.45
   7  -5   7    0.42    0.31
   7  -5   7    0.72    0.30
   7  -5   8    1.35    0.69
   7  -5   8    1.45    0.42
   7  -5   9    0.80    0.54
   7  -5   9    0.73    0.35
   7  -5  10    1.66    0.78
   7  -5  11    6.29    1.21
   7  -5  12    0.03    0.61
   7  -4 -15   12.38    1.72
   7  -4 -14    1.35    0.72
   7  -4 -13    4.58    1.04
   7  -4 -12   35.65    2.73
   7  -4 -11   27.06    2.32
   7  -4 -10    5.04    1.10
   7  -4  -9    5.03    1.06
   7  -4  -8  188.76    6.51
   7  -4  -7   24.34    2.09
   7  -4  -6   32.74    2.39
   7  -4  -5   27.22    2.16
   7  -4  -4  286.95    8.14
   7  -4  -3    3.09    0.71
   7  -4  -3    1.41    0.58
   7  -4  -2   48.61    2.80
   7  -4  -2   55.44    2.97
   7  -4  -1  261.38    7.56
   7  -4  -1  295.35    7.80
   7  -4   0  249.26    7.18
   7  -4   0  268.25    7.26
   7  -4   1   43.57    2.53
   7  -4   2    0.05    0.37
   7  -4   3   76.31    3.27
   7  -4   4  134.38    4.51
   7  -4   4  140.39    4.41
   7  -4   5   25.13    1.74
   7  -4   5   28.48    1.70
   7  -4   6   30.71    2.35
   7  -4   6   30.19    1.82
   7  -4   6   35.30    1.85
   7  -4   7   61.74    3.50
   7  -4   7   65.02    2.69
   7  -4   7   65.44    2.50
   7  -4   8    6.69    1.23
   7  -4   8    4.94    0.67
   7  -4   8    4.92    0.56
   7  -4   9    3.25    0.52
   7  -4   9    1.82    0.82
   7  -4  10   23.25    2.33
   7  -4  11    9.05    1.42
   7  -4  12    3.79    1.27
   7  -3 -15    0.50    0.58
   7  -3 -14   -0.08    0.66
   7  -3 -14    0.99    0.72
   7  -3 -13    0.14    0.59
   7  -3 -13    0.73    0.71
   7  -3 -12    2.43    0.91
   7  -3 -12    1.32    0.68
   7  -3 -11    0.13    0.46
   7  -3 -10   22.94    2.05
   7  -3  -9    0.24    0.43
   7  -3  -8   57.53    3.23
   7  -3  -7  239.23    7.31
   7  -3  -6   18.59    1.77
   7  -3  -5   36.00    2.42
   7  -3  -4    3.22    0.74
  -7   3   3  302.91    8.52
   7  -3  -3  332.89    8.73
  -7   3   3  372.89    9.21
   7  -3  -2   82.74    3.64
  -7   3   2   93.25    3.94
   7  -3  -1   81.09    3.57
  -7   3   1   97.06    3.94
   7  -3   0  197.47    6.02
  -7   3   0  220.84    6.42
   7  -3   1  415.29   10.05
  -7   3  -1  461.81   10.51
   7  -3   2    5.80    0.87
   7  -3   3   29.74    1.87
   7  -3   4  242.90    6.41
   7  -3   5  157.16    4.71
   7  -3   6    0.47    0.37
   7  -3   6   -0.43    0.47
   7  -3   7    2.35    0.49
   7  -3   7    1.95    0.75
   7  -3   8  102.46    3.22
   7  -3   8   98.88    4.58
   7  -3   9    3.72    0.48
   7  -3   9    3.13    0.48
   7  -3   9    3.62    0.92
   7  -3  10    1.74    0.84
   7  -3  11   15.04    1.87
   7  -3  12   21.38    2.29
   7  -3  13    1.48    0.86
   7  -2 -15    5.77    1.24
   7  -2 -14    1.22    0.67
   7  -2 -14    2.20    0.82
   7  -2 -13    1.29    0.76
   7  -2 -13    0.77    0.45
   7  -2 -12    0.06    0.48
   7  -2 -12   -0.56    0.43
   7  -2 -11    1.73    0.69
   7  -2 -11    2.35    0.81
   7  -2 -10    1.10    0.56
   7  -2  -9    1.58    0.52
   7  -2  -8    0.87    0.56
   7  -2  -7    0.68    0.54
   7  -2  -6   15.67    1.57
   7  -2  -5   16.42    1.59
  -7   2   4    2.69    0.70
   7  -2  -4    0.81    0.42
  -7   2   4    0.63    0.45
  -7   2   3    2.65    0.66
   7  -2  -3    2.95    0.77
  -7   2   3    2.69    0.69
  -7   2   2   15.16    1.49
   7  -2  -2   12.15    1.30
   7  -2  -1  133.65    4.70
  -7   2   1  160.53    5.22
   7  -2   0   35.63    2.15
  -7   2   0   40.18    2.38
   7  -2   1   25.36    1.79
  -7   2  -1   24.02    1.83
   7  -2   2  197.77    5.74
  -7   2  -2  215.01    6.10
  -7   2  -3   19.59    1.58
   7  -2   3   16.51    1.38
  -7   2  -4  135.40    4.45
   7  -2   4  128.23    4.18
   7  -2   5    5.37    0.74
  -7   2  -5    4.72    0.75
   7  -2   6  220.59    7.03
   7  -2   6  237.76    5.93
   7  -2   7    0.72    0.43
   7  -2   7    0.39    0.30
   7  -2   8  106.24    4.71
   7  -2   8  111.85    3.34
   7  -2   8  111.19    3.42
   7  -2   9   21.70    2.47
   7  -2   9   21.69    1.35
   7  -2   9   20.05    1.61
   7  -2  10  141.48    5.82
   7  -2  11    8.46    1.39
   7  -2  12    4.32    1.09
   7  -2  13   21.98    2.37
   7  -1 -15   39.26    2.90
   7  -1 -14   -0.13    0.63
   7  -1 -14    0.61    0.55
   7  -1 -13   16.24    1.98
   7  -1 -13   13.62    1.65
   7  -1 -12   12.55    1.79
   7  -1 -12    8.81    1.35
   7  -1 -11   17.07    1.98
   7  -1 -11   12.60    1.52
   7  -1 -10    5.21    1.11
   7  -1 -10    4.20    0.82
   7  -1  -9    2.31    0.76
   7  -1  -8   22.94    1.98
   7  -1  -7   -0.60    0.58
   7  -1  -6    2.11    0.61
  -7   1   5    0.31    0.34
   7  -1  -5   -0.34    0.52
  -7   1   4    7.76    1.04
   7  -1  -4    7.05    1.04
  -7   1   4    8.56    1.13
  -7   1   3    5.31    0.87
   7  -1  -3    7.04    1.03
  -7   1   3    6.06    0.97
  -7   1   2   16.80    1.52
  -7   1   2   18.10    1.60
   7  -1  -2   17.73    1.54
   7  -1  -1   -0.45    0.52
  -7   1   1    0.10    0.35
  -7   1   0   52.68    2.71
   7  -1   0   51.14    2.59
   7  -1   1    4.83    0.75
  -7   1  -1    4.95    0.81
  -7   1  -2   72.28    3.11
   7  -1   2   64.11    2.85
   7  -1   3    0.90    0.44
  -7   1  -3    0.42    0.33
  -7   1  -4   37.61    2.12
   7  -1   4   33.92    1.93
  -7   1  -5   39.02    2.15
   7  -1   5   36.83    1.98
   7  -1   6   63.88    3.33
   7  -1   6   70.19    2.73
  -7   1  -6   71.72    2.90
   7  -1   7   10.44    1.33
   7  -1   7   10.61    0.97
  -7   1  -7   10.75    1.03
   7  -1   8   15.23    1.87
   7  -1   8   10.32    1.07
   7  -1   8   13.52    1.37
   7  -1   9   67.77    3.66
   7  -1   9   69.34    2.29
   7  -1   9   66.88    2.62
   7  -1  10   22.97    2.11
   7  -1  10   25.73    1.49
   7  -1  11   40.70    2.96
   7  -1  12    0.64    0.48
   7  -1  13   38.56    3.11
   7  -1  14    2.61    0.85
   7   0 -15    4.48    1.05
   7   0 -14   40.99    3.27
   7   0 -14   37.71    2.80
   7   0 -13   73.05    4.31
   7   0 -13   63.65    3.60
   7   0 -12    4.43    1.06
   7   0 -12    4.31    0.86
   7   0 -11    3.65    0.97
   7   0 -11    3.69    0.86
   7   0 -10   84.71    4.21
   7   0 -10   77.98    3.84
   7   0  -9   49.83    3.08
   7   0  -9   48.47    2.96
   7   0  -8    1.81    0.68
   7   0  -7   23.74    1.97
   7   0  -6   99.52    4.15
  -7   0   5   11.00    1.25
   7   0  -5    9.68    1.22
  -7   0   4    0.41    0.30
   7   0  -4    0.42    0.50
  -7   0   4   -0.03    0.32
  -7   0   3   49.46    2.58
  -7   0   3   52.85    2.83
   7   0  -3   48.47    2.66
  -7   0   2   96.58    3.77
  -7   0   2  109.76    4.17
   7   0  -2  102.23    3.97
  -7   0   1   26.84    1.90
   7   0  -1   23.45    1.76
  -7   0   0   39.76    2.34
   7   0   0   36.75    2.18
  -7   0  -1   31.78    2.04
   7   0   1   33.14    2.02
  -7   0  -2   38.19    2.21
   7   0   2   32.77    1.97
  -7   0  -3   44.62    2.37
   7   0   3   38.22    2.13
   7   0   4   17.25    1.35
  -7   0  -4   17.47    1.44
   7   0   5    1.45    0.44
  -7   0  -5    0.84    0.36
   7   0   6    7.34    1.04
   7   0   6    7.58    0.87
  -7   0  -6    7.84    0.91
   7   0   7   56.01    3.11
   7   0   7   57.27    2.39
  -7   0  -7   60.91    2.59
   7   0   7   54.97    2.57
   7   0   8    1.45    0.58
   7   0   8    2.25    0.73
   7   0   8    1.61    0.53
  -7   0  -8    1.39    0.44
   7   0   9   18.18    1.83
   7   0   9   19.50    1.46
   7   0  10    5.14    0.73
   7   0  10    7.73    1.23
   7   0  11   12.88    1.58
   7   0  12    0.44    0.56
   7   0  13   12.78    1.73
   7   0  14    7.19    1.40
   7   1 -15   12.58    1.65
   7   1 -14   11.14    1.72
   7   1 -14    7.72    1.30
   7   1 -13   36.31    3.02
   7   1 -13   36.01    2.65
   7   1 -12   70.22    4.03
   7   1 -12   59.14    3.44
   7   1 -11    5.90    1.16
   7   1 -11    3.52    0.86
   7   1 -10   19.67    1.99
   7   1 -10   16.57    1.72
   7   1  -9   41.09    2.72
   7   1  -9   38.81    2.60
   7   1  -8  176.02    5.98
   7   1  -7    0.19    0.38
   7   1  -6    3.23    0.82
  -7  -1   5   95.24    3.78
   7   1  -5   91.92    3.93
  -7  -1   4   50.77    2.62
   7   1  -4   55.92    2.91
  -7  -1   3    5.48    0.80
   7   1  -3    5.48    0.89
  -7  -1   3    5.60    0.92
  -7  -1   2   49.26    2.50
  -7  -1   2   56.49    2.87
   7   1  -2   53.08    2.77
  -7  -1   1  154.32    5.06
   7   1  -1  138.92    4.80
  -7  -1   0   20.50    1.65
   7   1   0   19.63    1.59
  -7  -1  -1   14.68    1.38
   7   1   1   12.75    1.29
  -7  -1  -2   67.81    3.05
   7   1   2   65.76    2.94
  -7  -1  -3   33.80    2.06
   7   1   3   32.22    1.97
  -7  -1  -4   21.15    1.59
   7   1   4   22.42    1.60
  -7  -1  -5   37.03    2.09
   7   1   5   35.54    2.00
   7   1   6   16.83    1.57
  -7  -1  -6   20.09    1.51
   7   1   6   19.81    1.43
   7   1   6   18.16    1.50
   7   1   7   13.32    1.45
  -7  -1  -7   15.56    1.31
   7   1   7   15.78    1.26
   7   1   7   15.71    1.38
   7   1   8   39.82    2.62
  -7  -1  -8   42.75    2.12
   7   1   8   40.50    2.28
   7   1   9    5.82    0.87
   7   1   9    6.71    0.97
   7   1   9    5.37    1.03
   7   1  10    3.74    0.71
   7   1  10    3.30    0.73
   7   1  11    7.36    1.23
   7   1  12   23.34    2.27
   7   1  13    0.57    0.70
   7   1  14    4.65    1.18
   7   2 -15    6.83    1.25
   7   2 -14    4.42    1.15
   7   2 -14    5.03    1.09
   7   2 -13    1.84    0.82
   7   2 -13    2.07    0.76
   7   2 -12    0.24    0.45
   7   2 -12    0.43    0.56
   7   2 -11   14.63    1.75
   7   2 -11   15.72    1.75
   7   2 -10   11.78    1.52
   7   2 -10   12.07    1.49
   7   2  -9   40.36    2.67
   7   2  -9   38.86    2.65
   7   2  -8   12.56    1.48
   7   2  -7   79.46    3.74
   7   2  -6    3.50    0.77
   7   2  -5   35.53    2.40
  -7  -2   4   12.44    1.23
   7   2  -4   12.64    1.36
  -7  -2   3   95.50    3.56
   7   2  -3   93.82    3.93
  -7  -2   2    0.59    0.42
   7   2  -2   -0.22    0.42
  -7  -2   1    1.38    0.44
   7   2  -1    1.81    0.59
  -7  -2   1    2.40    0.63
  -7  -2   0   75.14    3.35
   7   2   0   71.46    3.27
  -7  -2  -1   63.28    3.02
   7   2   1   62.37    2.97
   7   2   2    5.47    0.87
  -7  -2  -2    5.36    0.82
   7   2   3    3.53    0.73
  -7  -2  -3    2.93    0.68
  -7  -2  -4   19.23    1.56
   7   2   4   19.85    1.53
  -7  -2  -5   21.47    1.61
   7   2   5   20.97    1.57
   7   2   5   19.53    1.64
   7   2   6    2.74    0.68
   7   2   6    1.98    0.55
   7   2   6    2.03    0.53
  -7  -2  -6    1.96    0.49
   7   2   7    6.12    0.99
   7   2   7    5.17    0.91
  -7  -2  -7    4.52    0.73
   7   2   8   15.48    1.54
  -7  -2  -8   14.26    1.25
   7   2   8   13.91    1.45
   7   2   9    1.43    0.62
   7   2   9    1.10    0.59
   7   2  10    1.54    0.47
   7   2  10    1.97    0.75
   7   2  11    4.15    0.79
   7   2  12    2.56    0.79
   7   2  13    9.04    1.42
   7   2  14   15.79    1.94
   7   3 -15    7.26    1.29
   7   3 -14    0.44    0.55
   7   3 -14    0.34    0.65
   7   3 -13    0.03    0.54
   7   3 -13    0.21    0.50
   7   3 -12    0.28    0.52
   7   3 -12   -0.08    0.55
   7   3 -11   47.41    3.17
   7   3 -11   47.84    3.11
   7   3 -10    1.94    0.68
   7   3 -10    2.03    0.81
   7   3  -9   25.97    2.18
   7   3  -9   25.82    2.25
   7   3  -8   35.15    2.59
   7   3  -7   60.79    3.32
   7   3  -6    8.41    1.24
   7   3  -5   10.39    1.31
   7   3  -4   43.66    2.67
   7   3  -4   42.79    2.45
  -7  -3   3   39.26    2.09
   7   3  -3   35.72    2.38
  -7  -3   2   45.83    2.23
   7   3  -2   47.13    2.73
  -7  -3   1   27.25    1.65
   7   3  -1   26.00    1.97
  -7  -3   0   81.47    3.07
   7   3   0   83.73    3.64
   7   3   1    2.34    0.65
   7   3   2   60.78    2.99
  -7  -3  -2   63.49    3.09
   7   3   3    1.10    0.41
  -7  -3  -3    1.89    0.59
   7   3   4    9.12    1.16
   7   3   4    8.03    1.05
  -7  -3  -4   11.36    1.23
   7   3   5    1.91    0.60
   7   3   5    1.57    0.48
  -7  -3  -5    1.90    0.55
   7   3   6   64.56    3.06
  -7  -3  -6   63.90    2.98
   7   3   6   61.66    3.16
   7   3   7    5.14    0.89
   7   3   7    4.70    0.83
  -7  -3  -7    6.58    0.92
   7   3   8    4.65    0.90
   7   3   8    3.91    0.90
   7   3   9   18.61    1.77
   7   3   9   21.19    1.92
   7   3  10    0.42    0.40
   7   3  10   -0.06    0.38
   7   3  11    1.25    0.49
   7   3  11    0.16    0.52
   7   3  12    4.68    1.03
   7   4 -15    7.05    1.31
   7   4 -14    7.86    1.53
   7   4 -14    7.18    1.39
   7   4 -13    2.28    0.86
   7   4 -13    1.28    0.72
   7   4 -12    3.43    0.88
   7   4 -12    3.11    0.86
   7   4 -11   10.54    1.42
   7   4 -11    8.39    1.35
   7   4 -10   12.56    1.52
   7   4 -10   11.94    1.54
   7   4  -9   12.77    1.53
   7   4  -9   14.53    1.79
   7   4  -8   -0.11    0.46
   7   4  -7    0.90    0.54
   7   4  -6  127.46    5.08
   7   4  -5    1.37    0.67
   7   4  -4    7.94    1.17
   7   4  -4    8.43    1.08
   7   4  -3    1.47    0.58
   7   4  -3    0.58    0.38
  -7  -4   2  107.08    3.52
   7   4  -2  109.55    4.45
  -7  -4   1    6.60    0.77
   7   4  -1    5.63    1.03
  -7  -4   0   42.41    2.00
   7   4   0   47.72    2.75
  -7  -4  -1   36.64    1.85
   7   4   1   40.62    2.52
   7   4   2   64.39    3.21
   7   4   3    2.97    0.71
   7   4   3    3.28    0.77
   7   4   4    0.79    0.62
   7   4   4    1.27    0.54
   7   4   5   51.99    2.60
   7   4   5   48.73    2.90
   7   4   6   15.15    1.40
   7   4   6   11.62    1.39
   7   4   7    7.35    1.01
   7   4   7    5.92    1.05
   7   4   8    4.84    0.88
   7   4   8    4.81    0.97
   7   4   9   32.71    2.17
   7   4   9   29.34    2.35
   7   4  10    2.81    0.83
   7   4  10    2.21    0.50
   7   4  11    1.89    0.68
   7   5 -15    0.10    0.66
   7   5 -14   25.28    2.57
   7   5 -14   21.84    2.26
   7   5 -13   13.16    1.77
   7   5 -13    9.62    1.55
   7   5 -12    2.23    0.81
   7   5 -12    1.14    0.62
   7   5 -11   16.35    1.81
   7   5 -11   15.06    1.86
   7   5 -10   21.82    2.02
   7   5 -10   20.34    2.10
   7   5  -9    8.11    1.35
   7   5  -9    8.54    1.38
   7   5  -8   10.72    1.49
   7   5  -7   15.09    1.72
   7   5  -6   16.83    1.81
   7   5  -5   37.24    2.67
   7   5  -4    7.23    1.17
   7   5  -4    6.67    0.94
   7   5  -3    3.54    0.78
   7   5  -3    3.84    0.74
   7   5  -2   26.88    2.17
   7   5  -2   21.93    1.64
   7   5  -1   23.46    1.99
   7   5  -1   22.30    1.59
  -7  -5   0   36.53    1.70
   7   5   0   39.27    2.61
  -7  -5  -1    7.39    0.73
   7   5   1    7.56    1.12
   7   5   1    8.01    1.21
  -7  -5  -2   10.13    0.88
   7   5   2   13.19    1.53
   7   5   2   10.41    1.35
   7   5   3   49.08    3.00
   7   5   4    6.04    1.07
   7   5   5    2.17    0.51
   7   5   5    2.74    0.72
   7   5   6   18.66    1.48
   7   5   6   19.19    1.92
   7   5   7   41.57    2.27
   7   5   7   37.51    2.74
   7   5   8   -0.42    0.58
   7   5   9    0.97    0.51
   7   5  10    3.47    0.87
   7   5  11   28.99    2.48
   7   6 -14    1.92    0.79
   7   6 -14    0.00    0.60
   7   6 -13    5.37    1.16
   7   6 -13    7.11    1.41
   7   6 -12   16.40    1.86
   7   6 -12   14.30    1.82
   7   6 -11    0.13    0.51
   7   6 -11    0.10    0.50
   7   6 -10    2.12    0.58
   7   6 -10    0.67    0.56
   7   6  -9    5.62    1.14
   7   6  -8    4.87    1.11
   7   6  -7    0.19    0.58
   7   6  -6    4.25    1.00
   7   6  -5    7.45    1.30
   7   6  -4    2.59    1.20
   7   6  -4    1.97    0.56
   7   6  -3    1.10    0.62
   7   6  -3    0.08    0.26
   7   6  -2    0.28    0.55
   7   6  -2    0.07    0.27
   7   6  -1    2.87    0.78
   7   6  -1    2.42    0.53
   7   6  -1    2.62    0.81
   7   6   0   32.68    1.87
   7   6   0   39.08    2.72
   7   6   0   39.30    2.76
   7   6   1   14.82    1.73
   7   6   2   -0.44    0.47
   7   6   3   -0.47    0.58
   7   6   4   27.79    1.66
   7   6   4   25.66    2.28
   7   6   5   22.52    2.15
   7   6   6    0.86    0.49
   7   6   7    1.68    0.74
   7   6   8   32.35    2.67
   7   6   9    0.54    0.53
   7   6  10   -0.61    0.76
   7   6  11   -0.86    0.53
   7   7 -12    1.14    0.55
   7   7 -11   16.00    1.77
   7   7 -11   14.63    1.92
   7   7 -10    1.19    0.66
   7   7  -9   24.05    2.44
   7   7  -8    0.13    0.58
   7   7  -7    9.01    1.50
   7   7  -6    5.72    1.20
   7   7  -5    2.81    0.87
   7   7  -4    1.16    0.72
   7   7  -3   -0.09    0.53
   7   7  -3    0.35    0.63
   7   7  -3   -0.29    0.29
   7   7  -2    5.70    1.11
   7   7  -1    0.44    0.55
   7   7   0    1.24    0.62
   7   7   1    0.05    0.44
   7   7   2    0.70    0.50
   7   7   3    0.50    0.54
   7   7   4    2.31    0.83
   7   7   5    1.55    0.88
   7   7   6   17.03    1.98
   7   7   7   -0.05    0.61
   7   7   8    1.99    0.73
   7   7   9    6.81    1.41
   7   7  10    5.35    1.30
   7   8 -12   23.31    2.31
   7   8  -9    1.54    0.87
   7   8  -8   22.35    2.27
   7   8  -7    4.75    1.07
   7   8  -6    7.33    1.33
   7   8  -5   -0.64    0.70
   7   8  -4   19.03    2.09
   7   8  -3   -0.19    0.52
   7   8  -2    9.72    1.48
   7   8  -1    3.90    1.16
   7   8   0    2.77    0.93
   7   8   1    6.78    1.33
   7   8   2    0.16    0.54
   7   8   3    1.13    0.63
   7   8   4   -0.15    0.57
   7   8   5    0.85    0.60
   7   8   6   -1.29    0.71
   7   9 -11    6.24    1.27
   7   9 -10    6.61    1.29
   7   9  -9    6.64    1.34
   7   9  -8    0.87    0.85
   7   9  -7   12.14    1.71
   7   9  -6   25.36    2.51
   7   9  -5    0.02    0.53
   7   9  -4    1.22    0.76
   7   9  -3   22.73    2.35
   7   9  -2   17.57    2.09
   7   9  -1    3.00    1.01
   7   9   0    5.13    1.16
   7   9   1    3.74    1.08
   7   9   2    5.63    1.19
   8 -13   0    8.18    1.54
   8 -13   1   16.74    2.09
   8 -13   2   19.91    2.20
   8 -13   2   24.09    2.38
   8 -13   3    0.79    0.78
   8 -13   4    0.46    0.56
   8 -12  -2   20.07    2.28
   8 -12  -1    6.04    1.24
   8 -12   0   16.35    1.97
   8 -12   1   19.99    2.10
   8 -12   1   20.55    2.19
   8 -12   2    2.87    0.92
   8 -12   2    3.49    1.02
   8 -12   2    3.29    1.28
   8 -12   3    3.53    0.99
   8 -12   3    2.14    0.84
   8 -12   3    3.66    1.23
   8 -12   4    6.95    1.32
   8 -12   4    6.33    1.34
   8 -12   5    9.65    1.59
   8 -12   5    8.66    1.57
   8 -12   6    3.49    1.23
   8 -12   7   19.61    2.36
   8 -11  -4    9.80    1.65
   8 -11  -3    1.35    0.72
   8 -11  -3   -0.17    0.65
   8 -11  -2   -0.12    0.53
   8 -11  -2    0.18    0.53
   8 -11  -1   30.14    2.66
   8 -11  -1   31.84    3.01
   8 -11   0    2.49    0.87
   8 -11   0    1.98    1.02
   8 -11   1    8.34    1.38
   8 -11   1    9.33    1.66
   8 -11   2    1.38    0.66
   8 -11   2    1.41    0.60
   8 -11   2    2.49    0.89
   8 -11   3   54.22    3.58
   8 -11   3   60.22    3.43
   8 -11   3   58.12    4.00
   8 -11   4    1.30    0.86
   8 -11   4    0.64    0.42
   8 -11   4    0.30    0.63
   8 -11   5    7.60    1.39
   8 -11   5    7.28    1.40
   8 -11   6    8.79    1.55
   8 -11   6    7.48    1.52
   8 -11   7   14.96    1.91
   8 -10  -6    3.09    1.04
   8 -10  -6    1.58    0.87
   8 -10  -5    4.70    1.17
   8 -10  -5    3.42    1.16
   8 -10  -4    6.91    1.41
   8 -10  -4   10.20    1.77
   8 -10  -3   21.09    2.21
   8 -10  -3   21.09    2.42
   8 -10  -2    5.59    1.18
   8 -10  -2    6.17    1.32
   8 -10  -1    0.29    0.62
   8 -10  -1    0.03    0.60
   8 -10   0   11.42    1.56
   8 -10   0   13.21    1.87
   8 -10   1   33.76    2.59
   8 -10   1   35.04    3.01
   8 -10   2   -0.35    0.48
   8 -10   2    0.37    0.58
   8 -10   3   -0.38    0.50
   8 -10   3   -1.01    0.54
   8 -10   3    1.12    0.75
   8 -10   4   37.92    2.50
   8 -10   4   36.71    2.94
   8 -10   4   35.41    2.97
   8 -10   5    9.88    1.54
   8 -10   5   10.03    1.63
   8 -10   6    3.00    0.77
   8 -10   6    4.49    1.13
   8 -10   7    2.31    0.79
   8 -10   7    3.01    0.98
   8  -9  -9    9.46    1.73
   8  -9  -8   40.05    3.41
   8  -9  -7   45.93    3.60
   8  -9  -6    1.46    0.71
   8  -9  -5    5.80    1.18
   8  -9  -4   61.88    4.11
   8  -9  -3   31.13    2.87
   8  -9  -2   16.09    2.07
   8  -9  -1   29.86    2.73
   8  -9   0   32.55    2.81
   8  -9   1   20.26    2.18
   8  -9   2   47.72    3.35
   8  -9   3   19.84    2.12
   8  -9   4    2.19    0.80
   8  -9   4    1.73    0.55
   8  -9   4    2.27    0.88
   8  -9   5   22.13    1.76
   8  -9   5   21.97    2.27
   8  -9   5   22.21    2.21
   8  -9   6   55.14    3.68
   8  -9   6   50.23    3.30
   8  -9   7    0.81    0.79
   8  -9   7    0.09    0.46
   8  -9   8    1.93    0.88
   8  -9   8    1.56    0.63
   8  -8 -11   12.91    1.93
   8  -8 -10   33.53    3.09
   8  -8  -9    3.84    1.07
   8  -8  -8   28.13    2.76
   8  -8  -7    8.07    1.75
   8  -8  -6   73.77    4.42
   8  -8  -5   14.87    1.94
   8  -8  -4   33.57    2.87
   8  -8  -3   20.83    2.21
   8  -8  -2   46.33    3.28
   8  -8  -1    2.83    0.84
   8  -8   0    0.96    0.64
   8  -8   1   45.45    3.17
   8  -8   2   24.47    2.27
   8  -8   3    0.79    0.52
   8  -8   4    7.79    1.28
   8  -8   5   11.28    1.60
   8  -8   5   12.80    1.61
   8  -8   6    4.61    1.08
   8  -8   6    6.01    0.87
   8  -8   6    5.33    1.01
   8  -8   7   14.52    1.93
   8  -8   7   14.12    1.62
   8  -8   8    5.64    1.27
   8  -8   8    5.77    1.01
   8  -8   9    0.40    0.60
   8  -7 -12    3.60    1.03
   8  -7 -11    4.19    1.07
   8  -7 -10   44.27    3.45
   8  -7  -9    3.78    1.15
   8  -7  -8    8.33    1.71
   8  -7  -7   39.16    3.13
   8  -7  -6   44.20    3.27
   8  -7  -5   18.34    2.05
   8  -7  -4    2.07    0.77
   8  -7  -3   39.10    2.92
   8  -7  -2  100.97    4.77
   8  -7  -1   10.89    1.46
   8  -7   0    1.92    0.74
   8  -7   1   37.55    2.70
   8  -7   2   40.47    2.81
   8  -7   3    3.04    0.79
   8  -7   3    3.62    0.77
   8  -7   4    8.17    1.06
   8  -7   4    7.49    1.24
   8  -7   5   31.98    2.65
   8  -7   5   33.08    2.43
   8  -7   5   32.80    2.07
   8  -7   6    4.23    1.13
   8  -7   6    3.64    0.94
   8  -7   7    0.12    0.51
   8  -7   7   -0.46    0.50
   8  -7   8    7.28    1.35
   8  -7   8    5.76    0.99
   8  -7   9    2.37    0.93
   8  -7  10    1.54    0.83
   8  -6 -14    2.12    0.94
   8  -6 -13   20.08    2.30
   8  -6 -12   37.66    3.12
   8  -6 -11    8.56    1.53
   8  -6 -10    1.24    0.79
   8  -6  -9   56.56    3.71
   8  -6  -8   79.29    4.39
   8  -6  -7    0.51    0.71
   8  -6  -6   22.54    2.22
   8  -6  -5   62.03    3.74
   8  -6  -4   11.18    1.55
   8  -6  -3    5.76    1.21
   8  -6  -2   14.61    1.73
   8  -6  -1  243.75    7.74
   8  -6   0    0.05    0.50
   8  -6   1   54.39    3.25
   8  -6   2  177.66    6.21
   8  -6   2  187.66    5.96
   8  -6   3   37.87    2.59
   8  -6   3   41.73    2.46
   8  -6   4    1.42    0.50
   8  -6   4    0.61    0.51
   8  -6   5    0.40    0.42
   8  -6   5    0.49    0.37
   8  -6   6   52.90    3.44
   8  -6   6   58.03    3.00
   8  -6   7   16.37    1.92
   8  -6   7   17.90    1.60
   8  -6   8    6.21    1.25
   8  -6   8    5.20    0.81
   8  -6   9    6.76    1.35
   8  -6  10   28.34    2.72
   8  -5 -15    0.57    0.72
   8  -5 -14    0.75    0.52
   8  -5 -13    1.70    1.00
   8  -5 -12    0.23    0.56
   8  -5 -11    0.93    0.73
   8  -5 -10    2.84    0.85
   8  -5  -9    7.56    1.28
   8  -5  -8    2.12    0.82
   8  -5  -7   57.98    3.53
   8  -5  -6    1.57    0.74
   8  -5  -5   29.69    2.44
   8  -5  -4   55.98    3.36
   8  -5  -3   88.56    4.24
   8  -5  -2   10.48    1.45
   8  -5  -1    0.28    0.43
   8  -5   0  217.97    6.94
   8  -5   1   12.10    1.48
   8  -5   1   14.19    1.50
   8  -5   2   95.61    4.14
   8  -5   2  103.98    4.18
   8  -5   3  157.81    5.55
   8  -5   3  184.15    5.70
   8  -5   4   26.46    2.00
   8  -5   4   34.42    2.16
   8  -5   5   15.07    1.49
   8  -5   5   16.88    1.44
   8  -5   6    3.75    0.90
   8  -5   6    1.43    0.46
   8  -5   6    3.64    0.60
   8  -5   7    6.24    1.22
   8  -5   7    4.41    0.70
   8  -5   8   32.22    2.72
   8  -5   8   35.07    2.06
   8  -5   9    2.09    0.86
   8  -5  10    1.43    0.98
   8  -5  11   16.28    2.10
   8  -4 -15    5.53    1.20
   8  -4 -14    0.81    0.66
   8  -4 -13    7.25    1.31
   8  -4 -12    0.13    0.67
   8  -4 -11   -0.85    0.78
   8  -4 -10    3.98    0.95
   8  -4  -9    3.22    0.84
   8  -4  -8    4.56    1.07
   8  -4  -7    1.96    0.70
   8  -4  -6   -0.04    0.53
   8  -4  -5    6.31    1.15
   8  -4  -4   20.99    1.94
   8  -4  -3    0.39    0.50
   8  -4  -2   28.32    2.19
   8  -4  -1    1.09    0.39
   8  -4   0   43.39    2.65
   8  -4   1   14.47    1.49
   8  -4   2   31.11    2.18
   8  -4   3    6.57    1.03
   8  -4   4   57.22    2.87
   8  -4   5  101.38    3.91
   8  -4   6   77.83    4.11
   8  -4   6   82.59    3.41
   8  -4   6   91.35    3.41
   8  -4   7   16.31    1.87
   8  -4   7   18.06    1.45
   8  -4   7   19.38    1.43
   8  -4   8    9.88    1.54
   8  -4   8    8.52    0.95
   8  -4   9   87.05    4.68
   8  -4  10   22.79    2.35
   8  -4  11    4.65    1.10
   8  -3 -15   18.87    2.21
   8  -3 -14   18.07    2.04
   8  -3 -13    2.11    0.75
   8  -3 -12    6.46    1.27
   8  -3 -11    2.66    0.89
   8  -3 -10   20.16    2.05
   8  -3  -9    4.92    0.99
   8  -3  -8    5.24    1.04
   8  -3  -7    6.38    1.17
   8  -3  -6   29.42    2.34
   8  -3  -5    6.98    1.12
   8  -3  -4   13.14    1.48
   8  -3  -3   27.85    2.11
   8  -3  -2   10.81    1.29
   8  -3  -1   39.71    2.49
   8  -3   0   63.27    3.16
   8  -3   1    4.16    0.83
  -8   3  -1    3.06    0.80
  -8   3  -2   14.65    1.51
   8  -3   2   13.41    1.37
   8  -3   3   58.07    2.88
   8  -3   4   49.65    2.62
   8  -3   5   26.54    1.84
   8  -3   6   19.85    1.52
   8  -3   7   81.92    4.21
   8  -3   7   87.00    3.29
   8  -3   8   16.67    1.94
   8  -3   8   15.34    1.26
   8  -3   9    2.01    0.77
   8  -3  10   18.22    2.07
   8  -3  11   21.52    2.27
   8  -3  12    1.27    0.83
   8  -2 -15    3.01    1.04
   8  -2 -14   42.37    3.16
   8  -2 -13   -1.14    0.89
   8  -2 -12   11.94    1.67
   8  -2 -11    1.63    0.59
   8  -2 -10   83.31    4.25
   8  -2  -9    4.72    0.96
   8  -2  -8   86.73    4.27
   8  -2  -7  166.86    6.09
   8  -2  -6    6.10    1.06
   8  -2  -5   12.48    1.47
   8  -2  -4    1.81    0.60
   8  -2  -3   15.33    1.57
   8  -2  -2    1.67    0.49
   8  -2  -1   13.71    1.46
   8  -2   0    1.23    0.57
   8  -2   1    0.46    0.41
  -8   2  -1    0.56    0.40
   8  -2   2    6.48    0.96
  -8   2  -2    6.26    1.00
   8  -2   3    4.18    0.77
  -8   2  -3    5.10    0.83
   8  -2   4    3.97    0.68
  -8   2  -4    3.45    0.75
   8  -2   5    3.01    0.64
  -8   2  -5    1.73    0.42
   8  -2   6    0.74    0.32
   8  -2   7    2.01    0.71
   8  -2   7    1.69    0.39
   8  -2   8   30.05    2.51
   8  -2   8   32.16    1.78
   8  -2   8   32.10    1.87
   8  -2   9    0.36    0.27
   8  -2   9    1.10    0.44
   8  -2  10    6.32    1.21
   8  -2  11   -0.69    0.50
   8  -2  12   11.07    1.63
   8  -1 -15    2.74    0.79
   8  -1 -14   -0.39    0.76
   8  -1 -13   70.90    4.42
   8  -1 -13   61.14    3.77
   8  -1 -12   15.03    1.81
   8  -1 -11   12.97    1.67
   8  -1 -10    0.65    0.59
   8  -1  -9  226.66    7.44
   8  -1  -8   11.74    1.60
   8  -1  -7   11.57    1.45
   8  -1  -6   97.84    4.35
   8  -1  -5  103.46    4.43
   8  -1  -4    0.17    0.43
   8  -1  -3   10.81    1.31
   8  -1  -2   72.19    3.46
   8  -1  -1  206.01    6.35
   8  -1   0   10.19    1.24
  -8   1  -1   35.27    2.34
   8  -1   1   29.05    2.07
  -8   1  -2  139.05    4.92
   8  -1   2  134.77    4.71
  -8   1  -3   50.31    2.74
   8  -1   3   43.89    2.46
  -8   1  -4   39.07    2.39
   8  -1   4   35.37    2.13
  -8   1  -5   98.55    3.89
   8  -1   5   92.08    3.58
   8  -1   6   60.73    2.75
  -8   1  -6   65.12    3.00
   8  -1   7   39.63    2.78
   8  -1   7   46.97    2.29
  -8   1  -7   46.91    2.43
   8  -1   8   41.97    2.95
   8  -1   8   46.92    2.18
   8  -1   8   46.79    2.37
   8  -1   9    9.10    1.02
   8  -1   9   10.33    1.51
   8  -1  10    2.93    1.14
   8  -1  11   53.26    3.51
   8  -1  12   29.32    2.67
   8  -1  13   -0.32    0.58
   8   0 -15   19.86    2.14
   8   0 -14   -0.06    0.53
   8   0 -13    1.76    0.86
   8   0 -13    0.24    0.58
   8   0 -12   45.12    3.33
   8   0 -12   42.20    3.05
   8   0 -11   58.15    3.51
   8   0 -10    0.36    0.50
   8   0  -9    9.20    1.56
   8   0  -8  211.84    7.03
   8   0  -7   39.04    2.68
   8   0  -6    1.72    0.61
   8   0  -5    0.28    0.40
   8   0  -4  162.18    5.67
  -8   0   3   87.00    3.77
   8   0  -3   89.69    3.96
  -8   0   2   27.15    1.99
   8   0  -2   27.30    2.06
   8   0  -1   21.93    1.80
   8   0   0  288.12    7.85
  -8   0  -1   20.25    1.77
   8   0   1   18.01    1.58
   8   0   2    1.72    0.53
  -8   0  -2    1.98    0.58
  -8   0  -3   41.48    2.47
   8   0   3   36.25    2.21
  -8   0  -4  124.08    4.50
   8   0   4  114.67    4.19
  -8   0  -5   20.75    1.67
   8   0   5   23.53    1.71
  -8   0  -6   19.47    1.60
   8   0   6   17.92    1.44
   8   0   7   63.90    3.53
   8   0   7   69.51    2.91
  -8   0  -7   71.81    3.15
   8   0   7   69.14    3.11
   8   0   8   29.27    2.42
   8   0   8   30.59    1.78
   8   0   8   30.31    2.00
   8   0   9    4.84    0.81
   8   0   9    5.68    1.15
   8   0  10   18.32    2.05
   8   0  11   37.76    2.88
   8   0  12   14.58    1.81
   8   0  13   14.66    1.93
   8   1 -15   -0.65    0.64
   8   1 -14    0.28    0.56
   8   1 -13    3.50    1.09
   8   1 -13    1.94    0.68
   8   1 -12    2.49    0.92
   8   1 -12    2.02    0.68
   8   1 -11    3.02    0.95
   8   1 -10   16.62    1.82
   8   1  -9    4.77    1.15
   8   1  -8   35.74    2.62
   8   1  -7    1.53    0.71
   8   1  -6   93.80    4.27
   8   1  -5    6.85    1.14
  -8  -1   4   44.76    2.59
   8   1  -4   43.57    2.75
  -8  -1   3   32.88    2.16
   8   1  -3   32.86    2.34
  -8  -1   2  170.37    5.49
   8   1  -2  176.80    5.86
  -8  -1   1   74.96    3.34
   8   1  -1   76.27    3.55
   8   1   0    0.67    0.49
   8   1   1  140.32    4.94
   8   1   2   24.90    1.89
  -8  -1  -3   40.25    2.45
   8   1   3   40.25    2.39
   8   1   4    3.86    0.77
  -8  -1  -4    4.22    0.79
  -8  -1  -5   86.57    3.66
   8   1   5   85.27    3.53
   8   1   6    4.00    0.77
   8   1   6    4.21    0.88
   8   1   6    5.56    0.86
  -8  -1  -6    4.42    0.79
   8   1   7    7.89    1.06
   8   1   7    7.30    1.17
   8   1   7    9.62    1.09
  -8  -1  -7    9.69    1.13
   8   1   8    3.73    0.69
   8   1   8    3.41    0.66
   8   1   8    2.86    0.82
   8   1   9    8.73    1.21
   8   1   9    9.61    1.40
   8   1  10    5.11    0.91
   8   1  10    3.00    0.89
   8   1  11    0.07    0.48
   8   1  12    4.21    1.10
   8   1  13   -0.71    0.60
   8   2 -15    1.42    0.64
   8   2 -14    1.34    0.83
   8   2 -14    1.03    0.76
   8   2 -13    2.89    0.87
   8   2 -13    3.32    0.96
   8   2 -12    5.24    1.23
   8   2 -12    6.02    1.21
   8   2 -11    4.61    1.13
   8   2 -10    4.86    1.10
   8   2  -9    5.91    1.23
   8   2  -8    7.05    1.31
   8   2  -7   27.21    2.28
   8   2  -6   36.28    2.60
   8   2  -5   -0.10    0.39
  -8  -2   4    0.70    0.38
   8   2  -4   -0.09    0.50
  -8  -2   3   73.58    3.29
   8   2  -3   79.44    3.77
  -8  -2   2   20.81    1.65
   8   2  -2   21.62    1.87
  -8  -2   1    5.24    0.83
   8   2  -1    7.30    1.11
   8   2   0    2.57    0.71
   8   2   1   85.99    3.78
   8   2   2    0.80    0.41
   8   2   3   21.54    1.79
   8   2   4   61.58    3.04
   8   2   5    6.06    0.96
   8   2   5    7.14    0.98
  -8  -2  -5    6.11    1.01
   8   2   6    6.29    1.03
   8   2   6    6.88    1.05
   8   2   6    5.85    0.90
  -8  -2  -6    6.47    0.94
   8   2   7    4.57    0.85
   8   2   7    4.15    0.94
   8   2   7    4.86    0.84
   8   2   8   41.35    2.76
   8   2   8   38.94    2.56
   8   2   9    5.14    0.97
   8   2   9    5.24    1.16
   8   2  10    9.89    1.27
   8   2  10    6.57    1.21
   8   2  11    0.74    0.60
   8   2  12    9.17    1.47
   8   3 -15    9.77    1.62
   8   3 -14   12.50    1.93
   8   3 -14   13.42    1.82
   8   3 -13    2.71    0.95
   8   3 -13    2.05    0.78
   8   3 -12    5.80    1.32
   8   3 -12    4.60    1.00
   8   3 -11   13.04    1.75
   8   3 -10   10.16    1.45
   8   3  -9    2.89    0.82
   8   3  -8   22.01    2.13
   8   3  -7   34.10    2.62
   8   3  -6   27.41    2.28
   8   3  -5   33.49    2.53
   8   3  -4    6.09    1.10
  -8  -3   3    1.96    0.56
   8   3  -3    2.19    0.77
  -8  -3   2   73.20    3.12
   8   3  -2   73.08    3.67
  -8  -3   1   67.59    2.96
   8   3  -1   68.05    3.49
  -8  -3   0   -0.26    0.28
   8   3   0    0.58    0.44
   8   3   1    0.65    0.54
   8   3   2   75.70    3.58
   8   3   3   27.23    2.05
   8   3   4    0.28    0.42
   8   3   4    0.37    0.43
   8   3   5   -0.42    0.51
   8   3   5    0.02    0.40
   8   3   6   68.80    3.40
   8   3   6   71.84    3.35
   8   3   6   70.43    3.61
   8   3   7   19.24    1.74
   8   3   7   16.61    1.66
   8   3   8    1.91    0.72
   8   3   8    2.23    0.64
   8   3   9    6.45    1.22
   8   3   9    7.13    1.17
   8   3  10   43.13    2.83
   8   3  10   43.01    2.86
   8   4 -15    5.01    1.16
   8   4 -14    3.35    0.91
   8   4 -14    4.32    1.07
   8   4 -13   18.85    2.19
   8   4 -13   16.46    2.05
   8   4 -12   21.17    2.23
   8   4 -12   15.91    1.94
   8   4 -11    0.06    0.49
   8   4 -10    4.83    1.09
   8   4  -9   38.25    2.95
   8   4  -8   14.58    1.81
   8   4  -7    8.29    1.31
   8   4  -6   29.06    2.45
   8   4  -5   31.76    2.51
   8   4  -4    4.35    1.02
   8   4  -3    7.90    1.28
  -8  -4   2   14.66    1.27
   8   4  -2   15.41    1.69
  -8  -4   1   21.31    1.50
   8   4  -1   20.41    1.94
  -8  -4   0   24.47    1.62
   8   4   0   24.69    2.08
  -8  -4  -1    2.91    0.55
   8   4   1    2.22    0.67
   8   4   2    0.20    0.42
   8   4   3    8.15    1.26
   8   4   3    7.78    1.18
   8   4   4   15.73    1.75
   8   4   4   15.95    1.66
   8   4   5    4.85    0.84
   8   4   5    5.09    1.00
   8   4   6   10.67    1.26
   8   4   6   12.00    1.53
   8   4   7   23.59    1.90
   8   4   7   23.83    2.17
   8   4   8   31.87    2.28
   8   4   8   27.86    2.41
   8   4   9   11.33    1.51
   8   4  10    0.78    0.73
   8   5 -13    4.53    1.11
   8   5 -13    3.27    0.88
   8   5 -12   15.17    1.95
   8   5 -12   14.99    1.94
   8   5 -11   19.34    2.21
   8   5 -10    8.81    1.44
   8   5  -9    5.82    1.35
   8   5  -8   30.80    2.67
   8   5  -7   25.66    2.40
   8   5  -6   22.56    2.24
   8   5  -5    4.20    1.05
   8   5  -4   14.01    1.65
   8   5  -3    1.30    0.60
   8   5  -2    1.34    0.64
   8   5  -2    0.91    0.39
   8   5  -1    9.52    1.34
  -8  -5   0    3.23    0.59
   8   5   0    3.92    0.89
   8   5   1   -0.01    0.49
   8   5   2    0.10    0.55
   8   5   2   -0.15    0.46
   8   5   3    0.00    0.49
   8   5   3   -0.17    0.44
   8   5   4    0.61    0.52
   8   5   5    3.76    0.96
   8   5   5    4.01    0.76
   8   5   6    4.01    0.97
   8   5   6    4.10    0.82
   8   5   7    0.68    0.63
   8   5   8    1.25    0.78
   8   5   9   14.13    1.80
   8   5  10    2.63    1.01
   8   6 -13    0.01    0.60
   8   6 -11   -0.01    0.61
   8   6 -10    4.82    1.18
   8   6  -9    4.49    1.03
   8   6  -8   33.02    2.82
   8   6  -7    2.69    0.79
   8   6  -6    6.39    1.30
   8   6  -5   28.72    2.55
   8   6  -4    8.76    1.47
   8   6  -3    3.14    0.97
   8   6  -2    1.87    0.85
   8   6  -1    3.29    1.02
   8   6   0    6.91    1.28
   8   6   0    7.69    1.31
   8   6   1    5.27    1.18
   8   6   1    5.78    1.19
   8   6   2    0.72    0.54
   8   6   3    5.56    1.17
   8   6   4   -0.31    0.47
   8   6   5    3.76    0.94
   8   6   6   -0.23    0.71
   8   6   7    0.64    0.47
   8   6   8    0.51    0.47
   8   6   9    0.21    0.60
   8   6  10    1.15    0.63
   8   7  -9    3.72    1.13
   8   7  -8    1.67    0.94
   8   7  -7   43.52    3.33
   8   7  -6    4.11    1.15
   8   7  -5   -0.08    0.57
   8   7  -4    1.72    0.79
   8   7  -3   34.38    2.87
   8   7  -3   37.10    2.95
   8   7  -2    6.84    1.30
   8   7  -2    7.39    1.38
   8   7  -1    9.63    1.58
   8   7   0   13.54    1.82
   8   7   1   29.07    2.61
   8   7   2    2.94    0.86
   8   7   3    0.23    0.55
   8   7   4    6.99    1.37
   8   7   5    4.07    1.04
   8   7   6    3.47    1.02
   8   7   7    0.04    0.63
   8   8  -8   -0.75    0.56
   8   8  -7   -0.43    0.66
   8   8  -6   19.03    2.17
   8   8  -5   19.78    2.21
   8   8  -4   -0.56    0.52
   8   8  -3    2.42    1.02
   8   8  -2   15.90    2.04
   8   8  -1   51.44    3.64
   8   8   0   30.92    2.80
   8   8   1   20.33    2.33
   8   8   2   21.81    2.34
   8   8   3    0.22    0.51
   9 -12  -1    3.79    1.07
   9 -12   0   19.45    2.17
   9 -12   1    5.51    1.19
   9 -12   1    3.42    0.91
   9 -12   2    2.28    0.88
   9 -12   2   -0.45    0.59
   9 -11  -3    1.81    0.71
   9 -11  -2   -0.06    0.75
   9 -11  -1    7.91    1.40
   9 -11   0   15.63    1.98
   9 -11   0   13.00    2.03
   9 -11   1    3.62    0.94
   9 -11   1    7.30    1.55
   9 -11   2   10.98    1.55
   9 -11   2   16.39    2.34
   9 -11   3    6.54    1.45
   9 -11   3    5.54    1.08
   9 -11   3    7.66    1.52
   9 -11   4    7.39    1.42
   9 -11   4    8.06    1.48
   9 -11   5   19.77    2.34
   9 -11   6   10.59    1.74
   9 -10  -4    2.35    0.90
   9 -10  -3   30.85    2.99
   9 -10  -2   18.58    2.32
   9 -10  -1    4.62    1.29
   9 -10   0    7.46    1.40
   9 -10   1   29.20    2.87
   9 -10   2   12.57    1.58
   9 -10   2   14.82    1.99
   9 -10   3    0.49    0.45
   9 -10   3   -0.03    0.53
   9 -10   4   17.25    2.11
   9 -10   4   15.75    1.71
   9 -10   4   18.46    2.11
   9 -10   5   10.00    1.57
   9 -10   5    9.98    1.60
   9 -10   6    3.97    1.02
   9 -10   7    7.83    1.41
   9  -9  -6   -0.26    0.84
   9  -9  -5   39.50    3.37
   9  -9  -4    2.15    0.70
   9  -9  -3   66.31    4.30
   9  -9  -2    1.49    0.79
   9  -9  -1   40.75    3.27
   9  -9   0    4.29    1.11
   9  -9   1   20.73    2.26
   9  -9   2   14.49    1.88
   9  -9   3    6.98    1.31
   9  -9   4   10.73    1.70
   9  -9   4    8.75    1.51
   9  -9   5    0.51    0.54
   9  -9   5    0.54    0.65
   9  -9   6    5.15    1.29
   9  -9   6    4.83    1.12
   9  -9   7    5.45    1.17
   9  -8  -8   -1.46    0.91
   9  -8  -7    1.67    0.96
   9  -8  -6   32.08    3.00
   9  -8  -5   30.97    2.90
   9  -8  -4   11.42    1.73
   9  -8  -3    3.59    1.18
   9  -8  -2  104.71    5.27
   9  -8  -1   19.11    2.17
   9  -8   0   72.84    4.23
   9  -8   1    4.73    1.13
   9  -8   2  182.04    6.93
   9  -8   3    0.22    0.45
   9  -8   4   15.26    1.81
   9  -8   5   22.20    2.37
   9  -8   5   26.14    2.45
   9  -8   6   78.35    4.54
   9  -8   6   75.81    4.01
   9  -8   7    1.68    0.67
   9  -8   7    1.15    0.51
   9  -7 -10    5.51    1.32
   9  -7  -9    5.39    1.30
   9  -7  -8   24.97    2.58
   9  -7  -7   27.41    2.71
   9  -7  -6    0.57    0.53
   9  -7  -5    7.18    1.45
   9  -7  -4  107.69    5.37
   9  -7  -3   16.89    2.02
   9  -7  -2    1.53    0.75
   9  -7  -1   48.80    3.36
   9  -7   0  149.99    6.12
   9  -7   1    4.72    1.18
   9  -7   2    1.06    0.55
   9  -7   3  159.36    6.12
   9  -7   4   51.87    3.22
   9  -7   5   10.87    1.42
   9  -7   6    6.44    1.28
   9  -7   6    5.17    1.00
   9  -7   7  120.93    5.81
   9  -7   7  125.34    4.95
   9  -7   8    0.72    0.63
   9  -6 -11    2.52    0.88
   9  -6 -10    0.04    0.58
   9  -6  -9    5.59    1.19
   9  -6  -8    4.99    1.13
   9  -6  -7    4.72    1.16
   9  -6  -6    3.81    1.03
   9  -6  -5   -0.22    0.51
   9  -6  -4    0.52    0.55
   9  -6  -3   17.17    1.94
   9  -6  -2   24.50    2.29
   9  -6  -1    0.83    0.50
   9  -6   0    0.38    0.54
   9  -6   1   42.21    2.91
   9  -6   2   43.00    2.89
   9  -6   3    3.10    0.84
   9  -6   4   12.78    1.55
   9  -6   5   94.27    4.24
   9  -6   6   15.08    1.94
   9  -6   6   13.22    1.47
   9  -6   7   11.56    1.69
   9  -6   7   11.49    1.34
   9  -6   8   48.77    3.56
   9  -6   9   40.56    3.34
   9  -5 -12    6.06    1.29
   9  -5 -11    4.46    1.07
   9  -5 -10   23.39    2.37
   9  -5  -9    3.79    1.19
   9  -5  -8    3.84    1.16
   9  -5  -7   19.40    2.14
   9  -5  -6    1.09    0.59
   9  -5  -5   -0.69    1.13
   9  -5  -4    3.54    0.95
   9  -5  -3    0.55    0.45
   9  -5  -2    1.08    0.53
   9  -5  -1    0.23    0.49
   9  -5   0    2.59    0.81
   9  -5   1   -0.07    0.40
   9  -5   2   12.61    1.49
   9  -5   3    8.40    1.23
   9  -5   4    0.42    0.48
   9  -5   4    1.08    0.65
   9  -5   5    1.21    0.53
   9  -5   5    0.07    0.50
   9  -5   6   36.48    2.95
   9  -5   6   34.86    2.31
   9  -5   7   14.08    1.88
   9  -5   7   12.74    1.34
   9  -5   8   16.77    2.06
   9  -5   9    3.70    1.22
   9  -4 -13   11.64    1.71
   9  -4 -12    7.88    1.49
   9  -4 -11   58.55    3.87
   9  -4 -10   37.21    3.01
   9  -4  -9    5.60    1.13
   9  -4  -8   21.39    2.25
   9  -4  -7  183.92    6.86
   9  -4  -6    1.63    0.66
   9  -4  -5    3.99    0.94
   9  -4  -4   47.04    3.08
   9  -4  -3   52.91    3.25
   9  -4  -2   -0.27    0.39
   9  -4  -1    3.43    0.78
   9  -4   0   25.62    2.16
   9  -4   1    0.18    0.43
   9  -4   2    3.88    0.85
   9  -4   3    3.45    0.82
   9  -4   4    0.12    0.43
   9  -4   5    0.01    0.35
   9  -4   6   -0.28    0.45
   9  -4   7    1.23    0.74
   9  -4   7    0.58    0.52
   9  -4   8    1.84    0.65
   9  -4   8    4.76    0.75
   9  -4   9    2.19    0.78
   9  -4  10    4.62    1.13
   9  -3 -14    4.07    1.22
   9  -3 -13   50.60    3.66
   9  -3 -12   -0.30    0.52
   9  -3 -11    1.80    0.74
   9  -3 -10   82.47    4.52
   9  -3  -9   61.77    3.87
   9  -3  -8    9.28    1.51
   9  -3  -7   -1.54    0.85
   9  -3  -6  219.66    7.46
   9  -3  -5   75.90    3.98
   9  -3  -4    0.87    0.56
   9  -3  -3   37.36    2.65
   9  -3  -2  272.57    8.14
   9  -3  -1   57.62    3.25
   9  -3   0    2.33    0.64
   9  -3   1   64.96    3.38
   9  -3   2   45.08    2.76
   9  -3   3   47.70    2.78
   9  -3   4    6.99    1.01
   9  -3   5   52.95    2.84
   9  -3   6   27.31    1.97
   9  -3   7    5.92    1.24
   9  -3   7    6.83    0.95
   9  -3   8    8.51    1.48
   9  -3   8    9.14    1.01
   9  -3   9    5.72    1.26
   9  -3  10    5.89    1.24
   9  -2 -14    3.14    0.97
   9  -2 -13    1.74    0.83
   9  -2 -12   24.33    2.46
   9  -2 -11   17.09    2.01
   9  -2 -10    3.43    0.91
   9  -2  -9    0.22    0.47
   9  -2  -8  120.14    5.34
   9  -2  -7   17.25    1.89
   9  -2  -6   26.93    2.33
   9  -2  -5    7.19    1.22
   9  -2  -4  136.60    5.45
   9  -2  -3    0.88    0.57
   9  -2  -2   43.12    2.81
   9  -2  -1   88.15    4.06
   9  -2   0   89.58    4.05
   9  -2   1   21.55    1.91
   9  -2   2    2.61    0.60
   9  -2   3   31.18    2.21
   9  -2   4   78.53    3.55
   9  -2   5    9.42    1.14
  -9   2  -5   11.15    1.34
   9  -2   6   21.44    1.68
   9  -2   7   50.75    3.37
   9  -2   7   56.29    2.73
   9  -2   8    0.34    0.54
   9  -2   8   -0.59    0.34
   9  -2   9    5.65    1.40
   9  -2  10   26.88    2.61
   9  -2  11   17.27    2.12
   9  -1 -14    3.10    0.98
   9  -1 -13   -0.63    0.58
   9  -1 -12    0.72    0.58
   9  -1 -11    0.08    0.49
   9  -1 -10    2.16    0.67
   9  -1  -9    0.32    0.55
   9  -1  -8   46.38    3.19
   9  -1  -7   84.28    4.28
   9  -1  -6    2.59    0.83
   9  -1  -5   41.03    2.83
   9  -1  -4    3.53    0.87
   9  -1  -3   81.64    3.99
   9  -1  -2   11.37    1.46
   9  -1  -1  102.29    4.39
   9  -1   0   13.40    1.50
   9  -1   1  112.30    4.54
   9  -1   2   12.13    1.38
   9  -1   3   56.20    2.99
   9  -1   4   49.77    2.76
   9  -1   5   40.01    2.39
   9  -1   6    4.06    0.77
  -9   1  -6    5.30    0.94
   9  -1   7    6.30    1.18
   9  -1   7    7.34    0.96
   9  -1   8   30.94    2.64
   9  -1   8   32.59    1.97
   9  -1   8   35.16    2.20
   9  -1   9    0.22    0.62
   9  -1  10   -1.44    0.80
   9  -1  11    4.03    1.19
   9   0 -14    0.57    0.65
   9   0 -13    8.09    1.48
   9   0 -12    2.23    0.83
   9   0 -11    1.38    0.85
   9   0 -10    3.61    1.14
   9   0  -9    6.48    1.23
   9   0  -8   11.11    1.61
   9   0  -7    5.83    1.09
   9   0  -6    1.06    0.67
   9   0  -5    2.51    0.79
   9   0  -4   17.40    1.86
   9   0  -3    7.05    1.12
   9   0  -2    1.31    0.56
   9   0  -1   18.47    1.77
   9   0   0   42.28    2.69
   9   0   1   17.99    1.72
   9   0   2   58.22    3.09
   9   0   3   14.43    1.49
   9   0   4   35.74    2.33
   9   0   5    2.53    0.65
   9   0   6  100.04    3.98
   9   0   7    4.37    0.86
   9   0   7    2.85    0.79
   9   0   7    2.32    0.48
   9   0   8   17.48    1.92
   9   0   8   16.96    1.61
   9   0   9    9.60    1.81
   9   0  10   69.56    4.12
   9   0  11    0.84    0.75
   9   0  12    0.01    0.66
   9   1 -14    1.92    1.02
   9   1 -13    4.85    1.12
   9   1 -12    3.11    1.01
   9   1 -11   11.29    1.69
   9   1 -10    1.80    0.81
   9   1  -9    0.67    0.57
   9   1  -8   24.94    2.42
   9   1  -7    3.98    0.95
   9   1  -6    2.10    0.66
   9   1  -5    5.50    1.09
   9   1  -4    1.65    0.57
   9   1  -3    1.58    0.62
   9   1  -2   29.61    2.30
   9   1  -1    9.67    1.37
   9   1   0    0.82    0.52
   9   1   1   12.34    1.45
   9   1   2   35.77    2.45
   9   1   3    0.67    0.41
   9   1   4    8.06    1.14
   9   1   5   15.66    1.55
   9   1   6   35.11    2.27
   9   1   6   34.78    2.40
   9   1   7    1.20    0.43
   9   1   7    1.54    0.59
   9   1   7    1.68    0.80
   9   1   8    4.53    1.15
   9   1   8    5.61    1.05
   9   1   9   18.25    2.04
   9   1   9   17.18    1.71
   9   1  10   11.79    1.71
   9   1  11    9.94    1.51
   9   1  12    0.26    0.49
   9   2 -13   27.05    2.62
   9   2 -12    1.01    0.75
   9   2 -11    0.48    0.68
   9   2 -10   33.40    2.82
   9   2  -9   28.20    2.57
   9   2  -8    0.58    0.65
   9   2  -7   16.40    1.90
   9   2  -6   60.28    3.63
   9   2  -5   21.84    2.24
   9   2  -4    1.62    0.77
   9   2  -3   34.65    2.60
   9   2  -2   71.39    3.76
  -9  -2   1   18.14    1.63
   9   2  -1   21.85    2.02
  -9  -2   0   22.84    1.86
   9   2   0   23.91    2.08
   9   2   1   23.94    2.05
   9   2   2   18.89    1.79
   9   2   3   20.53    1.87
   9   2   4   11.61    1.41
   9   2   5    7.65    1.17
   9   2   6    9.17    1.29
   9   2   6    9.87    1.45
   9   2   6    9.53    1.23
   9   2   7   39.32    2.77
   9   2   7   43.46    2.56
   9   2   7   38.51    2.65
   9   2   8    6.32    1.12
   9   2   8    9.59    1.39
   9   2   9    1.93    0.70
   9   2   9    1.38    0.77
   9   2  10   10.60    1.49
   9   2  11   20.39    2.07
   9   3 -13    5.47    1.28
   9   3 -12   15.68    1.98
   9   3 -11    1.74    0.93
   9   3 -10    6.02    1.21
   9   3  -9   14.26    1.86
   9   3  -8   69.31    4.06
   9   3  -7    2.12    0.87
   9   3  -6   -0.52    0.59
   9   3  -5   64.50    3.76
   9   3  -4   43.06    3.03
  -9  -3   3   -0.02    0.30
   9   3  -3    0.20    0.57
  -9  -3   2   34.40    2.20
   9   3  -2   33.73    2.60
  -9  -3   1   76.82    3.40
   9   3  -1   81.26    4.06
  -9  -3   0   17.22    1.54
   9   3   0   22.53    2.07
  -9  -3  -1   10.56    1.23
   9   3   1   12.43    1.55
   9   3   2   30.87    2.36
   9   3   3   19.93    1.87
   9   3   4   11.54    1.44
   9   3   4   10.72    1.36
   9   3   5   17.15    1.70
   9   3   5   18.43    1.93
   9   3   6   10.17    1.39
   9   3   6   12.00    1.42
   9   3   6   13.29    1.56
   9   3   7    8.73    1.32
   9   3   7    9.80    1.37
   9   3   8   17.20    1.86
   9   3   8   22.77    2.08
   9   3   9    6.66    1.23
   9   3   9    6.56    1.22
   9   4 -11    1.03    0.71
   9   4 -10    1.87    0.85
   9   4  -9   25.10    2.54
   9   4  -8    0.76    0.57
   9   4  -7    7.29    1.36
   9   4  -6   -0.21    0.53
   9   4  -5   21.03    2.17
   9   4  -4   -0.33    0.49
   9   4  -3   12.80    1.68
  -9  -4   2    5.31    0.86
   9   4  -2    5.58    1.15
  -9  -4   1    6.09    0.92
   9   4  -1    8.96    1.38
   9   4   0    1.19    0.56
   9   4   1    4.74    0.98
   9   4   2    8.78    1.35
   9   4   3   -0.23    0.56
   9   4   3   -0.71    0.66
   9   4   4    1.81    0.79
   9   4   4    0.64    0.47
   9   4   5    1.06    0.57
   9   4   5    1.77    0.57
   9   4   6   -0.09    0.47
   9   4   6    0.72    0.47
   9   4   7    0.43    0.51
   9   4   7   -0.15    0.42
   9   4   8    3.39    0.94
   9   4   9    0.32    0.61
   9   5 -10    1.54    0.83
   9   5  -9    5.91    1.25
   9   5  -8   13.16    1.85
   9   5  -7   33.52    2.88
   9   5  -6    0.65    0.53
   9   5  -5    0.93    0.68
   9   5  -4   19.83    2.13
   9   5  -3   32.50    2.76
   9   5  -2    0.82    0.75
   9   5  -1    1.01    0.67
   9   5   0   66.64    3.90
   9   5   1    6.59    1.26
   9   5   2    0.22    0.51
   9   5   2    0.73    0.57
   9   5   3   16.76    1.93
   9   5   3   14.90    1.77
   9   5   4   22.43    2.27
   9   5   5    6.38    1.24
   9   5   6    3.15    0.92
   9   5   7   10.95    1.58
   9   5   8    9.99    1.56
   9   5   9    0.10    0.59
   9   6  -8    1.24    0.87
   9   6  -7    1.06    0.67
   9   6  -6   48.55    3.53
   9   6  -5    2.33    0.99
   9   6  -4    0.19    0.64
   9   6  -3    2.87    0.92
   9   6  -2   43.24    3.26
   9   6  -1   13.27    1.82
   9   6   0    1.20    0.65
   9   6   0    0.39    0.54
   9   6   1   20.87    2.20
   9   6   1   21.49    2.28
   9   6   2   26.80    2.54
   9   6   3    0.94    0.77
   9   6   4   -0.06    0.63
   9   6   5   15.76    1.95
   9   6   6    7.35    1.42
   9   6   7    1.13    0.67
   9   7  -5   20.00    2.29
   9   7  -4    9.49    1.51
   9   7  -3    1.74    0.80
   9   7  -3    1.27    0.93
   9   7  -2   22.13    2.36
   9   7  -2   22.59    2.38
   9   7  -1   23.66    2.43
   9   7   0   37.58    3.13
   9   7   1    0.79    0.87
   9   7   2    9.20    1.56
  10 -11  -1    2.30    1.05
  10 -11   0   34.83    2.96
  10 -11   1    6.35    1.20
  10 -11   2   18.30    2.09
  10 -11   5    5.59    1.32
  10 -10   0    8.74    1.61
  10 -10   1   38.54    3.35
  10 -10   2   16.77    2.24
  10 -10   3    2.37    0.82
  10 -10   3    1.32    0.71
  10 -10   4    2.03    0.89
  10 -10   5   25.43    2.60
  10 -10   6   17.33    2.17
  10  -9  -3    1.52    0.90
  10  -9  -2    1.63    0.92
  10  -9  -1   50.62    3.79
  10  -9   0   11.42    1.82
  10  -9   1    5.79    1.47
  10  -9   2    4.70    1.03
  10  -9   3   79.54    4.61
  10  -9   4    1.66    0.79
  10  -9   5    1.36    0.62
  10  -9   6   19.55    2.13
  10  -8  -6    8.14    1.66
  10  -8  -5    6.99    1.47
  10  -8  -4    8.76    1.57
  10  -8  -3   19.68    2.38
  10  -8  -2    9.76    1.68
  10  -8  -1    0.66    0.75
  10  -8   0   18.58    2.17
  10  -8   1   32.91    2.88
  10  -8   2    2.15    0.92
  10  -8   3    1.30    0.68
  10  -8   4   35.20    2.87
  10  -8   5   22.35    2.47
  10  -8   5   24.75    2.33
  10  -8   6    0.58    0.72
  10  -7  -8    6.59    1.49
  10  -7  -7   16.78    2.17
  10  -7  -6    1.35    0.60
  10  -7  -5    4.60    1.21
  10  -7  -4   10.18    1.66
  10  -7  -3   -0.26    0.54
  10  -7  -2    3.49    1.02
  10  -7  -1    0.30    0.61
  10  -7   0    2.49    0.85
  10  -7   1    0.76    0.71
  10  -7   2    2.99    0.93
  10  -7   3    0.95    0.66
  10  -7   4    1.19    0.62
  10  -7   5    3.53    0.93
  10  -7   6   28.25    2.79
  10  -7   6   23.34    2.14
  10  -6  -9    1.18    0.90
  10  -6  -8   39.85    3.33
  10  -6  -7   26.54    2.76
  10  -6  -6   23.72    2.52
  10  -6  -5   -0.29    0.78
  10  -6  -4   71.10    4.27
  10  -6  -3    2.09    0.95
  10  -6  -2    2.48    0.86
  10  -6  -1    5.04    1.14
  10  -6   0   20.41    2.12
  10  -6   1    2.08    0.82
  10  -6   2   -0.44    0.61
  10  -6   3    9.02    1.42
  10  -6   4    0.98    0.53
  10  -6   5   -0.68    0.56
  10  -6   6    0.92    0.77
  10  -6   6    0.73    0.46
  10  -6   7    1.22    0.74
  10  -6   7    0.42    0.60
  10  -5 -10   41.34    3.34
  10  -5  -9    6.27    1.54
  10  -5  -8    2.74    1.12
  10  -5  -7   42.28    3.28
  10  -5  -6   65.60    4.04
  10  -5  -5   -0.70    0.70
  10  -5  -4    3.08    0.95
  10  -5  -3   66.39    3.95
  10  -5  -2  152.48    6.17
  10  -5  -1    1.98    0.86
  10  -5   0    2.37    0.68
  10  -5   1   51.47    3.24
  10  -5   2   51.21    3.23
  10  -5   3    0.56    0.39
  10  -5   4   15.91    1.70
  10  -5   5   32.89    2.43
  10  -5   6    5.30    1.00
  10  -5   7   -0.13    0.46
  10  -5   7    0.52    0.36
  10  -5   8    8.04    1.45
  10  -4 -11    0.65    0.74
  10  -4 -10    0.03    0.64
  10  -4  -9   26.51    2.63
  10  -4  -8   43.39    3.33
  10  -4  -7    0.97    0.69
  10  -4  -6   11.08    1.65
  10  -4  -5   50.54    3.44
  10  -4  -4   17.94    2.02
  10  -4  -3   11.21    1.60
  10  -4  -2   11.04    1.52
  10  -4  -1  185.40    6.74
  10  -4   0    5.63    1.13
  10  -4   1   12.01    1.62
  10  -4   2  134.90    5.41
  10  -4   3   43.89    2.88
  10  -4   4    8.75    1.27
  10  -4   5    4.37    0.88
  10  -4   6   53.60    3.00
  10  -4   7   30.34    2.80
  10  -4   7   28.93    2.10
  10  -4   8    0.84    0.61
  10  -3 -11    0.59    0.51
  10  -3 -10    6.56    1.37
  10  -3  -9    1.17    0.66
  10  -3  -8    2.53    1.02
  10  -3  -7   50.11    3.49
  10  -3  -6   -0.19    0.52
  10  -3  -5    7.05    1.28
  10  -3  -4   38.62    2.95
  10  -3  -3   66.13    3.83
  10  -3  -2    4.10    1.00
  10  -3  -1    1.45    0.71
  10  -3   0  104.97    4.76
  10  -3   1   13.30    1.63
  10  -3   2   52.88    3.16
  10  -3   3   47.71    2.94
  10  -3   4    7.54    1.14
  10  -3   5    7.05    1.17
  10  -3   6    3.70    0.80
  10  -3   7    2.87    0.70
  10  -3   7    1.20    0.61
  10  -3   8   18.57    2.21
  10  -3   9   -1.22    0.82
  10  -2 -12    0.26    0.53
  10  -2 -11   -0.44    0.68
  10  -2 -10    5.60    1.16
  10  -2  -9    9.12    1.55
  10  -2  -8    7.04    1.38
  10  -2  -7    4.58    1.02
  10  -2  -6    1.15    0.47
  10  -2  -5   10.43    1.51
  10  -2  -4   19.12    2.00
  10  -2  -3    3.42    0.85
  10  -2  -2    0.41    0.43
  10  -2  -1   10.57    1.42
  10  -2   0   61.07    3.49
  10  -2   1   -0.87    0.68
  10  -2   2    2.13    0.66
  10  -2   3   -0.48    0.62
  10  -2   4   74.76    3.67
  10  -2   5    8.21    1.12
  10  -2   6   17.24    1.60
  10  -2   7   13.29    1.38
  10  -2   7   12.54    1.78
  10  -2   8   12.17    1.72
  10  -2   9   20.03    2.28
  10  -1 -12   11.55    1.79
  10  -1 -11   18.97    2.25
  10  -1 -10    0.37    0.53
  10  -1  -9    0.59    0.63
  10  -1  -8   41.55    3.17
  10  -1  -7   10.33    1.57
  10  -1  -6    0.64    0.53
  10  -1  -5   16.45    1.90
  10  -1  -4   15.25    1.78
  10  -1  -3    7.95    1.30
  10  -1  -2   26.47    2.32
  10  -1  -1   21.79    2.08
  10  -1   0   14.57    1.67
  10  -1   1   39.21    2.72
  10  -1   2   15.50    1.65
  10  -1   3    2.29    0.74
  10  -1   4    3.97    0.90
  10  -1   5   72.37    3.57
  10  -1   6    4.94    0.94
  10  -1   7    8.03    1.07
  10  -1   7    6.21    1.27
  10  -1   8   21.03    2.30
  10  -1   9    8.07    1.62
  10  -1  10    2.21    0.97
  10   0 -12    1.90    0.89
  10   0 -11    2.45    0.71
  10   0 -10   47.96    3.49
  10   0  -9    6.04    1.18
  10   0  -8   26.01    2.53
  10   0  -7  104.68    5.11
  10   0  -6   15.89    1.98
  10   0  -5   -0.38    0.63
  10   0  -4    1.70    0.74
  10   0  -3   30.90    2.57
  10   0  -2   26.06    2.35
  10   0  -1    4.91    1.04
  10   0   0   17.20    1.81
  10   0   1   18.87    1.86
  10   0   2    5.62    0.95
  10   0   3    5.30    0.99
  10   0   4    8.05    1.20
  10   0   5   12.00    1.40
  10   0   6   13.62    1.48
  10   0   7   12.60    1.45
  10   0   7   14.22    1.42
  10   0   7   13.92    1.78
  10   0   8    1.56    0.74
  10   0   8    0.39    0.61
  10   0   9    2.18    0.86
  10   0  10   12.82    1.78
  10   1 -11   14.34    1.97
  10   1 -10    3.20    0.97
  10   1  -9   68.48    4.17
  10   1  -8    1.31    0.61
  10   1  -7   10.48    1.57
  10   1  -6   28.25    2.52
  10   1  -5   32.14    2.66
  10   1  -4    0.57    0.58
  10   1  -3    0.47    0.49
  10   1  -2   26.33    2.36
  10   1  -1   73.76    3.96
  10   1   0    2.32    0.84
  10   1   1    8.77    1.34
  10   1   2   38.91    2.75
  10   1   3    8.37    1.27
  10   1   4    5.90    1.09
  10   1   5   22.73    2.00
  10   1   6   10.55    1.36
  10   1   6    8.91    1.22
  10   1   7    6.18    1.03
  10   1   7    6.91    1.08
  10   1   7    6.14    1.26
  10   1   8    7.36    1.17
  10   1   8    6.98    1.39
  10   1   9    2.69    1.28
  10   1  10   -0.90    0.70
  10   2 -10   11.59    1.74
  10   2  -9   28.74    2.76
  10   2  -8   26.71    2.57
  10   2  -7    0.23    0.51
  10   2  -6    8.70    1.51
  10   2  -5    9.87    1.48
  10   2  -4   14.03    1.81
  10   2  -3   12.96    1.65
  10   2  -2   24.88    2.31
  10   2  -1    0.06    0.48
  10   2   0   48.50    3.20
  10   2   1    0.60    0.47
  10   2   2    8.58    1.31
  10   2   3    2.51    0.88
  10   2   4   14.82    1.72
  10   2   5    0.81    0.64
  10   2   5    0.32    0.50
  10   2   6   -0.23    0.59
  10   2   6    0.93    0.65
  10   2   6   -0.53    0.53
  10   2   7    7.50    1.24
  10   2   7    5.82    1.12
  10   2   8    2.33    0.77
  10   2   8    2.89    0.73
  10   2   9    0.28    0.81
  10   3  -9    0.70    0.68
  10   3  -8   37.50    3.12
  10   3  -7    4.66    1.20
  10   3  -6    7.88    1.42
  10   3  -5    8.88    1.47
  10   3  -4   30.69    2.65
  10   3  -3    0.25    0.46
  10   3  -2   18.43    2.05
  10   3  -1   51.11    3.38
  10   3   0   15.64    1.83
  10   3   1    5.97    1.19
  10   3   2   -0.09    0.48
  10   3   3   40.39    2.90
  10   3   4    2.11    0.66
  10   3   4    4.45    1.03
  10   3   5    4.11    1.06
  10   3   5    5.68    1.08
  10   3   6    1.50    0.77
  10   3   6    2.24    0.70
  10   3   6    1.58    0.79
  10   3   7   14.04    1.76
  10   3   7   13.38    1.68
  10   3   8    1.19    0.71
  10   4  -8    9.09    1.63
  10   4  -7   18.85    2.24
  10   4  -6   20.72    2.31
  10   4  -5    0.90    0.74
  10   4  -4    1.53    0.83
  10   4  -3   32.54    2.82
  10   4  -2   15.22    1.94
  10   4  -1    0.59    0.55
  10   4   0    7.33    1.29
  10   4   1   40.09    3.01
  10   4   2    3.28    0.99
  10   4   3   -0.50    0.61
  10   4   3    0.98    0.75
  10   4   4   27.13    2.40
  10   4   4   26.50    2.46
  10   4   5    6.76    1.34
  10   4   5    6.55    1.19
  10   4   5    8.76    1.30
  10   4   6    1.47    0.80
  10   4   7   -0.93    0.87
  10   4   8   14.07    1.84
  10   5  -6    7.15    1.45
  10   5  -5   15.33    2.10
  10   5  -4    3.97    1.00
  10   5  -3    1.17    0.67
  10   5  -2   26.38    2.57
  10   5  -1   34.16    2.93
  10   5   0    4.49    1.10
  10   5   1    1.85    0.85
  10   5   1    3.37    0.98
  10   5   2   34.65    2.88
  10   5   2   36.10    3.03
  10   5   3   16.97    2.06
  10   5   3   18.91    2.10
  10   5   4    3.32    0.94
  10   5   5    1.50    0.46
  10   5   6   30.93    2.77
  10   6  -2    1.04    0.77
  10   6  -1    3.37    1.11
  10   6   0    6.98    1.34
  10   6   1    1.19    0.77
  11  -9   1   -0.65    0.56
  11  -9   2    5.72    1.32
  11  -9   3    2.65    0.93
  11  -9   4    1.78    0.93
  11  -9   5    7.04    1.41
  11  -8  -2    5.65    1.28
  11  -8  -1    9.65    1.68
  11  -8   0    0.34    0.55
  11  -8   1    2.80    0.97
  11  -8   2    0.19    0.53
  11  -8   3    4.83    1.16
  11  -8   4   -0.82    0.83
  11  -8   5    0.65    0.54
  11  -7  -4    3.57    1.07
  11  -7  -3   71.29    4.50
  11  -7  -2    0.74    0.65
  11  -7  -1   15.05    1.99
  11  -7   0   10.39    1.69
  11  -7   1   40.08    3.20
  11  -7   2    1.38    0.83
  11  -7   3   -1.10    0.57
  11  -7   4   19.90    2.09
  11  -7   5    7.80    1.32
  11  -6  -6   23.42    2.50
  11  -6  -5   31.93    2.96
  11  -6  -4    0.86    0.71
  11  -6  -3    2.96    0.87
  11  -6  -2  103.12    5.25
  11  -6  -1   45.57    3.36
  11  -6   0   15.89    2.01
  11  -6   1   10.51    1.60
  11  -6   2  179.60    6.92
  11  -6   3   11.31    1.66
  11  -6   4   -0.14    0.46
  11  -6   5   32.68    2.65
  11  -6   6   80.91    4.15
  11  -5  -7    9.43    1.73
  11  -5  -6    0.38    0.63
  11  -5  -5    0.33    0.57
  11  -5  -4   52.21    3.70
  11  -5  -3    5.59    1.25
  11  -5  -2   -0.86    0.70
  11  -5  -1   18.26    2.12
  11  -5   0   96.94    4.89
  11  -5   1    1.02    0.54
  11  -5   2    1.27    0.82
  11  -5   3   73.29    4.08
  11  -5   4   31.56    2.56
  11  -5   5    2.40    0.73
  11  -5   6    1.34    0.79
  11  -4  -8    0.87    0.95
  11  -4  -7    0.80    0.81
  11  -4  -6   -0.27    0.77
  11  -4  -5    0.90    0.75
  11  -4  -4   -0.65    0.66
  11  -4  -3    1.42    0.77
  11  -4  -2    4.18    1.08
  11  -4  -1    5.49    1.22
  11  -4   0    0.04    0.51
  11  -4   1    4.21    0.99
  11  -4   2    3.72    0.99
  11  -4   3   15.13    1.81
  11  -4   4    1.52    0.59
  11  -4   5   13.38    1.55
  11  -4   6    1.70    0.67
  11  -3  -8   32.45    2.96
  11  -3  -7    0.16    0.66
  11  -3  -6    4.81    1.30
  11  -3  -5   14.93    1.94
  11  -3  -4    5.35    1.19
  11  -3  -3    7.57    1.42
  11  -3  -2   15.33    1.87
  11  -3  -1   15.51    1.88
  11  -3   0    9.02    1.45
  11  -3   1   10.94    1.54
  11  -3   2    2.07    0.67
  11  -3   3    7.39    1.26
  11  -3   4   20.84    2.02
  11  -3   5   26.23    2.24
  11  -3   6   -0.33    0.46
  11  -2  -9    1.93    0.66
  11  -2  -8    7.41    1.51
  11  -2  -7   89.75    4.96
  11  -2  -6    1.01    0.54
  11  -2  -5    0.00    0.61
  11  -2  -4   18.38    2.11
  11  -2  -3   40.28    3.07
  11  -2  -2    4.89    1.09
  11  -2  -1    7.38    1.27
  11  -2   0   34.66    2.75
  11  -2   1    9.12    1.43
  11  -2   2    2.60    0.82
  11  -2   3   20.99    2.02
  11  -2   4   16.82    1.79
  11  -2   5   13.40    1.54
  11  -2   6   12.03    1.48
  11  -2   7    4.94    1.15
  11  -1  -9    8.18    1.57
  11  -1  -8   -0.44    0.69
  11  -1  -7   11.20    1.72
  11  -1  -6   44.86    3.39
  11  -1  -5   13.47    1.88
  11  -1  -4   10.45    1.60
  11  -1  -3    0.54    0.61
  11  -1  -2   68.95    4.03
  11  -1  -1    8.78    1.35
  11  -1   0    0.18    0.65
  11  -1   1   15.08    1.76
  11  -1   2    7.05    1.21
  11  -1   3   15.37    1.75
  11  -1   4    2.90    0.90
  11  -1   5   16.05    1.71
  11  -1   6   12.04    1.43
  11  -1   7    2.00    1.00
  11  -1   8    3.93    1.08
  11   0  -8   22.56    2.50
  11   0  -7    0.99    0.47
  11   0  -6   28.74    2.69
  11   0  -5    0.80    0.60
  11   0  -4   27.86    2.64
  11   0  -3    1.73    0.76
  11   0  -2   24.53    2.39
  11   0  -1   15.83    1.90
  11   0   0   20.97    2.16
  11   0   1   10.18    1.50
  11   0   2    2.23    0.78
  11   0   3    7.39    1.31
  11   0   4   22.92    2.14
  11   0   5    8.62    1.29
  11   0   6    1.55    0.67
  11   0   7   15.03    1.71
  11   0   7   14.28    1.99
  11   0   8    1.07    0.85
  11   1  -8   33.05    3.00
  11   1  -7    9.82    1.64
  11   1  -6   -0.43    0.65
  11   1  -5   27.51    2.62
  11   1  -4   10.25    1.59
  11   1  -3   10.66    1.67
  11   1  -2    2.34    0.97
  11   1  -1   52.07    3.50
  11   1   0    0.08    0.54
  11   1   1   18.88    2.08
  11   1   2    4.53    1.04
  11   1   3   27.49    2.40
  11   1   4    8.10    1.25
  11   1   5    1.77    0.64
  11   1   6    7.52    1.29
  11   1   6    8.49    1.31
  11   1   7    7.99    1.31
  11   1   7    6.00    1.25
  11   1   8    2.40    0.98
  11   2  -7    8.36    1.50
  11   2  -6    9.92    1.67
  11   2  -5    7.67    1.36
  11   2  -4   19.94    2.25
  11   2  -3   17.43    2.09
  11   2  -2    5.47    1.14
  11   2  -1    1.17    0.74
  11   2   0   40.95    3.11
  11   2   1   28.29    2.54
  11   2   2    1.66    0.75
  11   2   3   -0.37    0.53
  11   2   4   34.96    2.73
  11   2   5    7.56    1.39
  11   2   5    7.76    1.30
  11   2   6    2.26    0.80
  11   2   6    2.72    0.81
  11   2   7    2.80    0.99
  11   2   7    1.75    0.76
  11   3  -5    3.48    1.04
  11   3  -4    2.48    0.94
  11   3  -3    3.23    0.98
  11   3  -2   14.38    1.93
  11   3  -1    9.23    1.53
  11   3   0    1.57    0.66
  11   3   1    8.80    1.56
  11   3   2   14.07    1.79
  11   3   3    3.64    1.00
  11   3   4   -0.48    0.59
  11   3   4   -0.14    0.54
  11   3   5   11.84    1.70
  11   3   5   12.42    1.72
  11   3   6   21.70    2.31
  11   3   7    2.92    0.81
  11   4  -3    1.82    0.80
  11   4  -2    4.79    1.25
  11   4  -1    0.75    0.49
  11   4   0    1.51    0.78
  11   4   1    2.30    0.94
  11   4   2    1.26    0.84
  11   4   3    2.90    1.09
  11   4   3    3.31    1.04
  11   4   4    1.73    0.85
  11   5   2    1.55    0.76
  11   5   3   -0.31    0.59
  12  -8   3   -0.03    0.57
  12  -8   4    0.25    0.60
  12  -7   0    2.95    0.98
  12  -7   1    8.21    1.50
  12  -7   2    1.08    0.63
  12  -7   3   37.43    3.10
  12  -7   4   -0.22    0.48
  12  -6  -2    1.64    0.86
  12  -6  -1    1.23    0.85
  12  -6   0    3.61    1.15
  12  -6   1    6.22    1.25
  12  -6   2   -1.34    0.62
  12  -6   3    0.73    0.53
  12  -6   4    6.35    1.27
  12  -6   5    7.01    1.33
  12  -5  -3    0.62    0.76
  12  -5  -2    3.78    0.96
  12  -5  -1    0.74    0.73
  12  -5   0    3.12    0.99
  12  -5   1    0.48    0.52
  12  -5   2   -0.12    0.49
  12  -5   3    0.34    0.65
  12  -5   4    0.09    0.50
  12  -5   5    0.25    0.53
  12  -4  -4   54.80    3.91
  12  -4  -3    6.37    1.37
  12  -4  -2    3.19    1.02
  12  -4  -1    5.16    1.15
  12  -4   0   19.13    2.19
  12  -4   1   -0.71    0.72
  12  -4   2    1.41    0.60
  12  -4   3   11.24    1.61
  12  -4   4    9.61    1.53
  12  -4   5    4.87    1.11
  12  -3  -4    0.76    0.57
  12  -3  -3    7.04    1.42
  12  -3  -2   40.75    3.25
  12  -3  -1    0.07    0.51
  12  -3   0    0.16    0.49
  12  -3   1   10.38    1.49
  12  -3   2   12.53    1.73
  12  -3   3   -0.51    0.46
  12  -3   4   10.32    1.56
  12  -3   5   20.43    2.07
  12  -2  -5    8.05    1.54
  12  -2  -4    0.06    0.64
  12  -2  -3    0.21    0.67
  12  -2  -2    0.31    0.65
  12  -2  -1   40.95    3.22
  12  -2   0   -0.25    0.66
  12  -2   1   18.82    2.14
  12  -2   2   32.30    2.72
  12  -2   3    5.06    1.11
  12  -2   4    0.12    0.51
  12  -2   5   -0.37    0.55
  12  -1  -5    6.49    1.30
  12  -1  -4    6.34    1.42
  12  -1  -3   14.25    1.92
  12  -1  -2    4.48    1.14
  12  -1  -1    7.05    1.30
  12  -1   0   25.40    2.52
  12  -1   1    5.00    1.10
  12  -1   2   13.87    1.77
  12  -1   3   14.44    1.80
  12  -1   4    0.59    0.46
  12  -1   5    2.52    0.80
  12   0  -4   13.24    1.91
  12   0  -3    5.32    1.19
  12   0  -2    0.94    0.73
  12   0  -1   10.94    1.68
  12   0   0   30.70    2.73
  12   0   1    0.49    0.51
  12   0   2    0.43    0.62
  12   0   3   -0.36    0.60
  12   0   4   38.04    2.93
  12   0   5   -0.47    0.53
  12   1  -3    9.64    1.70
  12   1  -2   14.12    1.97
  12   1  -1   14.30    1.93
  12   1   0   10.07    1.56
  12   1   1   16.98    2.04
  12   1   2    5.83    1.15
  12   1   3    3.40    1.00
  12   1   4    5.64    1.20
  12   1   5   33.77    2.73
  12   1   6    6.81    1.28
  12   2  -1    0.76    0.76
  12   2   0    1.41    0.59
  12   2   1    3.55    0.98
  12   2   2   -0.46    0.51
  12   2   3   -0.93    0.70
  12   2   4    1.70    0.80
  12   3   2    1.50    0.77
  12   3   3   -0.07    0.49
  12   3   4    0.23    0.67
  13  -5   3    0.18    0.52
  13  -4   2   40.58    3.29
  13  -4   3   -0.09    0.69
  13  -4   4    3.22    0.96
  13  -3   1    0.52    0.52
  13  -3   2    2.85    0.96
  13  -3   3   14.45    1.87
  13  -3   4    8.42    1.43
  13  -2   1   -1.79    1.02
  13  -2   2    0.59    0.90
  13  -2   3    9.90    1.62
  13  -2   4    3.88    1.12
  13  -1   2    8.01    1.41
  13  -1   3   12.30    1.81
  13   0   3    3.95    1.11
   0   0   0    0.00    0.00


TITL pvl1190_auto in P-1
REM P-1 (#2 in standard setting)
CELL 0.71073  10.042897  10.915529  13.663793  93.8778  94.6413  99.6409
ZERR   17.00   0.000306   0.000329   0.000302   0.0021   0.0021   0.0025
LATT  1
SFAC C H N O Zn Se
UNIT 17.00 17.00 17.00 17.00 17.00 17.00
REM  CrysAlisPro recorded range (K): Min=290.4; max=290.9; aver:290.7
TEMP 18
TREF
HKLF 4
END
_computing_structure_solution     'SHELXT 2014/5 (Sheldrick, 2014)'
;
_shelx_hkl_checksum    8228

