 
data_pvl671
 
_audit_creation_method            'SHELXL-2018/3'
_shelx_SHELXL_version_number      '2018/3'
_chemical_name_systematic         ?
_chemical_name_common             ?
_chemical_melting_point           ?
_chemical_formula_moiety          ?
_chemical_formula_sum
 'C20.80 H12.80 Co0.80 N12.80 O4.80 S1.60' 
_chemical_formula_weight          617.28

loop_
 _atom_type_symbol
 _atom_type_description
 _atom_type_scat_dispersion_real
 _atom_type_scat_dispersion_imag
 _atom_type_scat_source
 'C'  'C'   0.0033   0.0016
 'International Tables Vol C Tables 4.2.6.8 and 6.1.1.4'
 'H'  'H'   0.0000   0.0000
 'International Tables Vol C Tables 4.2.6.8 and 6.1.1.4'
 'N'  'N'   0.0061   0.0033
 'International Tables Vol C Tables 4.2.6.8 and 6.1.1.4'
 'O'  'O'   0.0106   0.0060
 'International Tables Vol C Tables 4.2.6.8 and 6.1.1.4'
 'S'  'S'   0.1246   0.1234
 'International Tables Vol C Tables 4.2.6.8 and 6.1.1.4'
 'Co'  'Co'   0.3494   0.9721
 'International Tables Vol C Tables 4.2.6.8 and 6.1.1.4'
 
_space_group_crystal_system       monoclinic
_space_group_IT_number            13
_space_group_name_H-M_alt         'P 2/n'
_space_group_name_Hall            '-P 2yac'
 
_shelx_space_group_comment
;
The symmetry employed for this shelxl refinement is uniquely defined
by the following loop, which should always be used as a source of
symmetry information in preference to the above space-group names.
They are only intended as comments.
;
 
loop_
 _space_group_symop_operation_xyz
 'x, y, z'
 '-x+1/2, y, -z+1/2'
 '-x, -y, -z'
 'x-1/2, -y, z-1/2'
 
_cell_length_a                    19.4530(7)
_cell_length_b                    5.8144(2)
_cell_length_c                    27.1562(10)
_cell_angle_alpha                 90
_cell_angle_beta                  108.054(4)
_cell_angle_gamma                 90
_cell_volume                      2920.34(19)
_cell_formula_units_Z             5
_cell_measurement_temperature     140(2)
_cell_measurement_reflns_used     ?
_cell_measurement_theta_min       ?
_cell_measurement_theta_max       ?
 
_exptl_crystal_description        ?
_exptl_crystal_colour             ?
_exptl_crystal_density_meas       ?
_exptl_crystal_density_method     ?
_exptl_crystal_density_diffrn     1.755          
_exptl_crystal_F_000              1564
_exptl_transmission_factor_min    ?
_exptl_transmission_factor_max    ?
_exptl_crystal_size_max           ?
_exptl_crystal_size_mid           ?
_exptl_crystal_size_min           ?
_exptl_absorpt_coefficient_mu     0.807
_shelx_estimated_absorpt_T_min    ?
_shelx_estimated_absorpt_T_max    ?
_exptl_absorpt_correction_type    ?
_exptl_absorpt_correction_T_min   ?
_exptl_absorpt_correction_T_max   ?
_exptl_absorpt_process_details    ?
_exptl_absorpt_special_details    ?
_diffrn_ambient_temperature       140(2)
_diffrn_radiation_wavelength      0.71073
_diffrn_radiation_type            MoK\a
_diffrn_source                    ?
_diffrn_measurement_device_type   ?
_diffrn_measurement_method        ?
_diffrn_detector_area_resol_mean  ?
_diffrn_reflns_number             23107
_diffrn_reflns_av_unetI/netI      0.0248
_diffrn_reflns_av_R_equivalents   0.0230
_diffrn_reflns_limit_h_min        -26
_diffrn_reflns_limit_h_max        26
_diffrn_reflns_limit_k_min        -5
_diffrn_reflns_limit_k_max        7
_diffrn_reflns_limit_l_min        -29
_diffrn_reflns_limit_l_max        36
_diffrn_reflns_theta_min          2.202
_diffrn_reflns_theta_max          29.124
_diffrn_reflns_theta_full         25.242
_diffrn_measured_fraction_theta_max   0.872
_diffrn_measured_fraction_theta_full  0.999
_diffrn_reflns_Laue_measured_fraction_max    0.872
_diffrn_reflns_Laue_measured_fraction_full   0.999
_diffrn_reflns_point_group_measured_fraction_max   0.872
_diffrn_reflns_point_group_measured_fraction_full  0.999
_reflns_number_total              6831
_reflns_number_gt                 5914
_reflns_threshold_expression      'I > 2\s(I)'
_reflns_Friedel_coverage          0.000
_reflns_Friedel_fraction_max      .
_reflns_Friedel_fraction_full     .
 
_reflns_special_details
;
 Reflections were merged by SHELXL according to the crystal
 class for the calculation of statistics and refinement.
 
 _reflns_Friedel_fraction is defined as the number of unique
 Friedel pairs measured divided by the number that would be
 possible theoretically, ignoring centric projections and
 systematic absences.
;
 
_computing_data_collection        ?
_computing_cell_refinement        ?
_computing_data_reduction         ?
_computing_structure_solution     'SHELXT 2018/2 (Sheldrick, 2018)'
_computing_structure_refinement 'SHELXL-2018/3 (Sheldrick, 2018)'
_computing_molecular_graphics     ?
_computing_publication_material   ?
_refine_special_details           ?
_refine_ls_structure_factor_coef  Fsqd
_refine_ls_matrix_type            full
_refine_ls_weighting_scheme       calc
_refine_ls_weighting_details
'w=1/[\s^2^(Fo^2^)+(0.0362P)^2^+2.0059P] where P=(Fo^2^+2Fc^2^)/3'
_atom_sites_solution_primary      ?
_atom_sites_solution_secondary    ?
_atom_sites_solution_hydrogens    mixed
_refine_ls_hydrogen_treatment     mixed
_refine_ls_extinction_method      none
_refine_ls_extinction_coef        .
_refine_ls_number_reflns          6831
_refine_ls_number_parameters      664
_refine_ls_number_restraints      4
_refine_ls_R_factor_all           0.0446
_refine_ls_R_factor_gt            0.0358
_refine_ls_wR_factor_ref          0.0875
_refine_ls_wR_factor_gt           0.0833
_refine_ls_goodness_of_fit_ref    1.089
_refine_ls_restrained_S_all       1.088
_refine_ls_shift/su_max           0.002
_refine_ls_shift/su_mean          0.000
 
loop_
 _atom_site_label
 _atom_site_type_symbol
 _atom_site_fract_x
 _atom_site_fract_y
 _atom_site_fract_z
 _atom_site_U_iso_or_equiv
 _atom_site_adp_type
 _atom_site_occupancy
 _atom_site_site_symmetry_order  
 _atom_site_calc_flag
 _atom_site_refinement_flags_posn
 _atom_site_refinement_flags_adp
 _atom_site_refinement_flags_occupancy
 _atom_site_disorder_assembly
 _atom_site_disorder_group
Co1 Co 0.50966(2) 0.78221(4) 0.74803(2) 0.01574(8) Uani 1 1 d . . . . .
O4 O 0.250000 1.0742(3) 0.750000 0.0168(4) Uani 1 2 d S T P . .
O5 O 0.40906(6) 0.9023(2) 0.72285(5) 0.0213(3) Uani 1 1 d . . . . .
O6 O 0.49448(7) 0.4381(3) 0.73935(7) 0.0344(4) Uani 1 1 d . . . . .
H6A H 0.4600(16) 0.4014(15) 0.7479(10) 0.052 Uiso 1 1 calc R U . . .
H1 H 0.5253(15) 0.370(5) 0.7510(11) 0.052 Uiso 1 1 d . U . . .
O7 O 0.37632(7) 1.2500(2) 0.74239(7) 0.0348(4) Uani 1 1 d . . . . .
N1 N 0.50235(8) 0.7836(3) 0.82374(6) 0.0249(4) Uani 1 1 d . . . . .
N2 N 0.36229(9) 0.5355(3) 1.08928(6) 0.0290(4) Uani 1 1 d . . . . .
N3 N 0.30975(9) 0.1974(3) 0.94015(6) 0.0270(4) Uani 1 1 d . . . . .
N4 N 0.63895(9) 0.3266(3) 0.61686(6) 0.0278(4) Uani 1 1 d . . . . .
N6 N 0.63784(9) 0.5267(3) 0.40075(6) 0.0281(4) Uani 1 1 d . . . . .
N11 N 0.36349(9) 0.3319(3) 0.87344(6) 0.0293(4) Uani 1 1 d . . . . .
N12 N 0.51258(9) 0.8000(3) 0.67090(7) 0.0256(4) Uani 1 1 d . . . . .
N16 N 0.69100(9) 0.1885(3) 0.54955(6) 0.0265(4) Uani 1 1 d . . . . .
C2 C 0.28406(9) 0.7096(3) 0.74548(7) 0.0211(4) Uani 1 1 d . . . . .
H2 H 0.311316 0.578747 0.741787 0.025 Uiso 1 1 calc R U . . .
C4 C 0.61811(10) 0.4501(4) 0.57390(7) 0.0239(4) Uani 1 1 d . . . . .
C7 C 0.67341(11) 0.4157(4) 0.37429(8) 0.0282(5) Uani 1 1 d . . . . .
H1G H 0.6674(13) 0.445(5) 0.3408(10) 0.042 Uiso 1 1 d . U . . .
C9 C 0.32633(11) 0.4234(4) 1.11546(8) 0.0295(5) Uani 1 1 d . . . . .
H1B H 0.3298(13) 0.461(5) 1.1489(10) 0.044 Uiso 1 1 d . U . . .
C12 C 0.35338(10) 0.3775(4) 0.95526(7) 0.0240(4) Uani 1 1 d . . . . .
C13 C 0.38477(10) 0.4544(4) 0.91660(7) 0.0248(4) Uani 1 1 d . . . . .
C15 C 0.46159(11) 0.6509(4) 0.84299(8) 0.0286(4) Uani 1 1 d . . . . .
H1D H 0.4334(13) 0.528(5) 0.8260(9) 0.043 Uiso 1 1 d . U . . .
C16 C 0.53052(12) 0.9387(4) 0.86193(9) 0.0328(5) Uani 1 1 d . . . . .
H1C H 0.5605(14) 1.058(5) 0.8581(10) 0.049 Uiso 1 1 d . U . . .
C17 C 0.55198(12) 0.6684(4) 0.65061(8) 0.0307(5) Uani 1 1 d . . . . .
H1E H 0.5812(14) 0.553(5) 0.6671(10) 0.046 Uiso 1 1 d . U . . .
C19 C 0.64840(10) 0.3704(4) 0.53484(7) 0.0229(4) Uani 1 1 d . . . . .
C22 C 0.36752(9) 1.0392(3) 0.73591(7) 0.0176(4) Uani 1 1 d . . . . .
C23 C 0.30240(9) 0.9324(3) 0.74316(7) 0.0166(4) Uani 1 1 d . . . . .
C320 C 0.47711(14) 0.9392(4) 0.63175(9) 0.0405(6) Uani 1 1 d . . . . .
H1F H 0.4432(15) 1.052(5) 0.6341(11) 0.061 Uiso 1 1 d . U . . .
C410 C 0.7175(3) 0.2750(12) 0.4500(3) 0.0228(12) Uani 0.5 1 d . . P A 1
H410 H 0.744689 0.188723 0.479264 0.027 Uiso 0.5 1 calc R U P A 1
C310 C 0.6424(3) 0.5077(14) 0.4923(3) 0.0205(13) Uani 0.5 1 d . . P A 1
N810 N 0.6692(4) 0.4266(19) 0.4514(5) 0.0225(15) Uani 0.5 1 d . . P A 1
N5 N 0.5033(4) 0.9269(16) 0.5936(3) 0.0289(15) Uani 0.5 1 d . . P A 1
N9 N 0.7244(5) 0.2542(18) 0.4041(5) 0.0260(16) Uani 0.5 1 d . . P A 1
S110 S 0.68166(13) 0.0999(4) 0.60534(12) 0.0270(5) Uani 0.5 1 d . . P B 1
N150 N 0.5513(3) 0.7491(13) 0.6063(3) 0.0187(12) Uani 0.5 1 d . . P A 1
C510 C 0.5839(3) 0.6688(11) 0.5695(2) 0.0203(12) Uani 0.5 1 d . . P A 1
C110 C 0.5772(2) 0.7920(8) 0.52588(15) 0.0246(8) Uani 0.5 1 d . . P A 1
H110 H 0.552542 0.935277 0.521143 0.030 Uiso 0.5 1 calc R U P A 1
C610 C 0.6062(2) 0.7119(8) 0.48727(15) 0.0245(8) Uani 0.5 1 d . . P A 1
H610 H 0.600409 0.802340 0.457117 0.029 Uiso 0.5 1 calc R U P A 1
N220 N 0.7079(6) 0.234(2) 0.3947(5) 0.033(2) Uani 0.5 1 d . . P A 2
C520 C 0.6940(3) 0.2218(13) 0.4395(3) 0.0261(13) Uani 0.5 1 d . . P A 2
H520 H 0.711286 0.106248 0.465077 0.031 Uiso 0.5 1 calc R U P A 2
C140 C 0.6204(3) 0.4629(14) 0.4812(3) 0.0199(13) Uani 0.5 1 d . . P A 2
S220 S 0.70149(12) 0.1591(4) 0.60981(11) 0.0248(4) Uani 0.5 1 d . . P B 2
N150 N 0.5296(3) 0.7053(13) 0.5960(3) 0.0191(12) Uani 0.5 1 d . . P A 2
C420 C 0.5596(3) 0.6155(11) 0.5584(2) 0.0195(11) Uani 0.5 1 d . . P A 2
N320 N 0.6506(4) 0.4045(17) 0.4429(5) 0.0174(13) Uani 0.5 1 d . . P A 2
N7 N 0.4800(3) 0.8805(16) 0.5831(3) 0.0291(15) Uani 0.5 1 d . . P A 2
C120 C 0.5371(2) 0.6988(7) 0.50949(15) 0.0225(8) Uani 0.5 1 d . . P A 2
H120 H 0.499845 0.811347 0.500491 0.027 Uiso 0.5 1 calc R U P A 2
C220 C 0.5677(2) 0.6220(7) 0.47141(15) 0.0226(8) Uani 0.5 1 d . . P A 2
H220 H 0.550314 0.685488 0.437567 0.027 Uiso 0.5 1 calc R U P A 2
C530 C 0.3605(4) 0.5171(14) 0.9975(3) 0.0212(14) Uani 0.5 1 d . . P C 3
N7 N 0.3358(12) 0.418(5) 1.0382(8) 0.032(3) Uani 0.5 1 d . . P C 3
S2 S 0.30038(16) 0.1641(6) 0.88033(16) 0.0254(5) Uani 0.5 1 d . . P D 3
C130 C 0.3982(2) 0.7171(8) 1.00323(16) 0.0258(9) Uani 0.5 1 d . . P C 3
H130 H 0.404391 0.807820 1.033384 0.031 Uiso 0.5 1 calc R U P C 3
C8 C 0.2833(3) 0.2849(12) 1.0392(3) 0.0252(13) Uani 0.5 1 d . . P C 3
H8 H 0.253200 0.207967 1.009472 0.030 Uiso 0.5 1 calc R U P C 3
N10 N 0.2757(6) 0.267(3) 1.0847(4) 0.0278(18) Uani 0.5 1 d . . P C 3
N5 N 0.4570(5) 0.742(2) 0.8855(4) 0.0204(16) Uani 0.5 1 d . . P C 3
C430 C 0.4211(3) 0.6656(15) 0.9208(3) 0.0225(15) Uani 0.5 1 d . . P C 3
N8 N 0.5019(7) 0.930(3) 0.8985(6) 0.028(2) Uani 0.5 1 d . . P C 3
C230 C 0.4285(2) 0.7920(8) 0.96482(16) 0.0270(9) Uani 0.5 1 d . . P C 3
H230 H 0.454537 0.932781 0.969633 0.032 Uiso 0.5 1 calc R U P C 3
N5 N 0.3464(11) 0.429(4) 1.0476(7) 0.023(2) Uani 0.5 1 d . . P C 4
C340 C 0.3797(4) 0.4696(13) 1.0089(3) 0.0177(13) Uani 0.5 1 d . . P C 4
S1 S 0.31843(17) 0.1124(7) 0.88384(17) 0.0301(6) Uani 0.5 1 d . . P D 4
N14 N 0.2927(6) 0.234(3) 1.0957(4) 0.030(2) Uani 0.5 1 d . . P C 4
C10 C 0.3072(3) 0.2282(12) 1.0507(2) 0.0264(13) Uani 0.5 1 d . . P C 4
H10 H 0.293546 0.110012 1.025424 0.032 Uiso 0.5 1 calc R U P C 4
N13 N 0.4743(5) 0.707(2) 0.8955(4) 0.0204(16) Uani 0.5 1 d . . P C 4
C540 C 0.4428(3) 0.6229(14) 0.9328(3) 0.0197(13) Uani 0.5 1 d . . P C 4
N9 N 0.5191(6) 0.894(3) 0.9082(5) 0.0259(19) Uani 0.5 1 d . . P C 4
C140 C 0.4324(2) 0.6325(8) 1.01904(16) 0.0232(8) Uani 0.5 1 d . . P C 4
H140 H 0.448457 0.699092 1.052616 0.028 Uiso 0.5 1 calc R U P C 4
C240 C 0.4642(2) 0.7063(8) 0.98151(16) 0.0238(8) Uani 0.5 1 d . . P C 4
H240 H 0.501615 0.818010 0.990865 0.029 Uiso 0.5 1 calc R U P C 4
O1 O 0.750000 0.9141(3) 0.750000 0.0205(4) Uani 1 2 d S T P . .
O3 O 0.58327(6) 1.0782(2) 0.76811(6) 0.0237(3) Uani 1 1 d . . . . .
O8 O 0.62723(6) 0.7345(2) 0.76430(5) 0.0209(3) Uani 1 1 d . . . . .
C1 C 0.71626(9) 1.2795(3) 0.75477(7) 0.0164(3) Uani 1 1 d . . . . .
H1A H 0.688948 1.410220 0.758438 0.020 Uiso 1 1 calc R U . . .
C6 C 0.63355(9) 0.9483(3) 0.76458(7) 0.0184(4) Uani 1 1 d . . . . .
C26 C 0.69840(9) 1.0563(3) 0.75763(7) 0.0170(4) Uani 1 1 d . . . . .
 
loop_
 _atom_site_aniso_label
 _atom_site_aniso_U_11
 _atom_site_aniso_U_22
 _atom_site_aniso_U_33
 _atom_site_aniso_U_23
 _atom_site_aniso_U_13
 _atom_site_aniso_U_12
Co1 0.01269(12) 0.01288(12) 0.02546(14) 0.00176(10) 0.01145(10) 0.00058(9)
O4 0.0109(8) 0.0151(9) 0.0279(9) 0.000 0.0112(7) 0.000
O5 0.0138(6) 0.0250(7) 0.0288(7) -0.0003(6) 0.0121(5) 0.0045(5)
O6 0.0137(7) 0.0145(7) 0.0749(12) 0.0084(7) 0.0137(7) 0.0021(5)
O7 0.0234(7) 0.0180(8) 0.0734(11) -0.0046(7) 0.0304(7) -0.0028(6)
N1 0.0194(8) 0.0312(9) 0.0280(8) 0.0010(7) 0.0131(7) -0.0035(7)
N2 0.0314(9) 0.0359(10) 0.0210(8) -0.0009(8) 0.0099(7) -0.0039(8)
N3 0.0256(8) 0.0387(10) 0.0175(8) -0.0006(7) 0.0080(7) -0.0093(7)
N4 0.0287(9) 0.0364(10) 0.0197(8) 0.0017(7) 0.0096(7) 0.0141(8)
N6 0.0318(9) 0.0340(10) 0.0201(8) 0.0034(7) 0.0106(7) 0.0049(8)
N11 0.0276(9) 0.0409(11) 0.0208(8) 0.0008(8) 0.0096(7) -0.0118(8)
N12 0.0266(8) 0.0264(9) 0.0303(9) 0.0052(7) 0.0184(7) 0.0082(7)
N16 0.0279(9) 0.0347(10) 0.0178(8) 0.0010(7) 0.0085(7) 0.0114(7)
C2 0.0219(9) 0.0181(9) 0.0289(10) 0.0010(8) 0.0159(8) 0.0028(7)
C4 0.0256(9) 0.0290(11) 0.0217(9) 0.0036(8) 0.0138(8) 0.0062(8)
C7 0.0310(11) 0.0368(12) 0.0193(9) -0.0008(9) 0.0116(9) 0.0016(9)
C9 0.0299(11) 0.0386(13) 0.0224(10) 0.0021(9) 0.0118(9) 0.0012(9)
C12 0.0202(9) 0.0305(11) 0.0248(9) -0.0004(8) 0.0119(8) -0.0030(8)
C13 0.0222(9) 0.0314(11) 0.0246(9) -0.0023(8) 0.0127(8) -0.0038(8)
C15 0.0279(10) 0.0345(12) 0.0298(11) -0.0049(9) 0.0184(9) -0.0082(9)
C16 0.0334(11) 0.0359(12) 0.0362(12) -0.0064(10) 0.0211(10) -0.0143(10)
C17 0.0375(12) 0.0320(12) 0.0314(11) 0.0095(9) 0.0237(9) 0.0151(9)
C19 0.0217(9) 0.0278(10) 0.0222(9) 0.0014(8) 0.0111(7) 0.0050(8)
C22 0.0126(8) 0.0201(9) 0.0222(9) 0.0012(7) 0.0085(7) 0.0020(7)
C23 0.0131(8) 0.0181(9) 0.0218(8) 0.0006(7) 0.0102(7) 0.0039(7)
C320 0.0507(14) 0.0425(14) 0.0407(13) 0.0174(11) 0.0321(11) 0.0275(11)
C410 0.018(3) 0.031(3) 0.021(3) -0.001(2) 0.009(2) 0.003(2)
C310 0.013(3) 0.035(4) 0.012(3) -0.004(2) 0.003(2) 0.004(2)
N810 0.011(4) 0.042(3) 0.013(4) 0.007(2) 0.002(3) 0.004(2)
N5 0.029(4) 0.039(4) 0.021(3) 0.007(2) 0.011(3) 0.019(3)
N9 0.023(4) 0.034(3) 0.022(5) 0.004(3) 0.007(3) 0.011(2)
S110 0.0336(12) 0.0312(12) 0.0201(8) 0.0046(8) 0.0141(9) 0.0114(7)
N150 0.013(3) 0.026(3) 0.018(3) 0.000(2) 0.004(2) 0.006(2)
C510 0.020(3) 0.026(3) 0.015(3) -0.001(2) 0.008(2) 0.003(2)
C110 0.023(2) 0.030(2) 0.0222(19) -0.0007(18) 0.0082(16) 0.0064(18)
C610 0.024(2) 0.036(2) 0.0163(18) 0.0039(17) 0.0097(16) 0.0037(19)
N220 0.022(4) 0.065(4) 0.012(4) -0.001(3) 0.007(3) 0.009(3)
C520 0.023(4) 0.037(4) 0.019(3) 0.004(2) 0.009(3) 0.009(3)
C140 0.016(3) 0.031(3) 0.011(3) -0.001(2) 0.001(2) 0.000(2)
S220 0.0270(11) 0.0327(12) 0.0168(7) 0.0038(8) 0.0097(8) 0.0130(7)
N150 0.015(3) 0.026(3) 0.017(3) 0.001(2) 0.007(2) 0.004(2)
C420 0.017(3) 0.023(3) 0.020(3) -0.004(2) 0.009(2) 0.000(2)
N320 0.007(4) 0.030(3) 0.014(4) 0.004(2) 0.002(3) 0.009(2)
N7 0.027(4) 0.037(4) 0.028(4) 0.008(3) 0.016(3) 0.018(3)
C120 0.0208(19) 0.025(2) 0.0226(19) 0.0004(16) 0.0078(16) 0.0045(17)
C220 0.022(2) 0.028(2) 0.0185(18) 0.0040(17) 0.0073(16) 0.0034(18)
C530 0.016(4) 0.029(4) 0.018(3) 0.008(2) 0.005(3) 0.004(2)
N7 0.038(7) 0.046(4) 0.014(6) -0.023(4) 0.010(5) -0.018(5)
S2 0.0233(12) 0.0373(15) 0.0171(7) -0.0021(9) 0.0084(9) -0.0117(8)
C130 0.025(2) 0.035(2) 0.019(2) -0.0025(18) 0.0103(17) -0.002(2)
C8 0.018(3) 0.034(3) 0.025(3) 0.004(2) 0.009(2) -0.002(2)
N10 0.028(5) 0.037(4) 0.019(5) 0.003(3) 0.008(3) -0.002(3)
N5 0.012(4) 0.029(4) 0.020(4) 0.004(3) 0.004(3) -0.005(3)
C430 0.015(3) 0.040(4) 0.012(3) -0.001(2) 0.004(2) -0.003(3)
N8 0.024(5) 0.037(5) 0.022(4) -0.002(3) 0.005(3) -0.010(3)
C230 0.024(2) 0.033(2) 0.024(2) 0.0003(19) 0.0083(18) -0.008(2)
N5 0.023(4) 0.037(4) 0.014(6) -0.014(5) 0.012(5) -0.024(3)
C340 0.018(4) 0.025(3) 0.010(3) 0.005(2) 0.003(2) 0.000(2)
S1 0.0316(15) 0.0417(16) 0.0208(9) -0.0054(10) 0.0138(11) -0.0144(9)
N14 0.024(5) 0.054(6) 0.013(4) 0.002(3) 0.006(3) -0.011(4)
C10 0.022(3) 0.037(4) 0.021(3) -0.002(2) 0.008(2) -0.008(2)
N13 0.017(4) 0.029(4) 0.016(4) 0.000(3) 0.007(3) -0.003(3)
C540 0.012(3) 0.031(3) 0.018(3) 0.002(2) 0.008(3) -0.006(2)
N9 0.024(5) 0.032(4) 0.027(5) -0.001(3) 0.015(4) -0.010(4)
C140 0.023(2) 0.031(2) 0.0174(19) -0.0011(17) 0.0091(17) -0.0028(18)
C240 0.021(2) 0.027(2) 0.023(2) 0.0006(17) 0.0084(17) -0.0047(18)
O1 0.0115(8) 0.0149(9) 0.0395(11) 0.000 0.0141(8) 0.000
O3 0.0158(6) 0.0177(7) 0.0436(8) 0.0019(6) 0.0182(6) 0.0023(5)
O8 0.0150(6) 0.0157(7) 0.0361(7) 0.0038(6) 0.0138(5) 0.0011(5)
C1 0.0140(8) 0.0155(9) 0.0214(8) -0.0002(7) 0.0078(7) 0.0016(6)
C6 0.0126(8) 0.0190(9) 0.0264(9) 0.0027(7) 0.0102(7) 0.0019(7)
C26 0.0117(8) 0.0189(9) 0.0227(9) 0.0001(7) 0.0088(7) 0.0028(7)
 
_geom_special_details
;
 All esds (except the esd in the dihedral angle between two l.s. planes)
 are estimated using the full covariance matrix.  The cell esds are taken
 into account individually in the estimation of esds in distances, angles
 and torsion angles; correlations between esds in cell parameters are only
 used when they are defined by crystal symmetry.  An approximate (isotropic)
 treatment of cell esds is used for estimating esds involving l.s. planes.
;
 
loop_
 _geom_bond_atom_site_label_1
 _geom_bond_atom_site_label_2
 _geom_bond_distance
 _geom_bond_site_symmetry_2
 _geom_bond_publ_flag
Co1 O5 1.9890(12) . ?
Co1 O6 2.0254(15) . ?
Co1 N1 2.1044(16) . ?
Co1 N12 2.1154(16) . ?
Co1 O3 2.1966(13) . ?
Co1 O8 2.2081(12) . ?
Co1 C6 2.5043(17) . ?
O4 C23 1.3678(19) . ?
O4 C23 1.3678(19) 2_556 ?
O5 C22 1.261(2) . ?
O6 H6A 0.80(3) . ?
O6 H1 0.71(3) . ?
O7 C22 1.242(2) . ?
N1 C15 1.324(3) . ?
N1 C16 1.356(3) . ?
N2 N5 1.24(2) . ?
N2 C9 1.314(3) . ?
N2 N7 1.49(2) . ?
N3 C12 1.330(3) . ?
N3 S2 1.589(4) . ?
N3 S1 1.665(4) . ?
N4 C4 1.322(3) . ?
N4 S220 1.616(3) . ?
N4 S110 1.639(3) . ?
N6 N320 1.304(12) . ?
N6 C7 1.312(3) . ?
N6 N810 1.443(12) . ?
N11 C13 1.323(3) . ?
N11 S1 1.622(5) . ?
N11 S2 1.624(4) . ?
N12 C17 1.319(3) . ?
N12 C320 1.344(3) . ?
N16 C19 1.326(3) . ?
N16 S220 1.594(3) . ?
N16 S110 1.663(3) . ?
C2 C23 1.350(3) . ?
C2 C2 1.421(3) 2_556 ?
C2 H2 0.9500 . ?
C4 C510 1.423(7) . ?
C4 C19 1.440(3) . ?
C4 C420 1.449(6) . ?
C7 N220 1.283(15) . ?
C7 N9 1.423(13) . ?
C7 C520 2.031(8) . ?
C7 H1G 0.90(3) . ?
C9 N14 1.308(17) . ?
C9 N10 1.410(15) . ?
C9 C10 2.027(7) . ?
C9 H1B 0.92(3) . ?
C12 C530 1.376(9) . ?
C12 C13 1.440(3) . ?
C12 C340 1.485(8) . ?
C13 C430 1.404(10) . ?
C13 C540 1.456(8) . ?
C15 N5 1.298(13) . ?
C15 N13 1.409(12) . ?
C15 H1D 0.93(3) . ?
C16 N8 1.282(17) . ?
C16 N9 1.367(15) . ?
C16 H1C 0.93(3) . ?
C17 N150 1.288(8) . ?
C17 N150 1.426(7) . ?
C17 H1E 0.90(3) . ?
C19 C310 1.379(8) . ?
C19 C140 1.488(7) . ?
C22 C23 1.478(2) . ?
C320 N5 1.292(9) . ?
C320 N7 1.383(9) . ?
C320 H1F 0.95(3) . ?
C410 N810 1.296(16) . ?
C410 N9 1.300(17) . ?
C410 H410 0.9500 . ?
C310 C610 1.365(9) . ?
C310 N810 1.446(16) . ?
N5 N150 1.364(13) . ?
N150 C510 1.419(10) . ?
C510 C110 1.355(7) . ?
C110 C610 1.415(5) . ?
C110 H110 0.9500 . ?
C610 H610 0.9500 . ?
N220 C520 1.327(17) . ?
C520 N320 1.378(15) . ?
C520 H520 0.9500 . ?
C140 C220 1.345(9) . ?
C140 N320 1.386(16) . ?
N150 N7 1.373(13) . ?
N150 C420 1.424(10) . ?
C420 C120 1.352(7) . ?
C120 C220 1.416(5) . ?
C120 H120 0.9500 . ?
C220 H220 0.9500 . ?
C530 C130 1.358(10) . ?
C530 N7 1.46(2) . ?
N7 C8 1.29(2) . ?
C130 C230 1.416(6) . ?
C130 H130 0.9500 . ?
C8 N10 1.292(15) . ?
C8 H8 0.9500 . ?
N5 N8 1.37(2) . ?
N5 C430 1.421(15) . ?
C430 C230 1.372(9) . ?
C230 H230 0.9500 . ?
N5 C10 1.41(2) . ?
N5 C340 1.416(19) . ?
C340 C140 1.359(10) . ?
N14 C10 1.336(16) . ?
C10 H10 0.9500 . ?
N13 N9 1.37(2) . ?
N13 C540 1.421(15) . ?
C540 C240 1.349(9) . ?
C140 C240 1.412(5) . ?
C140 H140 0.9500 . ?
C240 H240 0.9500 . ?
O1 C26 1.3650(19) . ?
O1 C26 1.365(2) 2_656 ?
O3 C6 1.263(2) . ?
O8 C6 1.249(2) . ?
C1 C26 1.352(3) . ?
C1 C1 1.415(3) 2_656 ?
C1 H1A 0.9500 . ?
C6 C26 1.473(2) . ?
 
loop_
 _geom_angle_atom_site_label_1
 _geom_angle_atom_site_label_2
 _geom_angle_atom_site_label_3
 _geom_angle
 _geom_angle_site_symmetry_1
 _geom_angle_site_symmetry_3
 _geom_angle_publ_flag
O5 Co1 O6 102.38(6) . . ?
O5 Co1 N1 88.70(6) . . ?
O6 Co1 N1 93.77(7) . . ?
O5 Co1 N12 88.16(6) . . ?
O6 Co1 N12 88.91(7) . . ?
N1 Co1 N12 176.25(7) . . ?
O5 Co1 O3 107.85(5) . . ?
O6 Co1 O3 149.67(5) . . ?
N1 Co1 O3 89.47(6) . . ?
N12 Co1 O3 89.54(6) . . ?
O5 Co1 O8 163.87(5) . . ?
O6 Co1 O8 90.22(5) . . ?
N1 Co1 O8 100.62(6) . . ?
N12 Co1 O8 81.98(6) . . ?
O3 Co1 O8 59.58(5) . . ?
O5 Co1 C6 135.72(6) . . ?
O6 Co1 C6 119.96(6) . . ?
N1 Co1 C6 100.13(6) . . ?
N12 Co1 C6 80.74(6) . . ?
O3 Co1 C6 30.27(5) . . ?
O8 Co1 C6 29.90(5) . . ?
C23 O4 C23 105.84(19) . 2_556 ?
C22 O5 Co1 140.63(12) . . ?
Co1 O6 H6A 109.5 . . ?
Co1 O6 H1 115(3) . . ?
H6A O6 H1 112.9 . . ?
C15 N1 C16 103.59(17) . . ?
C15 N1 Co1 127.85(14) . . ?
C16 N1 Co1 128.05(14) . . ?
N5 N2 C9 102.8(8) . . ?
C9 N2 N7 100.8(9) . . ?
C12 N3 S2 105.8(2) . . ?
C12 N3 S1 106.3(2) . . ?
C4 N4 S220 105.02(16) . . ?
C4 N4 S110 107.65(17) . . ?
N320 N6 C7 102.9(6) . . ?
C7 N6 N810 100.6(6) . . ?
C13 N11 S1 107.9(2) . . ?
C13 N11 S2 105.2(2) . . ?
C17 N12 C320 103.98(17) . . ?
C17 N12 Co1 125.64(14) . . ?
C320 N12 Co1 130.38(14) . . ?
C19 N16 S220 105.31(16) . . ?
C19 N16 S110 106.68(16) . . ?
C23 C2 C2 106.38(10) . 2_556 ?
C23 C2 H2 126.8 . . ?
C2 C2 H2 126.8 2_556 . ?
N4 C4 C510 124.6(3) . . ?
N4 C4 C19 113.06(17) . . ?
C510 C4 C19 120.8(3) . . ?
N4 C4 C420 128.0(3) . . ?
C19 C4 C420 117.6(3) . . ?
N220 C7 N6 117.6(7) . . ?
N6 C7 N9 113.9(6) . . ?
N220 C7 C520 39.7(7) . . ?
N6 C7 C520 77.9(2) . . ?
N220 C7 H1G 118.8(18) . . ?
N6 C7 H1G 122.5(17) . . ?
N9 C7 H1G 123.5(18) . . ?
C520 C7 H1G 156.7(18) . . ?
N14 C9 N2 118.6(6) . . ?
N2 C9 N10 113.0(6) . . ?
N14 C9 C10 40.5(7) . . ?
N2 C9 C10 78.1(2) . . ?
N14 C9 H1B 118.8(18) . . ?
N2 C9 H1B 122.0(17) . . ?
N10 C9 H1B 124.5(18) . . ?
C10 C9 H1B 158.6(18) . . ?
N3 C12 C530 127.7(4) . . ?
N3 C12 C13 113.20(17) . . ?
C530 C12 C13 117.9(4) . . ?
N3 C12 C340 125.4(4) . . ?
C13 C12 C340 120.5(4) . . ?
N11 C13 C430 123.7(4) . . ?
N11 C13 C12 113.06(18) . . ?
C430 C13 C12 121.9(4) . . ?
N11 C13 C540 129.0(3) . . ?
C12 C13 C540 117.0(3) . . ?
N5 C15 N1 109.1(6) . . ?
N1 C15 N13 109.1(6) . . ?
N5 C15 H1D 124.2(16) . . ?
N1 C15 H1D 125.7(15) . . ?
N13 C15 H1D 124.8(16) . . ?
N8 C16 N1 113.4(8) . . ?
N1 C16 N9 115.8(8) . . ?
N8 C16 H1C 123.7(19) . . ?
N1 C16 H1C 121.8(16) . . ?
N9 C16 H1C 122.0(18) . . ?
N150 C17 N12 109.9(4) . . ?
N12 C17 N150 108.5(4) . . ?
N150 C17 H1E 123.8(17) . . ?
N12 C17 H1E 125.6(16) . . ?
N150 C17 H1E 124.7(17) . . ?
N16 C19 C310 126.7(4) . . ?
N16 C19 C4 113.25(17) . . ?
C310 C19 C4 118.8(4) . . ?
N16 C19 C140 126.0(3) . . ?
C4 C19 C140 119.7(3) . . ?
O7 C22 O5 126.18(17) . . ?
O7 C22 C23 118.81(16) . . ?
O5 C22 C23 115.00(16) . . ?
C2 C23 O4 110.70(15) . . ?
C2 C23 C22 131.23(16) . . ?
O4 C23 C22 118.05(16) . . ?
N5 C320 N12 111.6(4) . . ?
N12 C320 N7 116.4(4) . . ?
N5 C320 H1F 123.3(18) . . ?
N12 C320 H1F 124.2(18) . . ?
N7 C320 H1F 118.0(18) . . ?
N810 C410 N9 112.5(10) . . ?
N810 C410 H410 123.8 . . ?
N9 C410 H410 123.8 . . ?
C610 C310 C19 119.7(6) . . ?
C610 C310 N810 120.3(7) . . ?
C19 C310 N810 119.8(7) . . ?
C410 N810 N6 110.1(10) . . ?
C410 N810 C310 133.0(10) . . ?
N6 N810 C310 117.0(9) . . ?
C320 N5 N150 104.3(7) . . ?
C410 N9 C7 102.9(10) . . ?
N4 S110 N16 97.45(17) . . ?
C17 N150 N5 108.7(7) . . ?
C17 N150 C510 131.4(6) . . ?
N5 N150 C510 119.4(7) . . ?
C110 C510 N150 119.9(6) . . ?
C110 C510 C4 117.5(5) . . ?
N150 C510 C4 122.3(5) . . ?
C510 C110 C610 121.4(4) . . ?
C510 C110 H110 119.3 . . ?
C610 C110 H110 119.3 . . ?
C310 C610 C110 121.5(5) . . ?
C310 C610 H610 119.2 . . ?
C110 C610 H610 119.2 . . ?
C7 N220 C520 102.2(12) . . ?
N220 C520 N320 108.9(10) . . ?
N220 C520 C7 38.1(7) . . ?
N320 C520 C7 70.8(6) . . ?
N220 C520 H520 125.5 . . ?
N320 C520 H520 125.5 . . ?
C7 C520 H520 163.7 . . ?
C220 C140 N320 119.6(7) . . ?
C220 C140 C19 117.9(6) . . ?
N320 C140 C19 122.3(7) . . ?
N16 S220 N4 101.26(18) . . ?
N7 N150 C420 120.0(7) . . ?
N7 N150 C17 110.0(6) . . ?
C420 N150 C17 129.1(6) . . ?
C120 C420 N150 119.6(6) . . ?
C120 C420 C4 120.6(5) . . ?
N150 C420 C4 119.6(5) . . ?
N6 N320 C520 108.3(10) . . ?
N6 N320 C140 121.1(9) . . ?
C520 N320 C140 130.6(10) . . ?
N150 N7 C320 99.9(6) . . ?
C420 C120 C220 121.5(4) . . ?
C420 C120 H120 119.3 . . ?
C220 C120 H120 119.3 . . ?
C140 C220 C120 122.7(4) . . ?
C140 C220 H220 118.7 . . ?
C120 C220 H220 118.7 . . ?
C130 C530 C12 120.8(7) . . ?
C130 C530 N7 123.1(11) . . ?
C12 C530 N7 115.3(12) . . ?
C8 N7 C530 134.8(16) . . ?
C8 N7 N2 107.7(15) . . ?
C530 N7 N2 115.2(15) . . ?
N3 S2 N11 101.1(2) . . ?
C530 C130 C230 120.8(5) . . ?
C530 C130 H130 119.6 . . ?
C230 C130 H130 119.6 . . ?
N7 C8 N10 113.3(12) . . ?
N7 C8 H8 123.4 . . ?
N10 C8 H8 123.4 . . ?
C8 N10 C9 104.4(11) . . ?
C15 N5 N8 109.9(12) . . ?
C15 N5 C430 131.0(11) . . ?
N8 N5 C430 118.7(12) . . ?
C230 C430 C13 117.0(6) . . ?
C230 C430 N5 118.7(9) . . ?
C13 C430 N5 124.0(8) . . ?
C16 N8 N5 103.0(13) . . ?
C430 C230 C130 121.5(5) . . ?
C430 C230 H230 119.3 . . ?
C130 C230 H230 119.3 . . ?
N2 N5 C10 110.1(12) . . ?
N2 N5 C340 123.4(14) . . ?
C10 N5 C340 124.4(17) . . ?
C140 C340 N5 117.1(10) . . ?
C140 C340 C12 117.4(6) . . ?
N5 C340 C12 124.6(10) . . ?
N11 S1 N3 98.1(2) . . ?
C9 N14 C10 100.1(11) . . ?
N14 C10 N5 107.8(12) . . ?
N14 C10 C9 39.4(8) . . ?
N5 C10 C9 68.4(8) . . ?
N14 C10 H10 126.1 . . ?
N5 C10 H10 126.1 . . ?
C9 C10 H10 165.4 . . ?
N9 N13 C15 109.7(11) . . ?
N9 N13 C540 118.4(11) . . ?
C15 N13 C540 131.4(10) . . ?
C240 C540 N13 120.3(8) . . ?
C240 C540 C13 120.8(6) . . ?
N13 C540 C13 118.8(7) . . ?
C16 N9 N13 101.0(11) . . ?
C340 C140 C240 122.4(5) . . ?
C340 C140 H140 118.8 . . ?
C240 C140 H140 118.8 . . ?
C540 C240 C140 121.9(5) . . ?
C540 C240 H240 119.0 . . ?
C140 C240 H240 119.0 . . ?
C26 O1 C26 105.4(2) . 2_656 ?
C6 O3 Co1 88.47(11) . . ?
C6 O8 Co1 88.29(10) . . ?
C26 C1 C1 106.26(10) . 2_656 ?
C26 C1 H1A 126.9 . . ?
C1 C1 H1A 126.9 2_656 . ?
O8 C6 O3 121.22(16) . . ?
O8 C6 C26 120.68(16) . . ?
O3 C6 C26 117.99(17) . . ?
O8 C6 Co1 61.80(9) . . ?
O3 C6 Co1 61.26(9) . . ?
C26 C6 Co1 163.02(13) . . ?
C1 C26 O1 111.03(15) . . ?
C1 C26 C6 131.46(16) . . ?
O1 C26 C6 117.42(16) . . ?
 
_refine_diff_density_max    0.642
_refine_diff_density_min   -0.473
_refine_diff_density_rms    0.057

_shelx_res_file
;
TITL pvl671_auto_a.res in P2/n
    pvl671.res
    created by SHELXL-2018/3 at 16:22:30 on 27-Sep-2021
REM Old TITL pvl671_auto in P2/n
REM SHELXT solution in P2/n: R1 0.187, Rweak 0.019, Alpha 0.048
REM <I/s>   1.551 for  613 systematic absences,  Orientation as input
REM Formula found by SHELXT:  C36 N8 O6 S2 Co
CELL  0.71073  19.4530   5.8144  27.1562   90.000  108.054   90.000
ZERR    5.000   0.0007   0.0002   0.0010    0.000    0.004    0.000
LATT  1
SYMM 1/2-X, Y, 1/2-Z
SFAC C H N O S CO
UNIT 104 64 64 24 8 4
TEMP -133
L.S. 10

BOND $H
LIST 4

FMAP 2
PLAN 20

FLAT 0.01 N320 C520 N220 C7 N6
FLAT 0.01 N810 C410 N9 C7 N6

ACTA

WGHT    0.036200    2.005900
FVAR       0.20414
CO1   6    0.509664    0.782213    0.748026    11.00000    0.01269    0.01288 =
         0.02546    0.00176    0.01145    0.00058
O4    4    0.250000    1.074203    0.750000    10.50000    0.01093    0.01511 =
         0.02792    0.00000    0.01119    0.00000
O5    4    0.409056    0.902340    0.722852    11.00000    0.01377    0.02503 =
         0.02876   -0.00030    0.01213    0.00447
O6    4    0.494479    0.438130    0.739353    11.00000    0.01375    0.01449 =
         0.07487    0.00844    0.01366    0.00206
AFIX 148
H6A   2    0.460012    0.401449    0.747901    11.00000   -1.50000
AFIX   0
H1    2    0.525259    0.370005    0.751029    11.00000   -1.50000
O7    4    0.376317    1.250013    0.742385    11.00000    0.02343    0.01798 =
         0.07343   -0.00461    0.03044   -0.00281
N1    3    0.502353    0.783556    0.823736    11.00000    0.01937    0.03124 =
         0.02804    0.00097    0.01315   -0.00345
N2    3    0.362293    0.535452    1.089280    11.00000    0.03135    0.03587 =
         0.02097   -0.00094    0.00987   -0.00385
N3    3    0.309748    0.197410    0.940152    11.00000    0.02561    0.03874 =
         0.01754   -0.00063    0.00796   -0.00935
N4    3    0.638955    0.326637    0.616861    11.00000    0.02870    0.03644 =
         0.01967    0.00168    0.00955    0.01412
N6    3    0.637840    0.526720    0.400751    11.00000    0.03184    0.03400 =
         0.02014    0.00335    0.01064    0.00492
N11   3    0.363494    0.331946    0.873440    11.00000    0.02757    0.04088 =
         0.02081    0.00080    0.00956   -0.01183
N12   3    0.512584    0.800032    0.670897    11.00000    0.02656    0.02638 =
         0.03028    0.00522    0.01837    0.00823
N16   3    0.690995    0.188549    0.549550    11.00000    0.02790    0.03465 =
         0.01783    0.00102    0.00845    0.01140
C2    1    0.284064    0.709558    0.745477    11.00000    0.02191    0.01812 =
         0.02889    0.00099    0.01589    0.00276
AFIX  43
H2    2    0.311316    0.578747    0.741787    11.00000   -1.20000
AFIX   0
C4    1    0.618114    0.450078    0.573901    11.00000    0.02557    0.02900 =
         0.02171    0.00357    0.01380    0.00621
C7    1    0.673406    0.415685    0.374289    11.00000    0.03103    0.03676 =
         0.01934   -0.00079    0.01160    0.00159
H1G   2    0.667444    0.445036    0.340850    11.00000   -1.50000
C9    1    0.326334    0.423444    1.115456    11.00000    0.02990    0.03860 =
         0.02245    0.00206    0.01184    0.00119
H1B   2    0.329780    0.461316    1.148898    11.00000   -1.50000
C12   1    0.353375    0.377463    0.955262    11.00000    0.02022    0.03047 =
         0.02482   -0.00038    0.01192   -0.00305
C13   1    0.384773    0.454400    0.916596    11.00000    0.02216    0.03145 =
         0.02459   -0.00234    0.01274   -0.00377
C15   1    0.461590    0.650937    0.842989    11.00000    0.02791    0.03448 =
         0.02984   -0.00490    0.01841   -0.00821
H1D   2    0.433444    0.527909    0.826023    11.00000   -1.50000
C16   1    0.530517    0.938747    0.861931    11.00000    0.03339    0.03588 =
         0.03620   -0.00638    0.02106   -0.01431
H1C   2    0.560503    1.057800    0.858071    11.00000   -1.50000
C17   1    0.551976    0.668357    0.650611    11.00000    0.03747    0.03202 =
         0.03142    0.00949    0.02366    0.01514
H1E   2    0.581172    0.552751    0.667092    11.00000   -1.50000
C19   1    0.648403    0.370359    0.534844    11.00000    0.02170    0.02777 =
         0.02222    0.00135    0.01113    0.00501
C22   1    0.367520    1.039219    0.735909    11.00000    0.01263    0.02014 =
         0.02221    0.00124    0.00852    0.00196
C23   1    0.302395    0.932368    0.743161    11.00000    0.01314    0.01805 =
         0.02183    0.00055    0.01019    0.00388
C320  1    0.477107    0.939177    0.631751    11.00000    0.05065    0.04252 =
         0.04069    0.01740    0.03212    0.02753
H1F   2    0.443171    1.051950    0.634062    11.00000   -1.50000
PART 1
C410  1    0.717467    0.275006    0.450009    10.50000    0.01828    0.03106 =
         0.02117   -0.00097    0.00906    0.00296
AFIX  43
H410  2    0.744689    0.188723    0.479264    10.50000   -1.20000
AFIX   0
C310  1    0.642357    0.507713    0.492329    10.50000    0.01308    0.03541 =
         0.01200   -0.00438    0.00263    0.00443
N810  3    0.669245    0.426569    0.451398    10.50000    0.01103    0.04201 =
         0.01287    0.00708    0.00152    0.00410
N5    3    0.503346    0.926947    0.593560    10.50000    0.02863    0.03857 =
         0.02150    0.00699    0.01058    0.01873
N9    3    0.724437    0.254203    0.404148    10.50000    0.02252    0.03416 =
         0.02151    0.00417    0.00690    0.01119
S110  5    0.681657    0.099924    0.605339    10.50000    0.03364    0.03121 =
         0.02014    0.00463    0.01405    0.01143
N150  3    0.551330    0.749135    0.606299    10.50000    0.01256    0.02552 =
         0.01769   -0.00001    0.00431    0.00558
C510  1    0.583927    0.668845    0.569477    10.50000    0.02049    0.02645 =
         0.01533   -0.00132    0.00753    0.00293
C110  1    0.577231    0.792045    0.525880    10.50000    0.02295    0.02953 =
         0.02222   -0.00070    0.00818    0.00638
AFIX  43
H110  2    0.552542    0.935277    0.521143    10.50000   -1.20000
AFIX   0
C610  1    0.606225    0.711904    0.487273    10.50000    0.02351    0.03611 =
         0.01634    0.00392    0.00972    0.00372
AFIX  43
H610  2    0.600409    0.802340    0.457117    10.50000   -1.20000
AFIX   0
PART 2
N220  3    0.707859    0.233612    0.394683    10.50000    0.02245    0.06496 =
         0.01163   -0.00071    0.00749    0.00950
C520  1    0.694028    0.221825    0.439491    10.50000    0.02297    0.03724 =
         0.01936    0.00404    0.00854    0.00943
AFIX  43
H520  2    0.711286    0.106248    0.465077    10.50000   -1.20000
AFIX   0
C140  1    0.620430    0.462887    0.481216    10.50000    0.01579    0.03097 =
         0.01113   -0.00142    0.00132   -0.00014
S220  5    0.701488    0.159083    0.609812    10.50000    0.02702    0.03274 =
         0.01676    0.00384    0.00972    0.01300
N150  3    0.529638    0.705276    0.596031    10.50000    0.01522    0.02630 =
         0.01728    0.00107    0.00721    0.00382
C420  1    0.559606    0.615494    0.558381    10.50000    0.01740    0.02337 =
         0.01980   -0.00385    0.00888    0.00035
N320  3    0.650559    0.404469    0.442892    10.50000    0.00722    0.03035 =
         0.01400    0.00366    0.00228    0.00923
N7    3    0.479953    0.880520    0.583076    10.50000    0.02699    0.03733 =
         0.02771    0.00789    0.01557    0.01824
C120  1    0.537065    0.698802    0.509494    10.50000    0.02080    0.02475 =
         0.02263    0.00039    0.00775    0.00445
AFIX  43
H120  2    0.499845    0.811347    0.500491    10.50000   -1.20000
AFIX   0
C220  1    0.567704    0.622027    0.471409    10.50000    0.02221    0.02782 =
         0.01849    0.00401    0.00732    0.00341
AFIX  43
H220  2    0.550314    0.685488    0.437567    10.50000   -1.20000
AFIX   0
PART 3
C530  1    0.360469    0.517149    0.997475    10.50000    0.01620    0.02895 =
         0.01805    0.00790    0.00489    0.00424
N7    3    0.335830    0.417658    1.038239    10.50000    0.03755    0.04585 =
         0.01392   -0.02288    0.01002   -0.01786
S2    5    0.300376    0.164061    0.880333    10.50000    0.02333    0.03729 =
         0.01707   -0.00212    0.00835   -0.01170
C130  1    0.398225    0.717076    1.003229    10.50000    0.02529    0.03548 =
         0.01905   -0.00255    0.01028   -0.00226
AFIX  43
H130  2    0.404391    0.807820    1.033384    10.50000   -1.20000
AFIX   0
C8    1    0.283342    0.284941    1.039202    10.50000    0.01805    0.03403 =
         0.02532    0.00358    0.00922   -0.00223
AFIX  43
H8    2    0.253200    0.207967    1.009472    10.50000   -1.20000
AFIX   0
N10   3    0.275723    0.266810    1.084659    10.50000    0.02792    0.03748 =
         0.01893    0.00257    0.00849   -0.00229
N5    3    0.457035    0.742089    0.885505    10.50000    0.01193    0.02925 =
         0.01973    0.00374    0.00444   -0.00458
C430  1    0.421145    0.665638    0.920819    10.50000    0.01488    0.04000 =
         0.01239   -0.00075    0.00385   -0.00311
N8    3    0.501858    0.930038    0.898517    10.50000    0.02432    0.03680 =
         0.02207   -0.00162    0.00533   -0.00999
C230  1    0.428527    0.791961    0.964816    10.50000    0.02433    0.03328 =
         0.02382    0.00026    0.00827   -0.00781
AFIX  43
H230  2    0.454537    0.932781    0.969633    10.50000   -1.20000
AFIX   0
PART 4
N5    3    0.346357    0.428901    1.047556    10.50000    0.02325    0.03657 =
         0.01358   -0.01370    0.01159   -0.02350
C340  1    0.379734    0.469650    1.008866    10.50000    0.01791    0.02483 =
         0.00984    0.00499    0.00333   -0.00021
S1    5    0.318426    0.112448    0.883838    10.50000    0.03159    0.04172 =
         0.02082   -0.00535    0.01383   -0.01437
N14   3    0.292713    0.233963    1.095723    10.50000    0.02370    0.05425 =
         0.01297    0.00171    0.00637   -0.01069
C10   1    0.307193    0.228209    1.050746    10.50000    0.02162    0.03749 =
         0.02102   -0.00232    0.00811   -0.00800
AFIX  43
H10   2    0.293546    0.110012    1.025424    10.50000   -1.20000
AFIX   0
N13   3    0.474324    0.706926    0.895535    10.50000    0.01730    0.02918 =
         0.01601    0.00030    0.00695   -0.00334
C540  1    0.442839    0.622877    0.932757    10.50000    0.01185    0.03146 =
         0.01827    0.00152    0.00816   -0.00559
N9    3    0.519076    0.894400    0.908192    10.50000    0.02386    0.03155 =
         0.02739   -0.00149    0.01525   -0.01045
C140  1    0.432409    0.632500    1.019036    10.50000    0.02330    0.03091 =
         0.01738   -0.00109    0.00906   -0.00277
AFIX  43
H140  2    0.448457    0.699092    1.052616    10.50000   -1.20000
AFIX   0
C240  1    0.464155    0.706325    0.981506    10.50000    0.02143    0.02740 =
         0.02343    0.00060    0.00836   -0.00469
AFIX  43
H240  2    0.501615    0.818010    0.990865    10.50000   -1.20000
AFIX   0
PART 0
O1    4    0.750000    0.914055    0.750000    10.50000    0.01151    0.01486 =
         0.03949    0.00000    0.01414    0.00000
O3    4    0.583267    1.078178    0.768111    11.00000    0.01581    0.01771 =
         0.04363    0.00189    0.01818    0.00234
O8    4    0.627225    0.734521    0.764303    11.00000    0.01503    0.01570 =
         0.03614    0.00385    0.01380    0.00106
C1    1    0.716257    1.279512    0.754772    11.00000    0.01399    0.01552 =
         0.02135   -0.00022    0.00783    0.00160
AFIX  43
H1A   2    0.688948    1.410220    0.758438    11.00000   -1.20000
AFIX   0
C6    1    0.633551    0.948318    0.764575    11.00000    0.01257    0.01902 =
         0.02642    0.00273    0.01023    0.00191
C26   1    0.698405    1.056300    0.757634    11.00000    0.01173    0.01892 =
         0.02275    0.00013    0.00876    0.00275
HKLF 4




REM  pvl671_auto_a.res in P2/n
REM wR2 = 0.0875, GooF = S = 1.089, Restrained GooF = 1.088 for all data
REM R1 = 0.0358 for 5914 Fo > 4sig(Fo) and 0.0446 for all 6831 data
REM 664 parameters refined using 4 restraints

END

WGHT      0.0362      2.0062

REM Highest difference peak  0.642,  deepest hole -0.473,  1-sigma level  0.057
Q1    1   0.4834  0.8424  0.7586  11.00000  0.05    0.64
Q2    1   0.5003  0.4406  0.7714  11.00000  0.05    0.53
Q3    1   0.4898  0.6265  0.7514  11.00000  0.05    0.44
Q4    1   0.3784  0.7605  0.7382  11.00000  0.05    0.41
Q5    1   0.3716  0.4329  0.9389  11.00000  0.05    0.35
Q6    1   0.6289  0.4266  0.5517  11.00000  0.05    0.35
Q7    1   0.6697  1.0087  0.7623  11.00000  0.05    0.34
Q8    1   0.3329  0.9797  0.7350  11.00000  0.05    0.33
Q9    1   0.3109  0.1831  0.9130  11.00000  0.05    0.31
Q10   1   0.6724  0.2435  0.6154  11.00000  0.05    0.31
Q11   1   0.5882  0.5238  0.5704  11.00000  0.05    0.31
Q12   1   0.4194  1.0905  0.7321  11.00000  0.05    0.30
Q13   1   0.2500  0.6996  0.7500  10.50000  0.05    0.30
Q14   1   0.6285  0.4039  0.5086  11.00000  0.05    0.30
Q15   1   0.6230  1.2880  0.7514  11.00000  0.05    0.29
Q16   1   0.7500  1.1163  0.7500  10.50000  0.05    0.29
Q17   1   0.4229  0.5091  0.9280  11.00000  0.05    0.29
Q18   1   0.2795  1.3119  0.7407  11.00000  0.05    0.28
Q19   1   0.4839  0.8322  0.6507  11.00000  0.05    0.28
Q20   1   0.3306  0.2599  0.8777  11.00000  0.05    0.27
;
_shelx_res_checksum   10801

_shelx_hkl_file
;
   0   0  -3    5.45    0.33
   0   0   3    5.05    0.34
   0   0   4  559.16    7.02
   0   0  -4  564.19    7.15
   0   0   4  561.52    7.15
   0   0   5    0.63    0.26
   0   0   5    1.39    0.46
   0   0  -5    0.78    0.40
   0   0   6 9386.74  108.54
   0   0  -6 9361.57  108.75
   0   0   6 9381.30  108.76
   0   0   7    3.12    0.54
   0   0   7    2.87    0.47
   0   0   7    5.93    0.75
   0   0  -7    2.69    0.52
   0   0   8 5485.51   65.11
   0   0   8 5636.86   65.21
   0   0  -8 5569.71   65.42
   0   0   8 5596.94   65.43
   0   0   9    2.02    0.54
   0   0   9    1.98    0.45
   0   0   9    3.01    0.76
   0   0  -9    2.38    0.58
   0   0  10 1135.25   14.27
   0   0  10 1093.48   14.16
   0   0 -10 1095.48   14.50
   0   0  10 1115.58   14.51
   0   0  11    0.78    0.37
   0   0  11    0.88    0.43
   0   0 -11    0.98    0.49
   0   0  12  788.49   10.69
   0   0  12  764.57   10.55
   0   0 -12  770.29   10.96
   0   0  12  778.18   11.21
   0   0  13    1.87    0.59
   0   0  13    1.67    0.52
   0   0 -13    3.08    0.69
   0   0  13    2.31    0.84
   0   0  14 2355.45   29.13
   0   0  14 2375.96   29.32
   0   0 -14 2356.17   29.63
   0   0  14 2348.26   30.02
   0   0  15    4.42    0.75
   0   0  15    3.55    0.65
   0   0 -15    4.20    0.75
   0   0  15    5.74    0.97
   0   0  16  479.10    7.65
   0   0  16  460.69    7.45
   0   0 -16  475.85    7.95
   0   0  16  478.19    8.27
   0   0  17    0.77    0.52
   0   0  17    0.93    0.47
   0   0 -17    0.82    0.47
   0   0  17    0.97    0.58
   0   0  18    1.06    0.47
   0   0  18    0.54    0.39
   0   0 -18    0.93    0.47
   0   0  18    0.79    0.60
   0   0  19    0.68    0.51
   0   0  19    1.10    0.49
   0   0 -19    0.43    0.52
   0   0  19    1.35    0.75
   0   0  20  245.95    5.10
   0   0  20  256.08    5.31
   0   0 -20  246.48    5.58
   0   0  20  252.15    5.93
   0   0  21    1.33    0.47
   0   0  21    1.41    0.59
   0   0 -21    1.99    0.65
   0   0  21    1.39    0.70
   0   0  22  118.04    3.49
   0   0  22  105.61    3.20
   0   0 -22  113.24    3.67
   0   0  22  106.11    3.81
   0   0  23    0.51    0.78
   0   0  23    0.42    0.50
   0   0  23    0.18    0.49
   0   0  24   75.84    3.33
   0   0  24   76.17    2.89
   0   0  24   74.13    2.70
   0   0  25   -0.34    0.70
   0   0  25   -0.53    0.58
   0   0  25    0.40    0.53
   0   0  26   14.30    1.53
   0   0  26   15.18    1.39
   0   0  26   14.59    1.27
   0   0  27    0.67    0.78
   0   0  27    0.76    0.60
   0   0  28   18.87    1.85
   0   0  28   17.17    1.47
   0   0  29    2.04    1.04
   0   0  29    1.09    0.62
   0   0  30   57.63    3.33
   0   0  30   62.23    2.91
   0   0  31    1.55    0.92
   0   0  32    4.18    1.10
   0   0  33    0.80    0.98
   0  -1   0   27.04    0.80
   0   1   0   27.19    0.83
   0   1  -1 1268.54   15.27
   0  -1  -1 1252.01   15.45
   0   1   1 1269.73   15.43
   0  -1   1 1279.14   15.28
   0   1  -2 2716.53   32.31
   0  -1  -2 2665.95   32.19
   0   1   2 2719.71   32.22
   0   1  -2 2750.85   31.87
   0  -1   3   75.27    1.75
   0   1  -3   76.06    1.74
   0   1   3   74.22    1.70
   0  -1  -3   73.01    1.68
   0   1  -3   75.33    1.43
   0   1  -4   38.86    1.24
   0  -1   4   38.82    1.30
   0   1  -4   40.40    1.26
   0   1   4   39.56    1.27
   0  -1  -4   39.92    1.24
   0  -1   4   40.43    0.96
   0   1  -4   39.41    0.95
   0   1  -5  196.48    3.37
   0   1  -5  193.21    3.45
   0  -1   5  194.26    3.47
   0   1   5  188.20    3.42
   0  -1  -5  192.90    3.41
   0  -1   5  196.34    2.89
   0   1  -5  189.63    2.90
   0   1  -6  389.23    5.80
   0  -1   6  395.75    5.81
   0  -1   6  395.78    6.02
   0  -1   6  394.75    4.92
   0   1  -6  385.49    5.98
   0  -1  -6  386.38    5.94
   0   1   6  390.82    5.95
   0   1  -6  389.53    5.28
   0  -1   6  398.38    5.27
   0  -1   7   11.17    0.78
   0   1  -7   13.88    0.83
   0  -1   7   13.40    0.93
   0   1  -7   13.00    0.88
   0  -1  -7   10.51    0.79
   0   1   7    8.08    0.77
   0  -1   7   12.41    0.60
   0   1  -7   11.69    0.59
   0   1  -8  513.24    6.95
   0   1  -8  531.42    7.55
   0  -1   8  507.82    7.50
   0  -1   8  520.32    7.82
   0   1  -8  526.81    7.85
   0   1   8  524.40    7.79
   0  -1  -8  526.60    7.77
   0  -1   8  523.73    6.96
   0   1  -9    7.63    0.52
   0   1  -9    7.15    0.76
   0  -1   9    8.72    0.86
   0   1  -9    7.75    0.79
   0  -1   9    7.57    0.69
   0   1   9    4.18    0.71
   0  -1  -9    5.59    0.71
   0  -1   9    7.21    0.55
   0  -1  10   30.48    1.30
   0   1 -10   29.20    1.03
   0   1 -10   31.95    1.32
   0  -1  10   32.06    1.48
   0   1 -10   31.97    1.47
   0   1  10   30.89    1.46
   0  -1 -10   34.02    1.51
   0  -1  10   31.24    1.08
   0  -1  11  655.28    9.39
   0   1 -11  634.06    8.75
   0   1 -11  654.37    9.38
   0  -1  11  663.29    9.84
   0   1 -11  667.36    9.88
   0  -1 -11  644.90    9.72
   0   1 -11  641.34    9.07
   0   1  11  636.84    9.70
   0  -1  11  661.82    8.80
   0  -1  12    0.47    0.53
   0   1 -12    0.90    0.32
   0   1 -12    1.73    0.58
   0  -1  12    1.24    0.59
   0   1 -12    0.70    0.38
   0  -1 -12    1.48    0.61
   0   1  12    0.71    0.59
   0  -1  12    0.48    0.33
   0   1 -13  537.44    8.37
   0  -1  13  555.56    8.40
   0  -1  13  551.41    8.90
   0   1  13  550.79    8.85
   0  -1 -13  551.66    8.83
   0   1 -13  549.67    8.18
   0  -1  13  546.71    7.85
   0  -1  14  129.02    3.14
   0   1 -14  121.34    3.09
   0  -1  14  127.06    3.49
   0  -1 -14  131.80    3.47
   0   1 -14  126.30    3.01
   0   1  14  119.39    3.38
   0  -1  14  125.04    2.77
   0   1 -15    3.57    0.60
   0  -1  15    4.51    0.65
   0  -1  15    2.90    0.49
   0  -1  15    4.58    0.81
   0   1 -15    3.25    0.52
   0  -1 -15    5.99    0.84
   0   1  15    4.87    0.79
   0  -1  16   23.22    1.32
   0   1 -16   23.54    1.34
   0  -1  16   22.10    1.49
   0   1  16   22.76    1.49
   0   1 -16   23.59    1.29
   0  -1 -16   22.60    1.44
   0  -1  16   22.66    1.17
   0  -1  17   24.11    1.38
   0  -1  17   24.51    1.62
   0  -1 -17   20.35    1.43
   0   1 -17   23.25    1.32
   0   1  17   19.24    1.40
   0  -1  17   24.51    1.24
   0  -1  18    1.45    0.49
   0  -1  18    1.27    0.60
   0   1  18    1.05    0.41
   0  -1  18    1.88    0.79
   0   1 -18    1.22    0.48
   0  -1 -18    1.74    0.67
   0   1  18    0.86    0.68
   0   1  19  193.19    4.73
   0   1  19  190.22    4.24
   0  -1  19  198.66    4.53
   0  -1  19  201.30    5.15
   0   1  19  192.37    4.94
   0  -1 -19  197.78    5.00
   0   1 -19  194.71    4.51
   0  -1  19  195.06    4.15
   0  -1  20    1.97    0.54
   0   1  20    1.34    0.61
   0   1  20    1.31    0.46
   0  -1  20    1.44    0.63
   0  -1  20    1.57    0.74
   0   1  20    1.60    0.72
   0   1 -20    1.47    0.56
   0   1  21   21.34    1.54
   0   1  21   24.37    1.42
   0  -1  21   22.82    1.50
   0  -1  21   22.78    1.73
   0   1 -21   22.55    1.50
   0  -1  21   23.98    1.37
   0   1  22    9.34    0.94
   0  -1  22   10.51    1.09
   0   1  22   10.28    1.16
   0  -1  22   11.04    1.31
   0   1 -22   10.62    1.07
   0  -1  22   11.11    0.98
   0   1  23    0.49    0.47
   0  -1  23    1.07    0.48
   0   1  23    1.76    0.70
   0  -1  23    1.38    0.78
   0  -1  23    0.88    0.60
   0   1 -23    1.07    0.49
   0  -1  24   16.01    1.34
   0   1  24   15.95    1.27
   0   1  24   17.37    1.51
   0  -1  24   17.29    1.72
   0   1  24   16.52    1.61
   0   1 -24   16.12    1.38
   0  -1  24   15.11    1.20
   0   1  25   71.94    3.36
   0  -1  25   75.13    3.49
   0   1  25   76.20    2.76
   0   1  25   78.94    3.22
   0  -1  25   74.62    2.95
   0  -1  25   80.67    2.77
   0   1  26    6.18    1.23
   0  -1  26    6.53    1.22
   0   1  26    8.85    1.26
   0   1  26    6.91    0.93
   0  -1  26    6.97    0.91
   0   1  27   80.95    3.69
   0  -1  27   81.30    3.78
   0   1  27   84.48    3.48
   0  -1  27   84.14    2.98
   0   1  28   12.61    1.67
   0  -1  28   12.99    1.65
   0   1  28   13.31    1.48
   0  -1  28   14.40    1.31
   0   1  29    2.39    0.84
   0  -1  29    3.79    1.12
   0   1  29    2.10    0.93
   0   1  30    0.65    0.64
   0  -1  30   -1.98    1.11
   0   1  30    0.21    0.90
   0   1  31    4.47    1.05
   0   1  31    5.21    1.27
   0  -1  31    3.73    1.16
   0   1  32    1.82    0.83
   0   1  32    2.40    1.09
   0  -1  32    1.89    1.03
   0   1  33   24.27    2.32
   0  -1  33   22.71    2.31
   0   2   0  820.23   10.90
   0  -2   0  815.50   10.91
   0   2   1   20.56    1.04
   0  -2  -1   20.38    1.01
   0   2  -1   21.44    0.98
   0  -2   1   21.21    0.96
   0  -2  -2   62.36    1.80
   0   2   2   60.58    1.80
   0   2  -2   56.90    1.61
   0  -2   2   55.78    1.57
   0   2   3  417.93    6.53
   0   2  -3  418.22    6.05
   0  -2  -3  422.46    6.54
   0  -2   3  413.74    6.08
   0   2  -4  104.80    2.73
   0   2   4  110.80    2.72
   0   2  -4  107.53    2.27
   0  -2  -4  114.18    2.69
   0   2  -5  139.39    3.27
   0  -2  -5  140.94    3.16
   0   2   5  138.59    3.15
   0   2  -5  138.39    2.63
   0   2  -5  134.37    2.69
   0   2  -6   77.25    2.37
   0   2  -6   78.42    2.42
   0   2   6   82.78    2.38
   0  -2  -6   84.14    2.36
   0   2  -6   79.81    1.85
   0   2  -6   76.15    1.89
   0   2  -7    2.36    0.72
   0   2  -7    2.12    0.58
   0   2   7    2.03    0.63
   0  -2  -7    1.43    0.45
   0   2  -7    1.69    0.37
   0   2  -8   50.70    1.91
   0  -2   8   53.20    2.02
   0   2  -8   50.63    1.99
   0  -2  -8   53.41    1.98
   0   2   8   53.05    1.99
   0   2  -8   51.59    1.49
   0   2  -9   12.14    0.99
   0  -2   9   11.74    1.04
   0   2  -9   13.21    1.07
   0  -2  -9   13.51    1.05
   0   2   9   12.27    1.08
   0   2  -9   12.30    0.72
   0   2 -10  208.16    4.49
   0  -2  10  219.92    4.78
   0   2 -10  223.57    4.80
   0   2  10  226.72    4.73
   0  -2 -10  229.30    4.79
   0   2 -10  209.54    3.74
   0   2 -11   38.07    1.72
   0  -2  11   40.86    1.91
   0   2 -11   38.22    1.84
   0  -2 -11   40.79    1.88
   0   2  11   39.56    1.85
   0   2 -11   37.90    1.30
   0  -2  11   39.09    1.29
   0   2 -12   62.69    2.27
   0  -2  12   60.99    2.40
   0   2 -12   61.99    2.43
   0   2  12   64.15    2.42
   0  -2 -12   63.88    2.43
   0   2 -12   61.42    1.74
   0  -2  12   61.96    1.70
   0   2 -13  161.41    3.21
   0   2 -13  165.22    4.01
   0  -2  13  165.01    4.27
   0  -2  13  165.29    2.59
   0   2 -13  170.78    4.33
   0  -2 -13  177.81    4.36
   0   2  13  169.90    4.28
   0  -2  13  159.78    3.15
   0   2 -14  413.15    6.41
   0   2 -14  414.20    7.44
   0   2 -14  442.86    8.07
   0  -2  14  418.83    5.73
   0  -2  14  417.52    7.90
   0  -2 -14  432.47    7.93
   0   2  14  431.10    7.92
   0  -2  14  430.68    6.44
   0   2 -15   74.75    2.04
   0   2 -15   77.12    2.68
   0   2 -15   83.90    3.06
   0  -2  15   77.14    1.68
   0  -2  15   78.89    2.98
   0   2  15   76.33    2.86
   0  -2 -15   80.61    2.94
   0  -2  15   79.91    2.09
   0   2 -16  168.20    4.28
   0   2 -16  168.25    3.45
   0   2 -16  178.41    4.77
   0  -2  16  173.97    4.71
   0  -2  16  172.61    3.01
   0   2 -16  171.00    3.78
   0  -2 -16  192.06    4.82
   0   2  16  182.33    4.76
   0  -2  16  174.94    3.48
   0   2 -17  102.20    2.53
   0   2 -17  101.92    3.23
   0  -2  17  103.29    3.61
   0  -2  17  102.37    2.18
   0   2  17   98.11    3.46
   0   2 -17   99.94    2.78
   0  -2  17  104.27    2.56
   0   2 -18    0.33    0.53
   0  -2  18    0.37    0.63
   0  -2  18    0.77    0.29
   0   2 -18    0.04    0.39
   0   2  18    1.84    0.80
   0  -2  18    0.76    0.37
   0   2 -19  119.82    3.70
   0  -2  19  126.06    2.68
   0  -2  19  127.05    4.21
   0   2  19  125.63    4.12
   0   2 -19  123.05    3.33
   0  -2  19  125.17    2.98
   0   2 -20   73.28    2.88
   0  -2  20   75.31    3.27
   0  -2  20   76.98    2.06
   0   2 -20   73.90    2.56
   0   2  20   76.32    3.23
   0  -2  20   77.71    2.30
   0   2 -21  110.52    3.63
   0  -2  21  105.43    3.99
   0  -2  21  109.61    2.64
   0   2 -21  109.27    3.26
   0   2  21  105.43    3.93
   0  -2  21  113.63    2.91
   0   2 -22  135.99    4.19
   0  -2  22  139.39    3.16
   0  -2  22  141.64    4.76
   0   2 -22  136.07    3.79
   0   2  22  141.22    4.69
   0  -2  22  148.26    3.43
   0  -2  23    3.65    1.02
   0  -2  23    3.21    0.54
   0   2 -23    3.18    0.67
   0   2  23    2.29    0.87
   0  -2  23    3.99    0.64
   0   2  24   30.51    2.13
   0   2  24   30.54    1.78
   0  -2  24   32.24    2.34
   0   2  24   34.28    2.39
   0   2 -24   32.48    1.87
   0  -2  24   34.44    1.61
   0   2  25   66.72    3.20
   0  -2  25   64.65    3.38
   0   2  25   62.32    3.26
   0  -2  25   67.04    2.32
   0  -2  26   39.41    2.69
   0   2  26   40.07    2.54
   0  -2  26   41.42    1.84
   0   2  27   32.84    2.37
   0  -2  27   29.65    2.42
   0   2  28   24.11    2.10
   0  -2  28   26.65    2.33
   0   2  29    3.27    1.03
   0  -2  29    4.20    1.23
   0   2  30   36.78    2.60
   0   2  30   39.81    2.82
   0  -2  30   39.49    2.93
   0   2  31    1.26    0.92
   0   2  31   -0.44    0.86
   0  -2  31    0.16    0.97
   0   2  32   12.72    1.71
   0   2  32   14.12    1.85
   0   2  33   15.97    1.90
   0   2  33   15.07    1.90
   0   3   0   93.20    2.57
   0  -3   0   96.97    2.66
   0   3   1  454.37    7.27
   0   3  -1  447.75    7.09
   0  -3  -1  451.36    7.32
   0  -3   1  426.00    7.09
   0   3   2    2.52    0.62
   0   3  -2    3.13    0.58
   0  -3  -2    2.33    0.57
   0  -3   2    2.46    0.50
   0   3   3   47.62    1.90
   0   3  -3   48.59    1.70
   0  -3  -3   50.70    1.97
   0  -3   3   45.14    1.69
   0   3  -4    2.93    0.70
   0  -3  -4    3.48    0.68
   0   3  -4    1.86    0.47
   0   3   4    2.65    0.65
   0   3  -5  250.70    5.36
   0   3  -5  252.34    4.55
   0   3   5  250.64    5.15
   0  -3  -5  258.77    5.24
   0   3  -6   70.32    2.57
   0   3   6   67.87    2.46
   0   3  -6   70.26    2.02
   0  -3  -6   70.44    2.50
   0   3  -6   68.22    2.12
   0   3  -7  335.12    6.52
   0   3  -7  347.90    6.78
   0   3  -7  343.44    5.64
   0   3   7  341.73    6.51
   0  -3  -7  362.44    6.69
   0   3  -7  326.90    5.75
   0   3  -8    1.65    0.62
   0   3  -8    2.23    0.80
   0   3  -8    1.11    0.20
   0  -3  -8    1.46    0.61
   0   3   8    0.11    0.62
   0   3  -8    1.16    0.42
   0   3  -8    1.31    0.41
   0   3  -9   23.14    1.57
   0   3  -9   24.70    1.58
   0   3   9   24.27    1.57
   0  -3  -9   23.68    1.54
   0   3  -9   20.34    1.10
   0   3  -9   23.92    1.14
   0   3 -10   51.38    2.29
   0   3 -10   54.98    2.41
   0  -3 -10   56.17    2.38
   0   3  10   55.09    2.39
   0   3 -10   55.07    1.78
   0   3 -10   49.48    1.75
   0   3 -11   24.88    1.63
   0   3 -11   28.14    1.83
   0   3  11   23.05    1.61
   0  -3 -11   26.14    1.68
   0   3 -11   25.47    1.23
   0   3 -11   27.43    1.26
   0   3 -12   32.04    1.87
   0   3 -12   32.15    1.92
   0  -3 -12   30.81    1.85
   0   3  12   29.59    1.83
   0   3 -12   31.85    1.40
   0   3 -12   30.51    1.35
   0   3 -13  574.66   10.01
   0   3 -13  611.23   10.50
   0   3  13  577.06   10.22
   0   3 -13  561.14    8.56
   0   3 -14   93.17    3.27
   0  -3  14   94.08    3.46
   0   3  14   90.46    3.37
   0   3 -14   88.04    2.42
   0   3 -15   75.91    3.02
   0  -3  15   85.12    3.32
   0   3  15   85.72    3.32
   0   3 -15   78.55    2.28
   0   3 -16   22.24    1.64
   0   3 -16   23.16    1.19
   0   3  16   25.48    1.89
   0  -3  16   25.68    1.90
   0   3 -17    1.22    0.40
   0   3 -17    0.34    0.68
   0   3  17    1.60    0.76
   0  -3  17    1.19    0.73
   0   3 -18   13.55    1.39
   0   3 -18   14.92    0.96
   0   3  18   15.90    1.57
   0  -3  18   14.55    1.55
   0   3 -19   46.31    1.71
   0   3 -19   45.40    2.47
   0   3  19   45.59    2.64
   0   3 -19   45.67    1.90
   0  -3  19   46.88    2.69
   0   3 -20    5.76    1.01
   0   3 -20    6.36    0.69
   0   3 -20    4.81    0.73
   0   3  20    5.16    1.11
   0  -3  20    7.18    1.21
   0   3 -21   35.75    2.23
   0   3  21   36.48    2.49
   0   3 -21   35.38    1.77
   0  -3  21   36.10    2.47
   0   3 -22   12.29    1.45
   0   3 -22   12.43    1.12
   0   3  22   12.57    1.59
   0  -3  22   14.90    1.71
   0   3 -23   31.95    2.19
   0   3  23   28.75    2.32
   0  -3  23   33.58    2.49
   0   3 -24   10.26    1.38
   0   3  24   12.39    1.65
   0  -3  24   12.11    1.62
   0   3 -25    2.12    0.88
   0   3  25    0.92    0.92
   0  -3  25    1.10    0.85
   0   3 -26    6.46    1.17
   0   3  26    3.62    1.10
   0  -3  26    5.85    1.18
   0   3  27   21.34    2.10
   0   3  27   22.85    2.18
   0  -3  27   28.71    2.51
   0   3  28   10.64    1.66
   0   3  28    8.74    1.45
   0  -3  28   10.08    1.56
   0  -3  29   17.74    2.14
   0   3  29   15.29    1.84
   0   3  30   17.57    2.07
   0   3  31    1.29    0.93
   0   4   0   74.50    2.60
   0  -4   0   78.42    2.69
   0   4   1    7.35    0.92
   0   4  -1    8.01    0.88
   0  -4   1    9.16    0.96
   0  -4  -1    8.15    0.95
   0   4   2  141.65    3.85
   0   4  -2  147.21    3.70
   0  -4  -2  148.93    3.99
   0  -4   2  148.41    3.77
   0   4  -3  208.23    4.52
   0   4   3  200.63    4.80
   0  -4  -3  218.04    5.04
   0  -4   3  202.04    4.57
   0   4  -4  323.24    6.93
   0  -4  -4  343.79    6.81
   0   4  -4  325.94    6.06
   0   4   4  323.80    6.57
   0   4  -5    9.67    1.17
   0   4  -5   10.52    0.97
   0   4   5   10.74    1.17
   0  -4  -5   12.14    1.20
   0   4   6   82.23    3.02
   0   4  -6   81.54    2.51
   0  -4  -6   88.39    3.16
   0   4  -6   81.24    2.72
   0   4  -7    2.26    0.88
   0   4  -7    0.76    0.42
   0  -4  -7    2.09    0.65
   0   4   7    1.10    0.71
   0   4  -7    0.83    0.44
   0   4  -8   70.71    3.00
   0   4   8   71.46    2.90
   0   4  -8   73.80    2.36
   0   4  -8   74.44    2.57
   0   4  -9  123.60    4.08
   0   4  -9  139.69    3.38
   0   4   9  132.53    4.13
   0   4  -9  126.74    3.45
   0   4 -10   39.70    2.32
   0   4 -10   36.45    0.81
   0   4  10   39.05    2.20
   0   4 -10   42.87    1.75
   0   4 -10   40.59    1.81
   0   4 -11    5.49    1.11
   0   4  11    5.71    1.16
   0   4 -11    5.72    0.77
   0   4 -11    4.83    0.72
   0   4 -12  379.00    8.17
   0   4  12  387.33    8.20
   0   4 -12  406.94    6.80
   0   4 -12  381.96    6.90
   0   4 -13   47.51    2.56
   0   4  13   47.03    2.58
   0   4 -13   52.71    1.97
   0   4 -13   49.45    1.98
   0   4 -14   26.40    1.97
   0   4  14   32.06    2.17
   0   4 -14   30.06    1.54
   0   4 -14   32.07    1.54
   0   4 -15  127.44    4.44
   0   4  15  132.60    4.55
   0   4 -15  139.14    3.41
   0   4 -15  131.70    3.40
   0   4 -16   37.41    2.38
   0   4  16   40.75    2.52
   0   4 -16   37.44    1.68
   0   4 -16   37.54    1.68
   0   4 -17   23.66    1.91
   0   4  17   26.95    2.11
   0   4 -17   24.30    1.38
   0   4 -17   23.00    1.34
   0   4 -18   78.31    3.49
   0   4  18   80.21    3.67
   0   4 -18   83.17    2.59
   0   4 -18   77.59    2.50
   0   4 -19    0.18    0.71
   0   4  19    0.26    0.76
   0   4 -19    1.18    0.48
   0   4 -20   70.47    3.39
   0   4  20   72.39    3.64
   0   4 -20   72.23    2.47
   0   4 -21   12.60    1.58
   0   4  21   14.92    1.82
   0   4 -21   14.25    1.12
   0   4 -22    1.55    0.90
   0   4  22    1.75    1.03
   0   4 -23   28.64    2.26
   0   4  23   29.97    2.51
   0   4 -24   13.60    1.68
   0   4  24   14.36    1.88
   0   4 -25   14.82    1.74
   0   4  25   16.41    2.02
   0   4 -26   52.95    3.17
   0   4  26   56.97    3.60
   0   4 -27   13.35    1.72
   0   4 -28    4.99    1.20
   0   4 -29    6.00    1.18
   0   5   0    0.75    0.54
   0  -5   0    0.04    0.50
   0   5  -1   58.98    2.55
   0   5   1   63.25    2.68
   0  -5   1   60.22    2.64
   0   5   2    4.83    0.97
   0   5  -2    7.14    1.01
   0  -5   2    5.06    0.89
   0   5   3   32.30    1.98
   0   5  -3   36.79    1.94
   0  -5   3   32.04    1.87
   0   5  -4   40.40    2.03
   0   5   4   43.87    2.35
   0   5   5    1.55    0.83
   0   5  -5    0.99    0.61
   0   5  -6    0.69    0.54
   0   5   6    0.51    0.66
   0   5  -6    1.84    0.69
   0   5  -7   23.21    1.97
   0   5  -7   22.51    1.44
   0   5   7   22.40    1.83
   0   5  -7   20.67    1.53
   0   5  -8   45.01    2.67
   0   5   8   44.29    2.57
   0   5  -8   43.81    2.01
   0   5  -8   41.32    2.16
   0   5  -9   99.77    4.11
   0   5   9  106.09    4.01
   0   5  -9  102.06    3.15
   0   5  -9   96.47    3.37
   0   5 -10  211.54    6.05
   0   5 -10  197.07    3.20
   0   5 -10  224.17    4.85
   0   5  10  210.02    5.90
   0   5 -10  200.10    5.03
   0   5 -11   95.96    4.08
   0   5 -11  105.80    3.15
   0   5  11   96.45    3.91
   0   5 -11   93.46    3.24
   0   5 -12    4.78    1.14
   0   5 -12    4.94    0.77
   0   5  12    2.08    0.97
   0   5 -12    3.62    0.74
   0   5 -13    1.80    0.89
   0   5  13    2.89    0.95
   0   5 -13    4.46    0.72
   0   5 -13    2.67    0.64
   0   5 -14   28.93    2.32
   0   5  14   33.00    2.41
   0   5 -14   31.05    1.67
   0   5 -15  132.91    4.92
   0   5  15  136.48    4.99
   0   5 -15  141.62    3.70
   0   5 -16   46.61    2.99
   0   5  16   53.78    3.16
   0   5 -16   49.37    2.08
   0   5 -17   -0.84    0.88
   0   5  17    0.81    0.86
   0   5 -17    1.63    0.54
   0   5 -18    5.53    1.20
   0   5  18    8.57    1.47
   0   5 -19    0.22    0.83
   0   5  19    1.46    0.96
   0   5 -20    1.79    0.93
   0   5  20    0.63    0.98
   0   5 -21    6.39    1.37
   0   5  21    5.28    1.39
   0   5 -22    7.61    1.44
   0   5  22    8.81    1.59
   0   5 -23    4.70    1.29
   0   5 -24   12.03    1.71
   0   5 -25    3.00    1.05
   0   6   0  134.83    4.41
   0   6   1  103.15    3.86
   0   6  -1  100.03    3.73
   0   6   2  101.12    3.86
   0   6  -2  106.10    3.77
   0   6   3   16.25    1.65
   0   6  -3   15.70    1.49
   0   6   4   96.77    3.90
   0   6  -4  103.32    3.62
   0   6   5    4.62    1.17
   0   6  -5    4.85    1.02
   0   6  -5    6.30    1.48
   0   6  -6  171.60    5.78
   0   6   6  165.24    5.34
   0   6  -6  173.52    4.74
   0   6  -7  109.96    4.59
   0   6  -7  116.70    3.75
   0   6   7  105.57    4.23
   0   6  -8   48.22    3.04
   0   6  -8   48.23    2.35
   0   6   8   47.55    2.83
   0   6  -9    7.70    1.02
   0   6   9    7.22    1.29
   0   6  -9    7.05    1.40
   0   6 -10   42.21    2.90
   0   6  10   41.61    2.79
   0   6 -10   46.29    2.23
   0   6 -11   49.99    3.16
   0   6 -11   51.74    2.34
   0   6  11   48.31    2.98
   0   6 -12   23.76    2.29
   0   6  12   24.82    2.23
   0   6 -13   40.55    2.97
   0   6  13   42.93    2.92
   0   6 -14   43.22    3.07
   0   6  14   44.55    3.00
   0   6 -15   39.78    2.93
   0   6  15   40.76    2.94
   0   6 -16    4.32    1.25
   0   6  16    5.15    1.25
   0   6 -17   28.40    2.51
   0   6  17   29.20    2.58
   0   6 -18    9.37    1.64
   0   7   0   68.03    3.38
   0   7  -1    9.58    1.39
   0   7   1   14.66    1.68
   0   7  -2   50.51    2.87
   0   7   2   51.99    2.98
   0   7  -2   51.09    3.33
   0   7   3    5.37    1.19
   0   7  -3    4.15    1.05
   0   7  -3    5.71    1.43
   0   7  -4   49.15    3.36
   0   7  -4   48.28    2.69
   0   7   4   54.68    3.14
   0   7  -5    9.59    1.27
   0   7   5    8.74    1.44
   0   7  -5   12.98    1.90
   0   7   6   15.80    1.80
   0   7   7   23.72    2.19
   0   7   8   16.90    1.94
   0   7   9    5.40    1.43
   0   7  10   65.95    3.73
   0   7  11    3.56    1.20
  -1   0  33    2.29    1.14
  -1   0  32    1.84    1.16
  -1   0  31   39.26    2.83
  -1   0  30    0.80    0.91
  -1   0  30    1.77    0.75
  -1   0  29   67.71    3.60
  -1   0  29   71.49    3.00
  -1   0  28    1.82    0.73
  -1   0  28    0.86    0.89
  -1   0  27   22.09    1.61
  -1   0  27   20.24    1.89
  -1   0  26   -0.30    0.54
  -1   0  26    0.83    0.61
  -1   0  26    0.91    0.85
  -1   0  25   63.34    2.62
  -1   0  25   66.51    2.66
  -1   0  25   67.78    3.24
  -1   0  24    0.33    0.52
  -1   0  24    1.62    0.68
  -1   0  24    1.44    0.86
  -1   0  23   15.62    1.27
  -1   0  23   16.52    1.28
   1   0 -23   16.41    1.41
  -1   0  23   16.77    1.61
  -1   0  22    1.25    0.61
  -1   0  22    0.73    0.45
   1   0 -22    0.83    0.49
  -1   0  22    0.13    0.63
  -1   0  21    3.19    0.65
  -1   0  21    1.87    0.52
   1   0 -21    1.44    0.53
  -1   0  21    3.35    0.83
  -1   0  20    1.03    0.58
  -1   0  20    1.40    0.62
   1   0 -20    1.52    0.62
  -1   0  20    1.70    0.72
  -1   0  19   53.13    2.03
  -1   0  19   50.24    2.05
   1   0 -19   52.22    2.20
  -1   0  19   54.29    2.46
  -1   0  18    0.95    0.52
  -1   0  18    0.17    0.40
   1   0 -18    0.14    0.42
  -1   0  18    0.25    0.54
  -1   0  17   39.77    1.71
  -1   0  17   41.88    1.68
   1   0 -17   38.13    1.77
  -1   0  17   40.72    2.04
  -1   0  16    0.15    0.37
  -1   0  16    0.00    0.39
   1   0 -16    0.00    0.40
  -1   0  16    1.20    0.60
  -1   0  15    1.99    0.47
  -1   0  15    2.02    0.51
   1   0 -15    2.44    0.56
  -1   0  15    1.06    0.51
  -1   0  14    2.07    0.59
  -1   0  14    2.96    0.59
  -1   0  14    2.52    0.72
   1   0 -14    2.85    0.63
  -1   0  13  197.70    3.92
  -1   0  13  205.61    3.79
   1   0 -13  201.41    4.00
  -1   0  13  202.57    4.04
  -1   0  12    1.36    0.52
  -1   0  12    1.58    0.48
   1   0 -12    1.10    0.47
  -1   0  12    1.11    0.52
  -1   0  11   12.73    0.83
  -1   0  11   13.48    0.90
   1   0 -11   12.81    0.85
  -1   0  10    0.12    0.37
  -1   0  10    0.40    0.43
   1   0 -10    0.05    0.35
  -1   0   9    0.29    0.37
  -1   0   9    0.48    0.45
   1   0  -9    0.85    0.40
  -1   0   8    0.45    0.39
   1   0  -8    0.98    0.43
  -1   0   8    0.81    0.45
  -1   0   7   28.40    1.03
  -1   0   7   30.03    1.01
   1   0  -7   28.93    0.99
   1   0  -6    1.50    0.35
  -1   0   6    1.65    0.40
  -1   0   5   67.71    1.38
   1   0  -5   67.39    1.37
   1   0  -4    0.33    0.20
  -1   0   4    0.21    0.22
   1   0  -3    0.10    0.15
  -1   0  -2    0.24    0.18
   1   0   2   -0.11    0.19
   1   0   3    5.27    0.38
  -1   0  -3    4.13    0.36
   1   0   3    4.60    0.34
  -1   0  -4   -0.12    0.26
  -1   0  -4   -0.26    0.20
   1   0   4    0.01    0.16
   1   0   4    0.22    0.30
  -1   0  -4    0.58    0.30
   1   0   4    0.18    0.33
   1   0   5   24.41    0.68
   1   0   5   25.93    0.89
  -1   0  -5   23.80    0.90
   1   0   5   24.01    0.89
   1   0   6    0.41    0.26
   1   0   6   -0.04    0.36
  -1   0  -6    0.54    0.36
   1   0   6    0.70    0.39
   1   0   7   40.59    1.30
   1   0   7   39.75    1.06
  -1   0  -7   42.57    1.37
   1   0   7   41.78    1.34
   1   0   8    0.53    0.49
   1   0   8    0.96    0.34
  -1   0  -8    1.12    0.47
   1   0   8    0.95    0.49
   1   0   9   32.60    1.25
   1   0   9   29.43    1.03
  -1   0  -9   32.01    1.30
   1   0   9   31.67    1.33
   1   0  10    0.24    0.40
   1   0  10    0.42    0.33
  -1   0 -10    0.06    0.42
   1   0  10    0.36    0.48
   1   0  11   11.55    0.82
   1   0  11   12.21    0.73
  -1   0 -11   10.92    0.88
   1   0  11   11.68    0.92
   1   0  12    0.66    0.46
   1   0  12    0.50    0.34
  -1   0 -12    0.67    0.47
   1   0  12   -0.52    0.51
   1   0  13   54.97    1.66
   1   0  13   53.52    1.86
  -1   0 -13   54.74    2.00
   1   0  13   52.48    2.00
   1   0  14    0.35    0.42
   1   0  14    0.27    0.36
  -1   0 -14    0.22    0.44
   1   0  14    0.20    0.46
   1   0  15   47.65    1.66
   1   0  15   47.53    1.88
  -1   0 -15   48.27    2.00
   1   0  15   47.78    2.03
   1   0  16    0.62    0.38
   1   0  16    0.50    0.46
  -1   0 -16    0.06    0.44
   1   0  16   -0.08    0.45
   1   0  17   67.60    2.37
   1   0  17   65.00    2.09
  -1   0 -17   69.08    2.54
   1   0  17   70.99    2.65
   1   0  18    1.04    0.45
   1   0  18    0.19    0.52
  -1   0 -18    1.02    0.66
   1   0  18    0.80    0.61
   1   0  19   67.39    2.23
   1   0  19   72.31    2.59
  -1   0 -19   68.34    2.68
   1   0  19   67.53    2.74
   1   0  20    0.64    0.49
   1   0  20    0.05    0.42
  -1   0 -20    0.57    0.52
   1   0  20    0.49    0.55
   1   0  21    0.36    0.41
   1   0  21   -0.10    0.51
  -1   0 -21   -0.14    0.54
   1   0  21    0.70    0.67
   1   0  22    0.44    0.67
   1   0  22   -0.15    0.47
   1   0  22   -0.37    0.58
   1   0  23   43.00    2.43
   1   0  23   43.43    2.19
   1   0  23   42.77    1.92
   1   0  24    1.77    0.87
   1   0  24    0.49    0.47
   1   0  24    0.70    0.65
   1   0  25    4.11    0.94
   1   0  25    3.46    0.68
   1   0  25    3.78    0.87
   1   0  26    0.53    0.80
   1   0  26   -0.05    0.59
   1   0  27   -0.37    0.70
   1   0  27   -0.46    0.66
   1   0  28   -0.19    0.71
   1   0  28   -0.79    0.73
   1   0  29   -0.40    0.80
   1   0  29    0.45    0.63
   1   0  30    0.17    0.77
   1   0  30    0.93    0.69
   1   0  31   33.57    2.61
   1   0  32    1.21    1.13
   1   0  33    2.06    0.95
  -1  -1  33   -0.53    0.89
  -1   1  33    1.18    1.07
  -1   1  32   17.67    2.05
  -1  -1  32   16.98    2.01
  -1   1  32   15.99    1.66
  -1   1  31    4.53    1.10
  -1  -1  31    5.84    1.24
  -1   1  31    5.63    1.15
  -1  -1  30    1.23    0.96
  -1   1  30    0.87    0.78
  -1   1  30    1.56    0.70
  -1  -1  29    9.34    1.48
  -1   1  29    8.53    1.41
  -1   1  29    9.07    1.27
  -1   1  28    6.29    1.25
  -1  -1  28    6.77    1.27
  -1   1  28    7.13    1.13
  -1  -1  28    7.07    0.94
  -1  -1  27    5.94    1.28
  -1   1  27    5.58    1.09
  -1   1  27    4.46    0.85
  -1  -1  27    5.35    0.80
  -1   1  26    6.31    1.29
  -1  -1  26    3.30    0.99
  -1   1  26    6.33    0.95
  -1   1  26    7.46    1.06
  -1  -1  26    7.57    0.88
  -1   1  25   13.00    1.33
  -1   1  25   10.50    1.09
  -1   1  25    9.79    1.32
  -1  -1  25   10.31    1.41
   1   1 -25   10.06    1.12
  -1  -1  25   10.70    0.99
  -1  -1  24    2.85    0.60
  -1  -1  24    2.94    0.78
  -1   1  24    2.16    0.75
  -1   1  24    1.66    0.56
  -1  -1  24    3.20    1.04
   1   1 -24    2.01    0.66
  -1   1  23  116.61    3.53
  -1   1  23  122.47    3.85
  -1  -1  23  120.49    3.75
  -1  -1  23  120.42    4.29
   1   1 -23  117.63    3.57
  -1  -1  23  127.29    3.28
  -1   1  22    1.40    0.65
  -1  -1  22    2.14    0.70
  -1   1  22    0.66    0.54
  -1  -1  22    1.77    0.53
   1   1 -22    1.23    0.60
  -1   1  22    1.56    0.77
  -1  -1  22    1.61    0.87
  -1  -1  21    8.11    0.79
  -1   1  21    8.24    0.92
  -1  -1  21    5.98    0.85
  -1   1  21    7.78    1.02
  -1  -1  21    6.92    1.09
   1   1 -21    8.17    0.90
  -1   1  21    9.38    1.13
  -1   1  20   27.34    1.56
  -1  -1  20   27.18    1.63
  -1  -1  20   28.63    1.90
   1   1 -20   29.63    1.57
  -1   1  20   29.23    1.84
   1  -1 -20   32.54    1.91
  -1  -1  20   27.96    1.38
  -1  -1  19    2.09    0.46
  -1  -1  19    2.44    0.65
  -1  -1  19    1.60    0.65
  -1   1  19    1.02    0.56
   1   1 -19    2.42    0.57
   1  -1 -19    1.88    0.63
  -1  -1  18   35.90    1.77
  -1  -1  18   36.81    2.05
   1  -1 -18   34.86    1.90
   1   1 -18   35.98    1.63
  -1   1  18   37.68    1.98
  -1  -1  18   35.83    1.46
  -1  -1  17   35.49    1.71
  -1  -1  17   35.37    1.94
   1  -1 -17   35.24    1.84
  -1   1  17   33.81    1.84
   1   1 -17   35.52    1.58
  -1  -1  17   37.26    1.43
  -1  -1  16    0.95    0.37
  -1  -1  16    0.24    0.42
  -1   1  16    1.03    0.62
   1   1 -16    0.11    0.33
   1  -1 -16    0.67    0.57
  -1  -1  16    0.17    0.55
  -1  -1  15    0.81    0.34
  -1  -1  15    0.81    0.49
   1   1 -15    0.50    0.45
  -1  -1  15    0.31    0.52
   1   1 -15    0.61    0.32
   1  -1 -15    0.34    0.44
  -1   1  15    1.21    0.56
  -1  -1  14   20.54    1.23
   1   1 -14   20.27    1.24
  -1  -1  14   20.30    1.38
   1  -1 -14   21.63    1.35
  -1   1  14   21.05    1.33
   1   1 -14   21.32    1.07
  -1  -1  14   21.48    0.96
   1   1 -13   19.00    1.18
  -1  -1  13   19.33    1.16
  -1  -1  13   21.05    1.36
  -1   1  13   20.36    1.25
   1   1 -13   18.95    0.99
   1  -1 -13   20.07    1.25
  -1  -1  13   19.20    0.87
  -1  -1  12   41.67    1.64
   1   1 -12   41.14    1.69
  -1  -1  12   45.04    1.88
  -1   1  12   42.34    1.79
   1   1 -12   43.97    1.44
   1  -1 -12   43.44    1.77
  -1  -1  12   41.14    1.23
   1   1 -11   31.24    1.41
  -1  -1  11   31.78    1.41
   1   1 -11   30.80    1.51
  -1  -1  11   29.28    1.49
   1   1 -11   30.54    1.14
  -1   1  11   31.18    1.48
   1  -1 -11   29.94    1.42
  -1  -1  11   31.52    1.01
  -1  -1  10    9.55    0.80
   1   1 -10    7.40    0.47
   1   1 -10    8.09    0.81
  -1  -1  10    9.13    0.89
   1   1 -10    9.21    0.87
  -1   1  10    8.26    0.83
   1  -1 -10    8.08    0.76
   1   1 -10    8.12    0.59
  -1  -1  10    7.71    0.49
   1   1  -9    0.63    0.22
   1   1  -9    1.19    0.54
  -1  -1   9    1.21    0.45
   1   1  -9    1.06    0.45
  -1  -1   9    1.04    0.56
   1  -1  -9    0.35    0.45
   1   1  -9    0.93    0.29
  -1   1   9    0.62    0.50
  -1  -1   9    1.23    0.28
  -1  -1   8    3.14    0.55
   1   1  -8    3.49    0.31
   1   1  -8    3.08    0.58
   1   1  -8    3.37    0.57
  -1  -1   8    3.35    0.34
  -1  -1   8    2.94    0.65
  -1   1   8    2.86    0.63
   1  -1  -8    2.77    0.52
  -1  -1   8    3.13    0.32
  -1  -1   7    3.64    0.56
   1   1  -7    2.61    0.54
   1   1  -7    3.29    0.29
   1   1  -7    3.01    0.52
  -1  -1   7    3.27    0.61
  -1  -1   7    3.21    0.32
  -1   1   7    3.23    0.67
   1  -1  -7    3.75    0.55
  -1  -1   7    3.08    0.29
  -1  -1   6   15.57    0.86
   1   1  -6   13.46    0.85
   1   1  -6   13.21    0.86
  -1  -1   6   13.15    0.88
  -1  -1   6   12.62    0.51
  -1   1   6   13.18    0.91
   1  -1  -6   15.41    0.87
   1   1  -6   12.59    0.47
  -1  -1   6   13.49    0.47
   1   1  -5    0.05    0.47
   1   1  -5    0.17    0.36
   1   1  -5    0.16    0.20
  -1  -1   5    0.67    0.39
  -1  -1   5    0.16    0.49
  -1   1   5    0.33    0.47
   1  -1  -5    0.12    0.37
   1   1  -5    0.18    0.17
   1   1  -4   -0.37    0.44
  -1  -1   4    0.60    0.40
  -1  -1   4   -0.11    0.45
   1   1  -4    0.20    0.20
   1   1  -4    0.04    0.35
   1  -1  -4    0.22    0.34
  -1   1   4   -0.35    0.45
   1   1  -3    1.87    0.40
   1   1  -3    2.25    0.54
  -1  -1   3    1.97    0.45
   1  -1  -3    1.88    0.41
  -1   1   3    1.57    0.49
   1   1  -3    1.73    0.23
   1   1  -2    4.09    0.57
   1   1  -2    2.24    0.37
   1   1  -2    2.44    0.27
  -1   1   2    2.76    0.47
   1  -1  -2    2.03    0.41
  -1  -1   2    2.33    0.25
   1   1  -1    5.17    0.37
  -1  -1   1    5.31    0.36
  -1   1   1    5.24    0.51
   1  -1  -1    4.51    0.45
   1   1   0   -0.02    0.33
  -1  -1   0    0.14    0.23
  -1   1   0    0.11    0.31
   1  -1   0   -0.06    0.28
   1   1   1    0.55    0.33
  -1  -1  -1    1.39    0.31
  -1   1  -1    0.70    0.33
   1   1   2   -0.24    0.42
  -1  -1  -2    0.15    0.32
  -1   1  -2    0.43    0.27
  -1   1  -3    0.32    0.36
  -1  -1  -3   -0.03    0.31
   1   1   3    0.17    0.41
  -1   1  -3    0.08    0.27
   1  -1   3   -0.24    0.31
   1  -1   4    2.45    0.51
  -1   1  -4    2.64    0.46
  -1  -1  -4    2.79    0.51
   1   1   4    2.95    0.54
   1  -1   4    3.17    0.41
  -1   1  -4    2.64    0.37
  -1   1  -5    3.09    0.56
  -1   1  -5    1.68    0.47
   1  -1   5    2.18    0.55
  -1  -1  -5    1.93    0.49
   1   1   5    2.41    0.60
   1  -1   5    2.37    0.42
  -1   1  -5    2.27    0.39
  -1   1  -6    1.50    0.45
  -1   1  -6    1.23    0.35
   1  -1   6    1.61    0.51
  -1   1  -6    0.60    0.42
  -1  -1  -6    1.63    0.49
   1   1   6    2.04    0.65
   1  -1   6    0.61    0.35
  -1   1  -7    0.59    0.45
  -1   1  -7    0.60    0.33
  -1   1  -7    0.19    0.37
   1  -1   7    1.25    0.56
   1   1   7    0.68    0.61
  -1  -1  -7    0.49    0.41
   1  -1   7    1.31    0.40
  -1   1  -8   -0.57    0.48
  -1   1  -8    0.03    0.30
   1  -1   8    0.45    0.47
  -1   1  -8   -0.24    0.39
   1   1   8    0.26    0.59
  -1  -1  -8    0.34    0.43
   1  -1   8   -0.14    0.33
  -1   1  -9    0.36    0.36
  -1   1  -9    0.22    0.45
   1  -1   9    0.47    0.47
   1  -1   9    0.67    0.40
  -1   1  -9    0.07    0.42
   1   1   9    0.15    0.53
  -1  -1  -9    0.00    0.40
   1  -1   9    0.42    0.34
  -1   1 -10   24.84    1.17
  -1   1 -10   22.88    1.04
   1  -1  10   23.95    1.14
   1  -1  10   25.72    1.35
  -1   1 -10   23.86    1.30
  -1  -1 -10   24.29    1.31
   1   1  10   25.49    1.40
   1  -1  10   25.68    1.09
  -1   1 -11   37.00    1.35
   1  -1  11   38.95    1.49
  -1   1 -11   37.27    1.47
  -1   1 -11   39.81    1.71
   1  -1  11   38.57    1.71
   1   1  11   36.69    1.73
  -1  -1 -11   39.01    1.70
   1  -1  11   38.51    1.39
  -1   1 -12   45.82    1.68
  -1   1 -12   47.25    1.58
   1  -1  12   50.65    1.75
   1  -1  12   50.19    2.03
  -1   1 -12   51.34    2.02
   1   1  12   49.55    2.06
  -1  -1 -12   52.37    2.03
   1  -1  12   51.47    1.67
   1  -1  13    8.45    0.80
  -1   1 -13    7.46    0.80
  -1   1 -13    7.11    0.68
   1  -1  13    8.93    0.98
  -1  -1 -13    9.10    0.98
  -1   1 -13    8.32    0.81
   1   1  13    8.03    0.96
   1  -1  13    8.45    0.79
   1  -1  14    8.87    0.83
  -1   1 -14    7.29    0.76
   1  -1  14    8.30    0.92
  -1   1 -14    8.50    0.81
   1   1  14    9.49    1.02
  -1  -1 -14    9.46    0.97
   1  -1  14    8.57    0.76
   1  -1  15    0.81    0.42
  -1   1 -15   -0.07    0.39
   1  -1  15    0.37    0.51
   1  -1  15    0.83    0.44
  -1   1 -15    0.30    0.36
   1   1  15    0.51    0.58
  -1  -1 -15    0.35    0.43
  -1   1 -16   37.15    1.65
   1  -1  16   36.52    1.63
   1   1  16   35.98    1.81
   1  -1  16   37.06    1.94
  -1  -1 -16   34.95    1.85
   1   1  16   38.72    1.99
  -1   1 -16   34.87    1.68
   1  -1  16   35.52    1.55
   1  -1  17    1.08    0.52
   1   1  17    0.19    0.45
   1   1  17    0.97    0.39
  -1  -1 -17   -0.01    0.47
   1   1  17    1.77    0.66
  -1   1 -17    0.22    0.39
   1  -1  17    0.77    0.57
   1  -1  17    1.50    0.53
   1  -1  18    0.63    0.47
   1   1  18    0.20    0.37
   1   1  18    1.39    0.60
   1  -1  18    0.95    0.51
   1  -1  18    0.25    0.57
  -1  -1 -18   -0.09    0.52
  -1   1 -18    0.67    0.52
   1   1  19   14.23    1.03
   1   1  19   14.05    1.27
   1  -1  19   17.15    1.24
   1  -1  19   15.55    1.43
  -1   1 -19   16.57    1.25
   1  -1  19   16.56    1.16
   1   1  20   23.98    1.67
   1  -1  20   25.03    1.50
   1   1  20   21.87    1.27
   1  -1  20   23.96    1.79
  -1   1 -20   22.93    1.52
   1  -1  20   23.58    1.43
   1  -1  21   10.09    0.98
   1   1  21   10.94    1.24
   1   1  21    9.18    0.89
   1  -1  21   10.93    1.31
   1  -1  21    9.92    1.03
  -1   1 -21   11.05    1.15
   1   1  22    2.71    0.58
   1   1  22    3.67    0.88
   1  -1  22    3.18    0.90
   1   1  22    2.14    0.81
   1  -1  22    4.54    0.78
  -1   1 -22    3.54    0.74
   1  -1  22    3.63    0.75
   1  -1  23    3.73    0.81
   1   1  23    2.30    0.84
   1  -1  23    2.58    0.84
   1   1  23    1.68    0.52
   1   1  23    2.20    0.78
   1  -1  23    2.99    0.71
   1   1  24   22.96    1.83
   1  -1  24   26.73    2.07
   1   1  24   26.75    1.88
   1  -1  24   26.82    1.68
   1   1  24   25.01    1.48
   1  -1  24   25.67    1.59
   1  -1  25    1.21    0.84
   1  -1  25    0.64    0.56
   1   1  25    0.43    0.72
   1   1  25   -0.16    0.46
   1   1  25    1.05    0.76
   1  -1  25    0.69    0.57
   1  -1  26   22.13    1.97
   1   1  26   22.09    1.95
   1   1  26   20.64    1.73
   1  -1  26   20.16    1.52
   1  -1  27    5.88    1.24
   1   1  27    8.05    1.34
   1   1  27    7.08    1.19
   1  -1  27    8.88    1.11
   1   1  28   39.59    2.66
   1  -1  28   43.22    2.82
   1   1  28   39.55    2.51
   1  -1  28   44.45    2.30
   1   1  29    0.49    0.77
   1   1  29    0.79    0.81
   1  -1  29    1.00    0.81
   1   1  30    8.76    1.32
   1   1  30    7.59    1.28
   1  -1  30    6.21    1.22
   1   1  31   14.23    1.68
   1  -1  31   13.66    1.85
   1   1  31   11.80    1.60
   1   1  32    0.44    0.89
   1   1  32   -0.70    0.83
   1  -1  32    0.06    0.82
   1   1  33    3.00    1.07
   1  -1  33    1.66    1.09
   1   1  34   24.05    2.38
  -1   2  33    0.98    0.83
  -1   2  33    1.23    1.02
  -1   2  32   21.89    2.11
  -1   2  32   21.67    2.24
  -1   2  31    4.75    1.14
  -1  -2  31    5.60    1.31
  -1   2  31    2.65    1.05
  -1   2  30    4.69    1.09
  -1  -2  30    7.52    1.48
  -1   2  29    6.29    1.21
  -1  -2  29    7.89    1.52
  -1   2  28   20.06    1.87
  -1  -2  28   24.51    2.25
  -1   2  27   -0.80    0.82
  -1  -2  27    0.06    0.83
  -1   2  27    0.45    0.76
  -1   2  26   -0.09    0.66
  -1  -2  26    1.38    0.83
  -1   2  26    1.38    0.88
  -1  -2  26    0.14    0.36
  -1   2  25   11.95    1.23
  -1  -2  25   13.57    1.64
  -1   2  25   13.84    1.60
   1   2 -25   10.46    1.07
  -1  -2  25   14.06    1.00
  -1  -2  24  109.13    4.31
  -1  -2  24  104.41    2.87
   1   2 -24  103.62    3.27
  -1   2  24  110.71    4.23
  -1  -2  24  111.63    2.80
  -1  -2  23    2.22    0.98
  -1  -2  23    1.39    0.45
   1   2 -23    1.26    0.57
  -1   2  23    2.17    0.97
  -1  -2  23    1.73    0.44
   1   2 -22    0.55    0.71
  -1  -2  22    0.88    0.40
  -1  -2  22    1.51    0.84
  -1   2  22    2.09    0.93
   1   2 -22    2.08    0.61
  -1  -2  22    1.28    0.46
   1   2 -21    8.02    1.10
  -1  -2  21    7.68    0.71
  -1  -2  21    7.86    1.17
   1   2 -21    7.48    0.82
  -1   2  21    7.53    1.17
  -1  -2  21    7.42    0.67
   1   2 -20   21.89    1.61
  -1  -2  20   25.07    1.68
  -1  -2  20   22.49    1.83
  -1  -2  20   21.41    1.09
   1   2 -20   21.80    1.29
  -1   2  20   21.31    1.73
  -1  -2  20   23.17    1.10
   1   2 -19    2.10    0.70
  -1  -2  19    2.47    0.45
  -1  -2  19    3.47    0.80
  -1  -2  19    1.64    0.75
  -1   2  19    2.66    0.87
   1   2 -19    3.23    0.56
  -1  -2  19    2.65    0.47
   1   2 -18   81.84    2.99
  -1  -2  18   81.83    2.07
  -1  -2  18   84.41    3.00
  -1  -2  18   81.12    3.24
  -1   2  18   82.67    3.20
   1   2 -18   79.38    2.40
  -1  -2  18   82.67    2.10
   1   2 -17   11.07    1.12
  -1  -2  17   11.29    0.72
  -1  -2  17   12.55    1.34
   1   2 -17   11.53    1.26
  -1  -2  17   11.15    1.17
   1  -2 -17   12.43    1.25
   1   2 -17   10.95    0.87
  -1   2  17   11.80    1.33
  -1  -2  17   11.55    0.76
   1   2 -16  158.22    4.18
   1   2 -16  153.63    3.04
   1   2 -16  167.48    4.57
  -1  -2  16  165.86    4.56
  -1  -2  16  162.96    4.21
  -1  -2  16  159.96    3.00
   1   2 -16  158.45    3.43
  -1   2  16  164.27    4.43
   1  -2 -16  168.72    4.50
  -1  -2  16  164.99    3.09
   1   2 -15    3.37    0.41
   1   2 -15    4.15    0.77
   1   2 -15    4.55    0.86
  -1  -2  15    3.32    0.40
  -1  -2  15    4.43    0.89
   1  -2 -15    5.13    0.86
   1   2 -15    4.09    0.55
  -1   2  15    3.73    0.82
  -1  -2  15    3.95    0.46
   1   2 -14   18.34    0.84
   1   2 -14   20.54    1.36
  -1  -2  14   19.15    0.80
  -1  -2  14   20.30    1.51
   1   2 -14   19.94    1.46
   1  -2 -14   20.66    1.54
  -1   2  14   20.50    1.47
  -1  -2  14   18.77    0.86
   1   2 -13   44.44    1.95
   1   2 -13   40.78    1.27
  -1  -2  13   44.91    2.12
   1   2 -13   44.25    2.11
   1  -2 -13   43.34    2.01
  -1   2  13   44.12    2.05
  -1  -2  13   42.60    1.28
   1   2 -12   40.44    1.83
  -1  -2  12   39.86    1.98
   1   2 -12   40.01    1.91
  -1   2  12   42.34    1.94
   1  -2 -12   43.67    1.97
   1   2 -12   37.26    1.20
   1   2 -11    9.93    1.01
  -1  -2  11   10.13    1.07
   1   2 -11   11.25    1.02
  -1   2  11    9.93    0.99
   1  -2 -11   10.75    1.01
   1   2 -11    9.55    0.59
   1   2 -10  117.95    3.15
   1   2 -10  119.98    3.31
  -1  -2  10  124.94    3.36
  -1   2  10  119.49    3.27
   1  -2 -10  126.61    3.31
   1   2 -10  114.70    2.30
   1   2  -9    3.13    0.69
  -1  -2   9    3.72    0.76
   1   2  -9    2.67    0.68
   1  -2  -9    3.80    0.70
  -1   2   9    4.76    0.78
   1   2  -9    2.49    0.37
   1   2  -8   94.86    2.71
   1   2  -8   91.20    1.64
  -1  -2   8   93.01    2.74
   1   2  -8   89.86    2.71
   1  -2  -8   97.47    2.71
  -1   2   8   92.50    2.72
   1   2  -8   88.22    1.93
   1   2  -8   94.04    1.95
   1   2  -7    3.27    0.67
  -1  -2   7    3.42    0.70
   1   2  -7    2.24    0.60
   1   2  -7    2.43    0.28
   1  -2  -7    3.54    0.62
  -1   2   7    3.14    0.74
   1   2  -7    3.36    0.44
   1   2  -7    3.19    0.44
   1   2  -6   31.73    1.55
   1   2  -6   30.00    1.48
  -1   2   6   31.83    1.47
   1  -2  -6   35.62    1.53
   1   2  -6   29.59    1.06
   1   2  -6   31.51    1.01
   1   2  -5    0.10    0.55
   1   2  -5    0.14    0.45
   1  -2  -5    1.01    0.51
  -1   2   5   -0.15    0.56
   1   2  -5    0.61    0.30
   1   2  -4   26.80    1.33
  -1   2   4   30.41    1.35
   1  -2  -4   31.55    1.36
   1   2  -4   28.29    0.99
  -1  -2   4   27.47    1.00
   1   2  -3    1.46    0.51
  -1   2   3    0.06    0.57
   1   2  -3    0.93    0.38
  -1  -2   3    0.89    0.34
   1  -2  -3    1.07    0.43
  -1  -2   2   23.57    0.96
   1   2  -2   24.93    0.98
   1  -2  -2   25.45    1.19
  -1   2   2   26.69    1.22
   1   2  -1    0.38    0.39
  -1   2   1    0.94    0.54
  -1  -2   1    1.13    0.39
   1  -2  -1    0.70    0.41
  -1  -2   0    0.10    0.35
   1   2   0    0.20    0.43
  -1   2   0   -0.29    0.51
   1  -2   0   -0.07    0.39
  -1  -2  -1    0.48    0.37
   1   2   1   -0.27    0.52
  -1   2  -1    0.08    0.48
   1  -2   1    0.09    0.36
   1   2   2   -0.12    0.50
  -1  -2  -2    0.49    0.40
  -1   2  -2    0.03    0.44
   1  -2   2    0.58    0.39
   1   2   3    6.64    0.74
  -1  -2  -3    6.69    0.68
  -1   2  -3    5.84    0.64
  -1   2  -4   17.88    1.15
   1   2   4   19.68    1.15
  -1  -2  -4   21.79    1.12
  -1   2  -4   19.34    0.97
  -1   2  -4   18.64    0.95
  -1   2  -5    4.30    0.67
  -1  -2  -5    4.27    0.63
   1   2   5    4.62    0.71
  -1   2  -5    3.99    0.52
  -1   2  -5    4.52    0.60
  -1   2  -6   30.53    1.52
   1   2   6   32.67    1.52
  -1  -2  -6   36.95    1.55
  -1   2  -6   29.95    1.20
  -1   2  -7    0.78    0.64
  -1   2  -7    0.08    0.51
  -1  -2  -7    0.07    0.44
   1   2   7    0.39    0.55
  -1   2  -7    0.18    0.33
  -1   2  -8    2.96    0.66
  -1   2  -8    1.67    0.54
  -1  -2  -8    2.77    0.59
   1   2   8    2.86    0.63
   1  -2   8    2.34    0.45
  -1   2  -8    2.11    0.40
  -1   2  -9    0.31    0.51
   1  -2   9    1.23    0.58
  -1   2  -9    1.08    0.53
   1   2   9    1.19    0.60
  -1  -2  -9    0.80    0.56
  -1   2  -9   -0.01    0.31
   1  -2   9    0.58    0.35
  -1   2 -10    2.95    0.63
   1  -2  10    3.87    0.76
  -1   2 -10    3.49    0.69
  -1  -2 -10    4.24    0.71
   1   2  10    3.42    0.69
   1  -2  10    3.74    0.51
  -1   2 -10    3.11    0.47
  -1   2 -11    0.14    0.28
  -1   2 -11   -0.01    0.47
  -1   2 -11    0.13    0.46
   1  -2  11    0.25    0.55
  -1  -2 -11    0.82    0.51
   1   2  11    0.41    0.62
   1  -2  11    1.10    0.38
  -1   2 -12    0.29    0.51
  -1   2 -12    0.50    0.31
  -1   2 -12    0.19    0.49
   1  -2  12    1.08    0.55
   1   2  12    0.19    0.54
  -1  -2 -12    1.14    0.58
   1  -2  12    0.60    0.32
  -1   2 -13   -0.34    0.53
  -1   2 -13    0.12    0.29
   1  -2  13    0.27    0.62
   1  -2  13    0.23    0.16
  -1   2 -13    0.68    0.46
  -1  -2 -13    0.95    0.55
   1   2  13    1.25    0.63
   1  -2  13    0.45    0.37
  -1   2 -14   39.69    1.54
  -1   2 -14   38.34    1.85
   1  -2  14   38.12    0.96
  -1   2 -14   39.33    2.06
   1  -2  14   39.69    2.07
   1   2  14   41.80    2.12
  -1  -2 -14   44.22    2.13
   1  -2  14   40.59    1.54
  -1   2 -15    8.10    0.96
  -1   2 -15    7.69    0.71
   1  -2  15    7.21    0.45
   1  -2  15    8.49    1.09
  -1   2 -15    9.00    1.07
   1   2  15    9.22    1.17
  -1  -2 -15    9.73    1.14
   1  -2  15    7.44    0.73
  -1   2 -16   27.36    1.61
  -1   2 -16   26.88    1.31
   1  -2  16   30.02    1.86
  -1   2 -16   30.15    1.88
   1  -2  16   30.21    0.97
  -1  -2 -16   28.94    1.86
   1   2  16   25.05    1.78
   1  -2  16   30.68    1.38
  -1   2 -17    0.64    0.55
  -1   2 -17    0.82    0.39
   1  -2  17    0.14    0.57
   1  -2  17    0.25    0.22
   1   2  17    1.00    0.75
  -1   2 -17    0.62    0.43
   1  -2  17    0.46    0.36
  -1   2 -18    0.58    0.38
  -1   2 -18    1.32    0.63
   1  -2  18    1.15    0.61
  -1   2 -18    1.12    0.51
   1   2  18    1.18    0.73
   1  -2  18    1.39    0.45
  -1   2 -19    7.24    0.98
   1  -2  19    6.46    1.05
   1   2  19    6.68    1.10
  -1   2 -19    6.76    0.83
   1  -2  19    7.85    0.79
  -1   2 -20   14.02    1.26
   1  -2  20   15.89    1.54
  -1   2 -20   14.48    1.19
   1   2  20   14.37    1.52
   1  -2  20   16.41    1.12
  -1   2 -21   10.35    1.20
   1  -2  21   11.45    1.47
   1   2  21   11.94    1.46
  -1   2 -21   10.24    1.08
   1  -2  21   11.59    1.00
  -1   2 -22   68.75    2.85
   1   2  22   68.75    3.17
   1  -2  22   68.59    3.27
  -1   2 -22   67.26    2.69
   1   2  22   64.53    3.17
   1  -2  22   72.22    2.44
   1   2  23    3.75    1.00
   1   2  23    4.79    0.74
   1  -2  23    4.75    1.09
  -1   2 -23    3.47    0.73
   1   2  23    3.57    1.00
   1  -2  23    4.14    0.71
   1   2  24    0.97    0.66
   1  -2  24    1.45    0.85
  -1   2 -24    1.51    0.64
   1  -2  24    0.97    0.49
   1  -2  25    0.15    0.80
   1   2  25    0.50    0.74
   1  -2  25    1.36    0.52
   1  -2  26   -0.46    0.81
   1   2  26   -0.11    0.79
   1  -2  26    0.07    0.45
   1   2  27    2.71    0.87
   1  -2  27    3.02    1.05
   1   2  28    4.70    1.14
   1   2  28    2.91    0.99
   1  -2  28    1.70    1.01
   1   2  29   -0.25    0.77
   1  -2  29    1.87    1.04
   1   2  29    2.07    0.96
   1   2  30    5.72    1.19
   1  -2  30    6.60    1.40
   1   2  30    7.90    1.36
   1   2  31    4.74    1.22
   1   2  31    4.42    1.20
   1  -2  31    4.60    1.23
   1   2  32   10.76    1.63
   1   2  32   11.14    1.67
   1   2  33    3.49    1.18
   1   2  33    2.31    1.08
  -1   3  32    3.41    1.19
  -1   3  31   -0.47    0.77
  -1   3  30    1.07    0.86
  -1   3  30    2.47    1.12
  -1   3  29    8.05    1.36
  -1   3  29    8.25    1.50
  -1  -3  29   10.49    1.79
  -1   3  28   12.18    1.69
  -1  -3  28    9.08    1.58
  -1   3  27    9.19    1.56
  -1  -3  27   10.09    1.59
   1   3 -26    0.27    0.76
  -1   3  26   -0.37    0.89
  -1  -3  26    0.72    0.95
   1   3 -25    1.38    0.70
  -1   3  25    1.42    0.92
  -1  -3  25    0.33    0.76
   1   3 -24    0.72    0.82
  -1   3  24    0.26    0.78
  -1  -3  24    0.14    0.79
   1   3 -23    0.49    0.76
  -1   3  23    0.30    0.77
  -1  -3  23    0.93    0.91
   1   3 -22    5.88    1.13
  -1   3  22    3.94    1.03
   1   3 -22    4.86    0.69
  -1  -3  22    5.61    1.16
   1   3 -21    0.67    0.71
   1   3 -21    1.54    0.43
  -1   3  21    2.17    0.77
  -1  -3  21    1.97    0.81
   1   3 -20    3.62    0.88
  -1   3  20    5.14    1.10
   1   3 -20    3.08    0.55
  -1  -3  20    4.24    1.00
   1   3 -19   14.56    1.49
   1   3 -19   15.02    0.87
  -1   3  19   15.53    1.61
   1   3 -19   12.69    0.96
  -1  -3  19   15.06    1.59
   1   3 -18    4.71    0.53
   1   3 -18    3.71    0.88
  -1   3  18    2.65    0.82
   1   3 -18    3.84    0.57
  -1  -3  18    3.10    0.90
   1   3 -17   -0.01    0.25
   1   3 -17   -0.55    0.72
  -1   3  17   -0.35    0.70
  -1  -3  17   -0.06    0.68
   1   3 -16    4.92    0.93
   1   3 -16    5.68    0.57
  -1  -3  16    4.92    0.97
  -1   3  16    4.82    0.96
   1   3 -15   14.23    1.35
  -1  -3  15   15.72    1.45
  -1   3  15   15.37    1.45
   1   3 -15   15.64    0.90
   1   3 -14    4.22    0.52
   1   3 -14    4.28    0.85
  -1  -3  14    7.64    1.12
  -1   3  14    4.75    0.92
   1   3 -14    5.84    0.62
   1   3 -13   14.90    1.35
   1   3 -13   15.16    1.39
  -1  -3  13   14.22    1.48
   1  -3 -13   14.73    1.36
  -1   3  13   13.32    1.35
   1   3 -13   12.06    0.80
   1   3 -13   15.03    0.90
   1   3 -12    0.03    0.58
   1   3 -12    0.67    0.52
  -1   3  12    0.64    0.63
   1  -3 -12    0.15    0.51
   1   3 -12    0.71    0.34
   1   3 -12    0.27    0.29
   1   3 -11   14.17    1.30
   1   3 -11   13.34    1.24
   1  -3 -11   13.72    1.22
  -1   3  11   12.50    1.19
   1   3 -11   13.71    0.81
   1   3 -11   12.77    0.82
   1   3 -10    7.44    0.97
   1   3 -10    9.41    1.05
   1  -3 -10    9.75    0.99
  -1   3  10    8.48    1.03
   1   3 -10    8.24    0.68
   1   3 -10    8.37    0.67
   1   3  -9    0.33    0.60
   1   3  -9    0.22    0.20
   1   3  -9    0.01    0.51
   1  -3  -9    0.25    0.52
  -1   3   9    0.06    0.56
   1   3  -9    0.43    0.31
   1   3  -9    0.07    0.28
   1   3  -8   12.48    1.20
   1   3  -8   11.37    1.16
  -1   3   8   10.96    1.10
   1  -3  -8   12.05    1.09
   1   3  -8   11.93    0.77
   1   3  -8   12.55    0.85
   1   3  -7    0.75    0.65
   1   3  -7    0.60    0.46
  -1   3   7   -0.02    0.54
   1  -3  -7   -0.10    0.49
   1   3  -7    0.21    0.31
   1   3  -7    0.13    0.34
   1   3  -6   -0.03    0.57
   1   3  -6    0.03    0.48
   1  -3  -6    0.42    0.48
  -1   3   6    0.69    0.53
   1   3  -6   -0.09    0.32
   1   3  -5    9.43    0.97
   1   3  -5    8.36    0.69
  -1   3   5    7.16    0.88
   1  -3  -5    9.05    0.92
   1   3  -4    1.37    0.57
   1   3  -4    1.06    0.44
  -1   3   4    1.29    0.59
   1  -3  -4    1.68    0.57
  -1  -3   4    1.34    0.41
   1   3  -3    7.35    0.73
  -1   3   3    5.54    0.75
  -1  -3   3    5.45    0.62
   1  -3  -3    5.78    0.78
   1   3  -2    4.09    0.67
  -1   3   2    1.55    0.52
  -1  -3   2    2.35    0.54
   1  -3  -2    2.29    0.54
   1   3  -1    0.23    0.43
  -1   3   1    1.89    0.66
   1  -3  -1    1.15    0.53
  -1  -3   1    0.64    0.42
  -1   3   0   31.46    1.49
   1   3   0   27.88    1.36
  -1  -3   0   28.84    1.37
   1  -3   0   30.80    1.46
  -1   3  -1    2.68    0.68
   1   3   1    2.40    0.65
  -1  -3  -1    2.38    0.54
   1  -3   1    2.06    0.52
  -1  -3  -2   17.24    1.12
  -1   3  -2   16.92    1.07
   1   3   2   15.74    1.08
   1  -3   2   16.51    1.08
   1   3   3    2.04    0.57
  -1  -3  -3    2.56    0.57
  -1   3  -3    2.71    0.56
  -1   3  -4   31.35    1.45
   1   3   4   29.55    1.56
  -1  -3  -4   31.76    1.58
  -1   3  -5    0.13    0.46
   1   3   5    0.19    0.52
  -1  -3  -5    0.03    0.44
  -1   3  -5    0.22    0.41
  -1   3  -5    0.06    0.35
  -1   3  -6   49.85    2.23
  -1  -3  -6   54.74    2.16
   1   3   6   47.23    2.03
  -1   3  -6   49.67    1.85
  -1   3  -6   49.95    1.78
  -1   3  -7    8.11    0.97
  -1  -3  -7    8.75    0.95
   1   3   7    7.37    0.90
  -1   3  -7    7.44    0.75
  -1   3  -7    7.03    0.72
  -1   3  -8    1.39    0.52
  -1   3  -8    1.66    0.75
   1   3   8    1.03    0.56
  -1  -3  -8    0.64    0.43
  -1   3  -8    1.59    0.47
  -1   3  -8    1.04    0.39
  -1   3  -9    4.47    0.75
  -1   3  -9    4.94    0.86
   1   3   9    3.17    0.82
  -1  -3  -9    5.45    0.79
  -1   3  -9    4.19    0.59
  -1   3  -9    4.95    0.63
  -1   3 -10    7.57    0.96
  -1   3 -10    5.96    0.92
   1   3  10    6.24    0.92
  -1  -3 -10    7.42    0.91
  -1   3 -10    6.19    0.67
  -1   3 -10    6.72    0.70
  -1   3 -11    0.63    0.60
  -1   3 -11    0.07    0.49
  -1  -3 -11    0.96    0.61
   1   3  11    0.73    0.69
  -1   3 -11    0.99    0.41
  -1   3 -11    0.61    0.39
  -1   3 -12   19.88    1.46
  -1   3 -12   22.77    1.65
   1   3  12   22.08    1.63
  -1  -3 -12   22.74    1.63
  -1   3 -12   20.78    1.19
  -1   3 -13   -0.07    0.53
   1   3  13    1.17    0.69
  -1   3 -13    1.24    0.42
  -1   3 -14   24.21    1.68
   1   3  14   25.33    1.82
  -1   3 -14   26.10    1.34
  -1   3 -15    9.07    1.10
   1   3  15    9.07    1.23
  -1   3 -15    9.74    0.85
  -1   3 -16   11.01    0.92
  -1   3 -16   10.63    1.20
   1   3  16   12.04    1.38
   1  -3  16   11.93    1.37
  -1   3 -17   10.61    0.91
  -1   3 -17   12.13    1.29
   1   3  17   11.50    1.37
   1  -3  17   13.53    1.48
  -1   3 -18    6.52    0.76
  -1   3 -18    8.41    1.15
   1   3  18    6.94    1.13
   1  -3  18    7.52    1.22
  -1   3 -19    7.62    0.79
  -1   3 -19    9.00    1.18
   1   3  19    9.44    1.32
   1  -3  19    8.90    1.29
  -1   3 -20    5.96    1.03
  -1   3 -20    5.98    0.71
  -1   3 -20    5.45    0.77
   1   3  20    6.05    1.16
   1  -3  20    5.11    1.09
  -1   3 -21    0.07    0.38
  -1   3 -21    0.03    0.62
   1  -3  21    0.12    0.74
  -1   3 -21    0.74    0.56
   1   3  21   -0.11    0.76
  -1   3 -22   30.52    2.10
   1  -3  22   36.23    2.51
   1   3  22   33.51    2.44
  -1   3 -22   30.21    1.80
   1  -3  22   32.29    1.58
  -1   3 -23   14.00    1.48
   1  -3  23   19.48    1.98
   1   3  23   15.34    1.82
   1  -3  23   16.62    1.17
  -1   3 -24   36.97    2.36
   1   3  24   38.76    2.73
   1  -3  24   38.73    2.73
  -1   3 -25    1.58    0.83
   1   3  25    1.09    0.94
   1  -3  25    1.95    0.93
   1   3  26    5.71    1.80
  -1   3 -26    7.54    1.24
   1   3  26    8.59    1.44
   1  -3  26    7.97    1.39
   1   3  27    0.55    0.77
   1  -3  27    0.20    0.92
   1   3  28   21.57    2.13
   1  -3  28   24.26    2.34
   1   3  29    0.11    0.79
   1  -3  29   -0.02    0.88
   1   3  30   32.45    2.73
   1   3  31   15.31    1.99
   1   3  32    7.65    1.68
   1   4 -29   -1.87    1.06
   1   4 -28    9.80    1.57
   1   4 -27    0.66    0.82
   1   4 -26    3.95    1.17
  -1   4  26    3.03    1.12
   1   4 -25   15.19    1.80
  -1   4  25   18.06    2.02
   1   4 -24    5.05    1.21
  -1   4  24    6.10    1.41
   1   4 -23   28.89    2.31
  -1   4  23   29.66    2.49
   1   4 -22    7.19    1.34
  -1   4  22    7.71    1.42
   1   4 -21   10.56    1.47
  -1   4  21   12.20    1.62
   1   4 -21   12.98    0.98
   1   4 -20    0.80    0.80
  -1   4  20   -1.01    0.90
   1   4 -20   -0.40    0.39
   1   4 -19   -0.59    0.73
  -1   4  19    0.04    1.27
   1   4 -19    0.94    0.39
   1   4 -18   -0.10    0.31
   1   4 -18   -0.24    0.66
  -1   4  18   -0.79    0.88
   1   4 -18    0.05    0.39
   1   4 -17   12.96    1.52
  -1   4  17   16.28    1.69
   1   4 -17   14.75    1.00
   1   4 -17   15.32    1.03
   1   4 -16    0.86    0.36
   1   4 -16    1.60    0.85
  -1   4  16    2.14    0.92
   1   4 -16    0.64    0.40
   1   4 -15    0.24    0.68
  -1   4  15    1.88    0.81
   1   4 -15    2.44    0.53
   1   4 -15    1.69    0.45
   1   4 -14   14.18    1.50
  -1   4  14   15.04    1.56
   1   4 -14   16.66    1.04
   1   4 -14   14.83    1.02
   1   4 -13    9.64    1.25
   1   4 -13   11.42    0.87
  -1   4  13   11.73    1.40
   1   4 -13   10.33    0.90
   1   4 -12    0.75    0.74
  -1   4  12    1.88    0.77
   1   4 -12    0.97    0.40
   1   4 -12    1.94    0.47
   1   4 -11    7.12    1.14
   1   4 -11    5.69    0.38
   1   4 -11    5.72    0.65
  -1   4  11    5.90    1.02
   1   4 -11    4.56    0.65
   1   4 -10    4.13    0.95
   1   4 -10    4.97    0.41
  -1   4  10    4.86    0.86
   1   4 -10    5.49    0.64
   1   4 -10    5.69    0.71
   1   4  -9    2.64    0.80
  -1   4   9    3.53    0.88
   1   4  -9    3.98    0.58
   1   4  -9    3.30    0.56
   1   4  -8    4.27    0.90
  -1   4   8    3.48    0.82
   1   4  -8    3.49    0.57
   1   4  -8    3.84    0.61
   1   4  -7    2.93    0.85
  -1   4   7    3.88    0.81
   1   4  -7    3.75    0.55
   1  -4  -7    3.10    0.71
   1   4  -6    0.04    0.56
   1   4  -6    0.22    0.68
  -1   4   6   -0.19    0.60
   1   4  -6    0.15    0.37
   1  -4  -6    0.11    0.49
   1   4  -5    2.72    0.77
  -1   4   5    2.66    0.74
   1   4  -5    2.67    0.54
   1  -4  -5    2.61    0.66
   1   4  -4    0.74    0.65
   1   4  -4   -0.77    0.46
  -1   4   4   -0.21    0.59
  -1  -4   4    0.01    0.39
   1  -4  -4    0.14    0.51
  -1   4   3    4.04    0.77
   1   4  -3    3.99    0.63
  -1  -4   3    3.44    0.64
   1  -4  -3    5.25    0.85
  -1   4   2   11.49    1.06
   1   4  -2   10.56    0.93
   1  -4  -2   11.31    1.09
  -1  -4   2   10.63    0.96
  -1   4   1   -0.36    0.53
   1   4  -1   -0.26    0.48
   1  -4  -1   -0.03    0.44
  -1  -4   1   -0.28    0.49
  -1   4   0    5.79    0.80
   1   4   0    7.57    0.87
   1  -4   0    6.80    0.84
  -1  -4   0    7.69    0.88
   1   4   1    3.66    0.68
  -1   4  -1    3.28    0.69
   1  -4   1    4.31    0.70
  -1  -4  -1    2.96    0.61
  -1   4  -2    3.13    0.66
   1   4   2    3.51    0.68
  -1  -4  -2    3.33    0.66
   1  -4   2    3.73    0.70
  -1   4  -3    0.38    0.49
   1   4   3    0.73    0.57
  -1  -4  -3    1.25    0.49
  -1   4  -4    6.16    0.99
   1   4   4    5.43    0.82
  -1   4  -4    5.32    0.78
  -1  -4  -4    6.01    0.84
  -1   4  -5    0.97    0.47
  -1  -4  -5    0.73    0.51
   1   4   5    0.77    0.66
  -1   4  -5    0.59    0.43
  -1  -4  -6   21.74    1.55
  -1   4  -6   20.92    1.31
   1   4   6   19.33    1.48
  -1   4  -6   19.21    1.34
   1   4   7    0.41    0.61
  -1  -4  -7    1.69    0.61
  -1   4  -7    2.18    0.58
  -1   4  -7    1.62    0.52
  -1   4  -8   15.27    1.48
  -1   4  -8   15.33    1.13
   1   4   8   14.64    1.35
  -1   4  -8   14.71    1.27
  -1   4  -9    2.10    0.81
   1   4   9    1.46    0.67
  -1   4  -9    0.19    0.44
  -1   4  -9    0.79    0.45
  -1   4 -10    1.14    0.80
   1   4  10    0.60    0.61
  -1   4 -10    1.53    0.48
  -1   4 -10    1.63    0.51
  -1   4 -11    3.09    0.92
   1   4  11    1.83    0.74
  -1   4 -11    2.21    0.57
  -1   4 -11    2.45    0.59
  -1   4 -12   10.43    1.32
   1   4  12    9.22    1.26
  -1   4 -12    9.41    0.91
  -1   4 -12   10.76    0.98
  -1   4 -13   18.64    1.67
   1   4  13   20.27    1.73
  -1   4 -13   19.06    1.30
  -1   4 -13   22.61    1.33
  -1   4 -14    4.53    0.97
   1   4  14    3.04    0.86
  -1   4 -14    3.11    0.61
  -1   4 -14    4.47    0.71
  -1   4 -15    0.65    0.70
   1   4  15    0.88    0.80
  -1   4 -15    0.94    0.45
  -1   4 -15    1.43    0.52
  -1   4 -16    1.12    0.47
  -1   4 -16    0.53    0.72
   1   4  16    1.39    0.83
  -1   4 -16    0.79    0.46
  -1   4 -17    2.35    0.80
  -1   4 -17    3.10    0.64
   1   4  17    2.94    1.06
  -1   4 -17    2.62    0.59
  -1   4 -18   -0.19    0.78
   1   4  18    0.64    0.81
  -1   4 -18    0.14    0.44
  -1   4 -19    2.53    0.89
   1   4  19    1.21    0.81
  -1   4 -19    2.08    0.57
  -1   4 -20    2.03    0.88
   1   4  20    2.49    1.05
  -1   4 -20    3.17    0.70
  -1   4 -21   20.43    1.90
   1   4  21   21.69    2.10
  -1   4 -21   23.81    1.51
  -1   4 -22    1.94    0.94
   1   4  22    2.05    1.03
  -1   4 -22    2.50    0.63
  -1   4 -23   -0.97    0.85
   1   4  23    0.58    0.87
  -1   4 -24    0.42    0.93
   1   4  24   -1.20    1.04
  -1   4 -25   -0.04    0.76
   1   4  25    2.87    1.10
  -1   4 -26    0.47    0.88
  -1   4 -27   37.36    2.71
  -1   4 -28    1.11    0.92
  -1   4 -29    0.92    1.02
   1   5 -25   12.44    1.79
   1   5 -24    2.25    1.07
   1   5 -23    4.08    1.20
   1   5 -22    0.42    0.91
  -1   5  22    2.06    1.07
   1   5 -21    2.05    0.90
  -1   5  21    4.65    1.22
   1   5 -20   -0.91    0.93
  -1   5  20    0.83    0.85
   1   5 -19    6.84    1.37
  -1   5  19   11.98    1.66
   1   5 -18   11.03    1.63
  -1   5  18   13.53    1.76
   1   5 -17    4.43    1.17
  -1   5  17    8.17    1.34
   1   5 -16   16.18    1.78
   1   5 -16   17.10    1.15
  -1   5  16   16.15    1.81
   1   5 -15    3.02    1.03
   1   5 -15    3.92    0.66
  -1   5  15    4.85    1.16
   1   5 -14   11.67    1.55
   1   5 -14   10.82    0.95
  -1   5  14   11.34    1.53
   1   5 -13    4.37    1.10
   1   5 -13    5.51    0.73
  -1   5  13    5.85    1.22
   1   5 -13    4.73    0.78
   1   5 -12   -1.87    0.98
  -1   5  12   -0.25    0.82
   1   5 -12    0.32    0.41
   1   5 -12   -0.05    0.42
   1   5 -11    0.53    0.82
   1   5 -11    0.09    0.27
  -1   5  11    1.48    0.84
   1   5 -11    0.89    0.48
   1   5 -11    1.18    0.54
   1   5 -10    6.46    1.27
  -1   5  10    4.01    1.11
   1   5 -10    8.37    0.89
   1   5 -10    6.71    0.93
   1   5  -9    5.59    1.24
   1   5  -9    5.85    0.77
  -1   5   9    5.13    1.05
   1   5  -9    3.64    0.70
   1   5  -8    0.42    0.82
   1   5  -8    0.75    0.45
  -1   5   8   -0.62    0.78
   1   5  -8    0.47    0.46
   1   5  -7    1.18    0.85
  -1   5   7    0.98    0.76
   1   5  -7    1.38    0.51
   1   5  -7    1.26    0.57
   1   5  -6    1.33    0.84
   1   5  -6    1.10    0.54
  -1   5   6    1.22    0.78
   1   5  -5    2.67    0.91
  -1   5   5    0.04    0.65
   1   5  -5    0.52    0.51
   1   5  -4    0.51    0.50
  -1   5   4    0.51    0.64
  -1  -5   4    1.18    0.53
  -1   5   3    3.08    0.84
   1   5  -3    2.15    0.58
  -1  -5   3    1.85    0.60
  -1   5   2   -1.22    0.79
   1   5  -2    0.45    0.54
  -1  -5   2   -0.94    0.63
  -1   5   1   -0.04    0.66
   1   5  -1   -0.34    0.57
  -1  -5   1   -0.53    0.56
   1   5   0    1.47    0.59
  -1   5   0    3.36    0.77
  -1  -5   0    2.82    0.68
   1   5   1    0.26    0.59
  -1   5  -1   -0.39    0.61
  -1  -5  -1   -0.49    0.62
   1  -5   1    1.63    0.71
  -1   5  -2    5.34    0.88
   1   5   2    4.20    0.85
   1  -5   2    3.95    0.83
   1   5   3    1.44    0.65
  -1   5  -3    0.29    0.55
  -1   5  -4   12.56    1.16
   1   5   4   10.87    1.22
   1   5   5    2.95    0.84
  -1   5  -5    2.97    0.76
   1   5   6    4.23    0.96
  -1   5  -6    5.79    0.87
  -1   5  -6    3.86    0.87
   1   5   7    2.26    0.90
  -1   5  -7    0.73    0.62
  -1   5  -7    1.45    0.60
  -1   5  -8    1.02    0.89
  -1   5  -8    0.90    0.52
   1   5   8    1.33    0.73
  -1   5  -8    0.02    0.52
  -1   5  -9    0.98    0.95
   1   5   9    0.58    0.72
  -1   5  -9   -0.14    0.54
  -1   5  -9   -0.23    0.46
  -1   5 -10    1.29    0.93
   1   5  10    3.44    1.09
  -1   5 -10    2.99    0.76
  -1   5 -10    1.16    0.59
  -1   5 -11   16.52    1.79
   1   5  11   16.17    1.70
  -1   5 -11   13.70    1.18
  -1   5 -11   14.67    1.30
  -1   5 -12   11.20    1.53
  -1   5 -12    9.35    1.02
   1   5  12   10.03    1.39
  -1   5 -12    9.39    1.10
  -1   5 -13    0.83    0.82
   1   5  13    0.20    0.82
  -1   5 -13    1.13    0.54
  -1   5 -13    0.55    0.52
  -1   5 -14    1.64    0.87
   1   5  14    2.56    0.90
  -1   5 -14    1.97    0.60
  -1   5 -15    1.96    1.01
   1   5  15    2.87    1.03
  -1   5 -15    2.35    0.62
  -1   5 -16    6.18    1.26
   1   5  16    6.02    1.31
  -1   5 -16    4.56    0.80
  -1   5 -17    5.87    1.28
   1   5  17    7.19    1.35
  -1   5 -17    6.41    0.86
  -1   5 -18    4.82    1.17
   1   5  18    2.61    1.15
  -1   5 -19    7.37    1.39
   1   5  19    9.00    1.52
  -1   5 -20    0.14    0.84
   1   5  20    2.45    1.23
  -1   5 -21    1.24    0.88
   1   5  21    2.70    1.12
  -1   5 -22   -0.01    0.93
   1   5  22    0.82    1.19
  -1   5 -23    2.17    0.91
  -1   5 -24    5.73    1.25
  -1   5 -25   -0.92    1.01
   1   6 -18    2.61    1.17
   1   6 -17   -0.55    1.06
  -1   6  17    1.19    1.07
   1   6 -16    6.44    1.42
  -1   6  16    8.33    1.61
   1   6 -15    1.33    0.94
  -1   6  15    0.18    0.90
   1   6 -14    0.47    0.85
  -1   6  14    0.51    0.87
   1   6 -13    7.81    1.43
  -1   6  13    5.86    1.33
   1   6 -12    4.58    1.23
  -1   6  12    7.12    1.35
   1   6 -11    1.22    1.06
   1   6 -11    0.94    0.55
  -1   6  11    0.42    0.82
   1   6 -10    5.44    1.19
  -1   6  10    5.90    1.16
   1   6 -10    5.26    0.80
   1   6  -9    0.29    0.82
   1   6  -9    0.54    0.52
  -1   6   9    0.32    0.95
   1   6  -8    1.82    0.62
  -1   6   8    1.29    0.76
   1   6  -8    2.03    1.08
   1   6  -7    3.25    0.74
  -1   6   7    2.24    0.89
   1   6  -7    7.80    1.49
  -1   6   6    4.84    1.03
   1   6  -6    7.82    0.97
   1   6  -6    8.18    1.51
   1   6  -5    0.02    0.60
  -1   6   5   -0.98    0.92
   1   6  -5    0.36    0.85
   1   6  -4    2.88    0.74
  -1   6   4    2.48    0.92
   1   6  -4    4.11    1.11
   1   6  -3   -0.88    0.68
  -1   6   3   -0.51    0.80
  -1   6   2    3.70    0.86
   1   6  -2    2.72    0.80
  -1   6   1   -0.23    0.67
   1   6  -1   -0.50    0.68
  -1   6   0    2.53    0.76
   1   6   0    3.86    0.84
   1   6   1    1.34    0.66
  -1   6  -1    0.31    0.67
   1   6   2    3.23    0.84
  -1   6  -2    2.53    0.79
  -1   6  -3    0.30    0.63
   1   6   3    0.05    0.67
   1   6   4    4.71    0.95
  -1   6  -4    4.12    0.90
   1   6   5   -0.61    0.77
  -1   6  -5   -0.17    0.64
   1   6   6    5.46    1.09
  -1   6  -6    5.75    0.99
  -1   6  -6    8.00    1.43
   1   6   7   -0.34    0.79
  -1   6  -7    0.77    0.54
  -1   6  -7    2.63    1.08
   1   6   8    0.00    0.69
  -1   6  -8    1.26    0.73
  -1   6  -8    0.30    0.82
  -1   6  -9    0.31    0.54
   1   6   9    0.50    0.84
  -1   6  -9    0.81    1.04
  -1   6 -10    0.52    0.53
   1   6  10    0.82    0.92
  -1   6 -10   -1.55    1.04
  -1   6 -11   -0.23    0.87
   1   6  11    1.05    0.83
  -1   6 -11   -0.12    0.52
  -1   6 -12    2.06    1.10
   1   6  12    2.25    1.05
  -1   6 -12    3.94    0.77
  -1   6 -13    1.00    0.85
   1   6  13   -0.25    0.83
  -1   6 -14   -1.89    1.10
   1   6  14   -1.87    1.03
  -1   6 -15   -1.40    1.07
   1   6  15    0.27    0.92
  -1   6 -16   -0.53    0.95
   1   6  16    0.56    0.82
  -1   6 -17    0.36    1.00
   1   6  17   -0.14    0.83
  -1   6 -18    1.38    0.97
  -1   7  11    1.14    1.07
  -1   7  10    8.05    1.46
  -1   7   9    6.14    1.34
  -1   7   8    2.85    1.04
  -1   7   7   -0.06    0.81
  -1   7   6    3.42    1.05
   1   7  -6    2.53    1.12
  -1   7   5   -1.07    0.98
   1   7  -5   -1.03    0.97
  -1   7   4    2.61    0.93
   1   7  -4    3.16    0.93
   1   7  -4    3.76    1.27
  -1   7   3   -0.69    0.84
   1   7  -3    1.47    0.80
   1   7  -3    0.08    0.95
  -1   7   2    0.02    0.79
   1   7  -2    0.82    0.73
   1   7  -2    2.41    1.20
   1   7  -1   -0.93    0.97
  -1   7   1   -1.32    0.97
   1   7  -1    0.60    0.93
   1   7   0   -0.67    0.81
  -1   7   0    1.94    0.87
  -1   7  -1   -1.30    1.02
   1   7   1   -0.82    0.95
  -1   7  -2    0.99    0.74
   1   7   2   -0.08    0.80
   1   7   3   -1.10    0.94
  -1   7  -3   -0.84    0.92
  -1   7  -4    1.93    0.84
   1   7   4    1.16    0.83
  -1   7  -4    2.84    1.18
  -1   7  -5    0.95    0.72
   1   7   5   -2.13    1.06
  -1   7  -6    0.03    0.61
   1   7   6   -0.43    0.85
   1   7   7   -0.56    0.84
   1   7   8    1.26    0.96
   1   7   9    0.85    1.11
   1   7  10   -0.35    0.90
   1   7  11    0.17    0.87
  -2   0  33    0.16    0.84
  -2   0  32    6.11    1.36
  -2   0  31    0.97    0.90
  -2   0  30    8.86    1.07
  -2   0  30   11.14    1.58
  -2   0  29    0.25    0.50
  -2   0  29   -0.04    0.82
  -2   0  28  102.23    3.44
  -2   0  28  100.38    4.24
  -2   0  27    1.42    0.73
  -2   0  27    4.05    1.16
  -2   0  26  250.91    5.61
  -2   0  26  244.97    6.68
  -2   0  25    2.46    0.71
  -2   0  25    0.94    0.60
  -2   0  25    2.79    0.92
  -2   0  24   62.54    2.41
  -2   0  24   55.82    2.48
   2   0 -24   56.66    2.56
  -2   0  24   57.71    2.94
  -2   0  23    0.32    0.44
  -2   0  23    0.29    0.49
   2   0 -23    0.84    0.57
  -2   0  23    1.12    0.72
  -2   0  22  146.66    3.69
  -2   0  22  142.08    3.94
   2   0 -22  145.00    4.05
  -2   0  22  143.27    4.51
  -2   0  21    0.80    0.55
  -2   0  21    0.50    0.49
   2   0 -21    1.30    0.56
  -2   0  21    0.99    0.72
  -2   0  20  164.43    3.77
  -2   0  20  160.34    4.06
   2   0 -20  161.72    4.10
  -2   0  20  154.30    4.52
  -2   0  19    0.50    0.52
  -2   0  19    1.14    0.58
   2   0 -19    0.98    0.61
  -2   0  19    2.02    0.75
  -2   0  18  431.02    7.41
  -2   0  18  437.12    7.00
   2   0 -18  414.43    7.33
  -2   0  18  413.46    7.96
  -2   0  17   -0.07    0.40
  -2   0  17    0.11    0.35
   2   0 -17    0.50    0.48
  -2   0  17   -0.03    0.44
  -2   0  17    1.08    0.66
  -2   0  16    1.01    0.40
  -2   0  16    1.12    0.45
  -2   0  16    0.88    0.49
   2   0 -16    1.15    0.45
  -2   0  15   -0.70    0.43
   2   0 -15    0.44    0.44
  -2   0  15    0.13    0.48
  -2   0  14  393.65    6.53
   2   0 -14  387.88    6.37
  -2   0  14  392.95    6.42
  -2   0  13    0.19    0.44
  -2   0  13    0.33    0.44
   2   0 -13    2.89    0.63
  -2   0  12 2211.70   27.22
   2   0 -12 2181.51   26.98
  -2   0  12 2180.94   27.01
  -2   0  11    0.11    0.37
  -2   0  11    0.31    0.39
   2   0 -11    1.46    0.52
  -2   0  10  661.77    9.21
  -2   0  10  660.02    8.94
   2   0 -10  650.27    8.93
   2   0  -9    0.01    0.33
  -2   0   9   -0.15    0.44
  -2   0   8  477.57    6.50
   2   0  -8  467.59    6.49
   2   0  -7   -0.09    0.29
  -2   0   7    0.12    0.34
   2   0  -6   64.06    1.36
  -2   0   6   64.91    1.38
   2   0  -5    0.36    0.25
  -2   0   5    0.83    0.28
  -2   0   4  892.14   10.77
   2   0  -4  887.87   10.77
  -2   0   3    0.05    0.18
  -2   0   3   -0.61    0.22
  -2   0   3    0.15    0.13
   2   0  -3    0.75    0.20
   2   0  -2  113.03    1.85
  -2   0   2  111.28    1.85
   2   0  -2  114.54    1.69
   2   0  -1    0.47    0.19
   2   0   0  338.20    4.48
  -2   0  -1    1.05    0.24
   2   0   1    1.31    0.32
  -2   0  -2 1542.02   18.65
   2   0   2 1556.68   18.68
  -2   0  -3    0.10    0.28
   2   0   3    0.59    0.35
  -2   0  -3    0.07    0.18
   2   0   3    0.17    0.21
  -2   0  -4   84.22    1.85
   2   0   4   91.52    1.91
   2   0   4   87.87    1.63
   2   0   5    0.12    0.19
  -2   0  -5    0.10    0.32
   2   0   5    0.01    0.39
  -2   0  -5    0.35    0.19
   2   0   5    0.03    0.31
   2   0   6 1753.04   21.02
   2   0   6 1645.10   20.06
  -2   0  -6 1713.56   20.98
   2   0   6 1768.06   20.72
   2   0   7    0.61    0.24
  -2   0  -7    0.63    0.42
   2   0   7    1.39    0.63
  -2   0  -7    0.85    0.44
   2   0   7    1.59    0.57
   2   0   8   82.05    1.63
   2   0   8   85.54    2.17
  -2   0  -8   85.88    2.21
   2   0   8   84.27    2.07
   2   0   9    0.81    0.29
   2   0   9    0.24    0.46
  -2   0  -9    2.51    0.53
   2   0   9    1.46    0.50
   2   0  10  114.96    2.75
   2   0  10  111.98    2.18
  -2   0 -10  116.34    2.86
   2   0  10  116.20    2.71
   2   0  11    2.11    0.57
   2   0  11    0.88    0.31
  -2   0 -11    0.47    0.44
   2   0  11    1.39    0.58
   2   0  12  181.35    3.25
   2   0  12  188.65    3.93
  -2   0 -12  187.75    4.07
   2   0  12  186.51    3.93
   2   0  13    1.79    0.73
   2   0  13    1.17    0.43
  -2   0 -13    0.63    0.54
   2   0  13    2.89    0.80
   2   0  14  752.06   10.31
   2   0  14  759.89   11.26
  -2   0 -14  772.00   11.55
   2   0  14  775.41   11.38
   2   0  15    2.29    0.70
   2   0  15    1.81    0.50
  -2   0 -15    1.00    0.60
   2   0  15    2.83    0.82
   2   0  16   58.30    2.22
   2   0  16   53.80    1.74
  -2   0 -16   57.58    2.31
   2   0  16   56.53    2.26
   2   0  17    1.19    0.56
   2   0  17    0.88    0.40
  -2   0 -17    0.76    0.59
   2   0  17    1.31    0.62
   2   0  18   80.19    2.31
   2   0  18   88.53    2.89
  -2   0 -18   88.88    3.09
   2   0  18   84.65    2.97
   2   0  19    0.97    0.48
   2   0  19    1.30    0.66
  -2   0 -19    0.62    0.56
   2   0  19    2.17    0.82
   2   0  20  216.53    5.12
   2   0  20  212.26    4.36
  -2   0 -20  213.33    5.36
   2   0  20  212.66    5.30
   2   0  21    2.99    0.91
   2   0  21    1.95    0.76
   2   0  21    0.96    0.54
   2   0  22   86.75    3.36
   2   0  22   87.22    2.66
   2   0  22   87.79    3.20
   2   0  23    0.35    0.64
   2   0  23    1.71    0.72
   2   0  23    1.18    0.56
   2   0  24   65.75    3.11
   2   0  24   76.99    2.58
   2   0  24   75.92    3.10
   2   0  25    1.18    0.76
   2   0  25   -0.05    0.56
   2   0  26    1.78    0.87
   2   0  26    0.96    0.62
   2   0  27   -0.01    0.74
   2   0  27   -0.16    0.68
   2   0  28    1.68    0.93
   2   0  28    2.07    0.84
   2   0  29   -0.01    0.74
   2   0  29   -0.47    0.68
   2   0  30    0.54    0.86
   2   0  30   -0.53    0.71
   2   0  31    0.90    0.84
   2   0  31    0.91    0.75
   2   0  32   10.40    1.64
   2   0  33   -0.49    1.00
  -2  -1  33    2.78    1.20
  -2   1  33    3.05    1.13
  -2   1  32    0.48    0.89
  -2  -1  32    0.38    0.86
  -2   1  32    1.53    0.75
  -2   1  31   37.33    2.75
  -2  -1  31   38.05    2.87
  -2   1  31   33.56    2.27
  -2   1  30    0.72    0.84
  -2  -1  30    1.22    0.86
  -2   1  30    0.42    0.64
  -2  -1  29   17.83    1.94
  -2   1  29   15.99    1.84
  -2   1  29   16.25    1.55
  -2   1  28    0.40    0.83
  -2  -1  28   -0.62    0.86
  -2   1  28    0.53    0.68
  -2  -1  28    0.18    0.42
  -2  -1  27   33.74    2.48
  -2   1  27   29.89    2.28
  -2   1  27   30.49    2.00
  -2  -1  27   31.45    1.61
  -2   1  26   11.69    1.29
  -2  -1  26   16.17    1.73
  -2   1  26   12.94    1.52
   2   1 -26   12.48    1.24
  -2  -1  26   12.44    1.00
  -2   1  25   43.44    2.20
  -2   1  25   43.22    2.26
  -2  -1  25   44.82    2.68
   2   1 -25   45.25    2.17
  -2  -1  25   46.40    1.88
  -2   1  24   61.12    2.64
  -2   1  24   57.91    2.49
  -2  -1  24   59.89    3.02
  -2   1  24   56.17    2.74
   2   1 -24   60.60    2.49
  -2  -1  24   61.29    2.12
  -2   1  23   54.95    2.42
  -2   1  23   51.86    2.31
  -2  -1  23   54.63    2.49
  -2  -1  23   53.97    2.81
   2   1 -23   50.92    2.20
  -2   1  23   57.18    2.67
  -2  -1  23   51.96    1.90
  -2   1  22  176.11    4.45
  -2  -1  22  169.89    4.53
  -2  -1  22  165.61    5.01
   2   1 -22  169.26    4.18
  -2   1  22  174.54    4.79
  -2  -1  22  176.42    3.74
  -2  -1  21  116.78    3.63
  -2   1  21  123.34    3.58
  -2  -1  21  131.22    4.24
  -2   1  21  121.71    3.87
   2  -1 -21  129.39    3.96
   2   1 -21  128.20    3.42
  -2  -1  21  131.39    3.04
  -2  -1  20   53.07    2.31
  -2  -1  20   54.05    2.61
  -2   1  20   57.99    2.50
   2  -1 -20   56.78    2.47
   2   1 -20   52.65    2.03
  -2  -1  20   54.94    1.80
  -2  -1  19   10.50    1.06
  -2  -1  19   11.33    1.27
  -2   1  19   10.53    1.11
   2  -1 -19   12.12    1.14
   2   1 -19    9.13    0.85
  -2  -1  19    9.98    0.77
  -2  -1  18  138.68    3.75
  -2  -1  18  142.89    4.14
   2  -1 -18  142.72    3.88
   2   1 -18  138.05    3.28
  -2   1  18  137.91    3.85
  -2  -1  18  138.87    2.94
  -2  -1  17  309.22    5.99
  -2  -1  17  305.32    6.43
   2   1 -17  299.81    5.31
   2  -1 -17  306.28    6.11
  -2   1  17  302.03    6.08
  -2  -1  17  296.08    4.88
  -2  -1  16   63.83    2.31
  -2  -1  16   65.47    2.58
   2   1 -16   59.50    1.88
   2  -1 -16   63.61    2.35
  -2   1  16   63.24    2.36
  -2  -1  16   61.68    1.68
  -2  -1  15  330.19    6.06
  -2  -1  15  331.14    6.45
   2  -1 -15  325.81    6.13
  -2   1  15  316.89    6.08
   2   1 -15  323.23    5.35
  -2  -1  15  325.47    4.94
   2   1 -14    7.23    0.84
  -2  -1  14    8.94    0.90
  -2  -1  14   10.02    1.07
   2  -1 -14    8.27    0.90
   2   1 -14    8.72    0.69
  -2   1  14   10.83    1.00
  -2  -1  14    8.90    0.57
  -2  -1  13    1.20    0.56
   2   1 -13    1.06    0.55
  -2  -1  13    1.40    0.29
  -2  -1  13    1.10    0.64
  -2   1  13    1.13    0.58
   2   1 -13    1.88    0.38
   2  -1 -13    1.62    0.55
  -2  -1  12  359.45    6.18
   2   1 -12  356.90    6.16
  -2  -1  12  363.06    6.48
  -2   1  12  360.38    6.19
   2   1 -12  354.15    5.35
   2  -1 -12  359.90    6.22
  -2  -1  12  364.70    4.96
   2   1 -11  701.73   10.22
  -2  -1  11  714.89   10.24
  -2  -1  11  710.78   10.55
   2  -1 -11  708.38   10.28
  -2   1  11  706.56   10.25
   2   1 -11  699.36    9.27
  -2  -1  11  716.43    8.86
   2   1 -10   30.32    1.35
  -2  -1  10   27.90    1.32
  -2  -1  10   28.00    1.01
   2   1 -10   28.87    1.39
  -2  -1  10   28.54    1.41
   2  -1 -10   28.59    1.31
  -2   1  10   25.68    1.29
   2   1 -10   27.00    0.89
  -2  -1  10   28.18    0.72
  -2  -1   9  368.23    5.95
   2   1  -9  366.16    5.96
  -2  -1   9  374.96    6.17
  -2  -1   9  375.59    5.34
   2   1  -9  372.01    6.16
  -2   1   9  356.44    5.95
   2   1  -9  368.02    5.03
   2  -1  -9  361.17    5.93
  -2  -1   9  376.26    4.69
   2   1  -8    4.17    0.68
  -2  -1   8    4.09    0.56
   2  -1  -8    3.91    0.57
  -2   1   8    5.48    0.72
   2   1  -8    4.30    0.33
  -2  -1   8    4.72    0.69
   2   1  -8    3.82    0.58
  -2  -1   8    4.01    0.40
   2   1  -7  711.30    9.71
  -2  -1   7  713.59    9.69
   2   1  -7  694.11    8.55
  -2   1   7  691.52    9.67
   2  -1  -7  696.17    9.64
  -2  -1   7  710.71    9.03
   2   1  -7  706.46    9.78
  -2  -1   7  718.58    9.81
  -2  -1   6   31.79    1.19
   2   1  -6   31.12    1.26
  -2   1   6   33.41    1.29
   2  -1  -6   35.37    1.25
   2   1  -6   33.57    0.95
   2   1  -6   34.06    1.27
  -2  -1   6   33.49    1.29
  -2  -1   5  448.69    6.63
   2   1  -5  456.38    6.65
   2  -1  -5  474.98    6.66
  -2   1   5  473.35    6.67
  -2  -1   5  462.24    6.67
   2   1  -5  453.85    6.64
   2   1  -5  468.06    6.14
   2   1  -4   17.22    0.87
  -2  -1   4   17.18    0.86
  -2   1   4   18.28    0.92
   2  -1  -4   18.29    0.85
  -2  -1   4   17.77    0.85
   2   1  -4   17.74    0.84
   2   1  -3   26.75    1.03
  -2  -1   3   28.73    1.02
  -2  -1   3   25.12    0.98
   2   1  -3   26.18    0.95
  -2   1   3   29.47    1.08
   2  -1  -3   29.98    1.04
   2   1  -2  127.88    2.38
  -2  -1   2  128.64    2.35
  -2  -1   2  133.29    2.32
   2   1  -2  130.10    2.29
   2   1  -2  125.99    1.88
  -2  -1   2  127.54    1.90
  -2   1   2  121.82    2.40
   2  -1  -2  123.38    2.39
   2   1  -1 4156.16   48.69
   2   1  -1 4150.72   48.57
   2   1  -1 4142.25   48.31
  -2  -1   1 4059.82   48.31
   2  -1  -1 4236.93   48.84
  -2   1   1 4246.49   48.84
  -2  -1   0    1.01    0.29
   2   1   0    1.17    0.34
  -2   1   0    0.40    0.38
  -2   1   0    1.27    0.34
   2   1   1  519.29    6.94
  -2  -1  -1  521.55    6.93
   2  -1   1  521.65    7.04
  -2   1  -1  519.58    7.06
  -2  -1  -2    0.42    0.33
   2   1   2    0.61    0.41
  -2   1  -2    0.08    0.30
   2  -1   2    0.88    0.39
  -2   1  -3  142.05    2.67
   2   1   3  133.95    2.68
  -2  -1  -3  139.44    2.66
  -2   1  -3  135.23    2.57
   2  -1   3  143.51    2.58
  -2   1  -4  676.48    9.05
   2   1   4  649.82    9.13
  -2  -1  -4  648.51    9.08
   2  -1   4  680.21    8.87
  -2   1  -4  672.30    8.88
  -2   1  -5  433.30    6.38
   2  -1   5  412.47    6.33
   2   1   5  432.01    6.47
  -2  -1  -5  424.17    6.45
  -2   1  -5  430.12    6.18
   2  -1   5  438.10    6.18
  -2   1  -6  365.73    5.46
   2  -1   6  374.87    5.78
  -2   1  -6  369.25    5.75
  -2  -1  -6  364.26    5.84
   2   1   6  374.16    5.91
   2  -1   6  363.93    5.51
  -2   1  -6  360.00    5.52
  -2   1  -7   78.73    1.92
  -2   1  -7   78.31    2.12
   2  -1   7   81.09    2.15
  -2  -1  -7   80.45    2.23
   2   1   7   80.68    2.26
   2  -1   7   80.05    1.97
  -2   1  -7   79.72    1.98
  -2   1  -8  111.53    2.51
  -2   1  -8  111.34    2.42
   2  -1   8  115.19    2.73
  -2   1  -8  111.44    2.70
   2   1   8  114.09    2.85
  -2  -1  -8  117.36    2.84
   2  -1   8  109.51    2.49
  -2   1  -9   86.43    2.18
  -2   1  -9   84.30    2.10
  -2   1  -9   90.28    2.45
   2  -1   9   88.87    2.44
  -2  -1  -9   89.79    2.54
   2   1   9   89.46    2.55
   2  -1   9   85.30    2.19
  -2   1 -10    1.65    0.42
  -2   1 -10    1.13    0.36
  -2   1 -10    1.90    0.51
   2  -1  10    1.91    0.58
   2   1  10    1.08    0.54
  -2  -1 -10    0.53    0.43
   2  -1  10    1.53    0.43
  -2   1 -11   31.04    1.29
  -2   1 -11   29.64    1.30
   2  -1  11   33.75    1.57
  -2   1 -11   33.97    1.57
  -2  -1 -11   34.87    1.64
   2   1  11   34.85    1.68
   2  -1  11   32.40    1.37
  -2   1 -12  696.66    9.89
  -2   1 -12  686.29    9.98
  -2   1 -12  725.33   10.64
   2  -1  12  705.85   10.57
   2   1  12  697.13   10.74
  -2  -1 -12  699.96   10.72
   2  -1  12  683.58   10.00
  -2   1 -13 1000.21   13.41
  -2   1 -13  963.55   13.51
   2   1  13  987.06   14.19
   2  -1  13  992.33   14.19
   2   1  13 1001.76   14.40
  -2  -1 -13 1000.42   14.36
   2  -1  13  992.73   13.56
  -2   1 -14  133.79    3.13
   2   1  14  130.47    3.56
  -2   1 -14  128.10    3.13
   2  -1  14  132.27    3.59
  -2   1 -14  129.83    3.36
  -2  -1 -14  137.19    3.71
   2   1  14  135.47    3.72
   2  -1  14  132.43    3.21
   2   1  15  255.52    5.45
  -2   1 -15  242.22    4.75
   2   1  15  259.08    4.39
   2  -1  15  245.95    5.38
  -2  -1 -15  265.55    5.63
  -2   1 -15  247.59    5.14
   2  -1  15  249.34    4.93
   2   1  16    3.21    0.72
   2   1  16    2.92    0.47
   2  -1  16    3.95    0.68
  -2   1 -16    2.61    0.55
   2  -1  16    3.38    0.76
  -2  -1 -16    3.16    0.78
  -2   1 -16    2.81    0.58
   2   1  17   12.55    1.21
   2   1  17   12.74    0.86
   2  -1  17   12.52    1.20
  -2  -1 -17   12.14    1.18
  -2   1 -17   16.77    1.24
   2  -1  17   14.16    1.08
   2   1  18    6.78    0.96
   2   1  18    4.94    0.57
   2  -1  18    6.25    0.78
   2  -1  18    6.37    1.16
  -2  -1 -18    6.79    1.00
  -2   1 -18    6.27    0.84
   2   1  19   19.04    1.09
   2   1  19   20.31    1.55
   2  -1  19   19.59    1.62
  -2   1 -19   18.98    1.41
   2  -1  19   19.51    1.34
   2   1  20   94.28    2.59
   2   1  20   94.46    3.39
   2  -1  20   97.85    3.51
  -2   1 -20   94.15    3.23
   2  -1  20   97.04    3.06
   2   1  21  142.74    4.31
   2   1  21  136.35    3.30
   2  -1  21  139.98    4.40
   2   1  21  135.74    4.21
  -2   1 -21  140.35    4.12
   2  -1  21  137.59    3.81
   2  -1  22   32.56    2.15
   2   1  22   29.69    1.97
   2   1  22   26.22    1.88
   2   1  22   27.55    1.43
   2  -1  22   31.19    1.79
   2   1  23  123.55    4.13
   2  -1  23  118.71    4.22
   2   1  23  124.47    4.16
   2   1  23  123.06    3.21
   2  -1  23  119.87    3.66
   2  -1  24    1.03    0.72
   2   1  24   -0.31    0.61
   2   1  24    0.54    0.61
   2   1  24   -0.41    0.41
   2  -1  24    0.84    0.63
   2  -1  25    0.69    0.67
   2   1  25    0.27    0.66
   2   1  25    1.43    0.78
   2  -1  25    0.17    0.51
   2  -1  26    8.61    1.29
   2   1  26    6.18    1.14
   2   1  26    8.14    1.20
   2  -1  26    7.18    1.04
   2   1  27   37.33    2.48
   2  -1  27   36.63    2.55
   2   1  27   38.97    2.50
   2  -1  27   39.18    2.21
   2  -1  28    5.69    1.32
   2   1  28    2.67    0.99
   2   1  28    5.22    1.18
   2  -1  28    5.57    1.03
   2  -1  29   97.56    4.39
   2   1  29   97.34    4.21
   2   1  29  100.16    4.15
   2  -1  29   98.41    3.66
   2   1  30    5.35    1.13
   2  -1  30    2.90    1.12
   2   1  30    3.24    1.01
   2   1  31    4.71    1.08
   2   1  31    4.28    1.41
   2  -1  31    4.07    1.14
   2   1  32    4.89    1.14
   2   1  32    5.27    1.33
   2  -1  32    4.55    1.24
   2   1  33    3.79    1.33
   2   1  34    1.37    1.11
  -2   2  33    4.98    1.19
  -2   2  33    3.72    1.31
  -2   2  32    1.55    0.90
  -2   2  32    2.57    1.16
  -2   2  31    6.88    1.30
  -2  -2  31    3.02    1.05
  -2   2  30   25.72    2.12
  -2  -2  30   28.45    2.53
  -2   2  29   11.96    1.49
  -2   2  29    9.28    1.90
  -2  -2  29   13.43    1.77
  -2   2  28   52.74    2.93
  -2  -2  28   55.62    3.30
  -2   2  28   58.09    3.27
  -2  -2  27    0.56    0.81
  -2   2  27    0.23    0.81
  -2  -2  26    6.83    1.24
  -2   2  26    6.35    1.19
  -2  -2  25    2.05    0.88
   2   2 -25    3.49    0.66
  -2   2  25    2.76    0.83
  -2  -2  25    3.78    0.50
  -2  -2  24   45.29    2.78
  -2  -2  24   45.77    1.85
   2   2 -24   42.77    1.93
  -2   2  24   46.79    2.68
  -2  -2  24   48.10    1.57
  -2  -2  23   95.61    3.97
  -2  -2  23   94.67    2.70
   2   2 -23   97.69    2.92
  -2   2  23   98.42    3.86
  -2  -2  23  102.69    2.38
  -2  -2  22   78.99    3.52
  -2  -2  22   79.99    2.38
   2   2 -22   79.61    2.52
  -2   2  22   82.87    3.41
  -2  -2  22   79.21    2.02
   2   2 -21    0.04    0.62
  -2  -2  21    0.55    0.41
  -2  -2  21    0.77    0.78
  -2   2  21    0.47    0.66
   2   2 -21    0.22    0.37
  -2  -2  21    0.26    0.27
   2   2 -20   45.17    2.30
  -2  -2  20   44.83    1.64
  -2  -2  20   42.69    2.46
   2   2 -20   42.59    1.70
  -2   2  20   41.03    2.29
  -2  -2  20   45.64    1.38
   2   2 -19   47.16    2.31
  -2  -2  19   51.72    2.39
  -2  -2  19   49.32    1.67
  -2  -2  19   47.39    2.51
  -2   2  19   47.32    2.41
   2   2 -19   48.07    1.75
  -2  -2  19   49.32    1.40
   2   2 -18   37.67    2.02
  -2  -2  18   42.69    2.13
  -2  -2  18   38.90    1.42
  -2  -2  18   34.10    2.11
  -2   2  18   40.04    2.17
   2   2 -18   37.30    1.47
  -2  -2  18   39.17    1.20
   2   2 -17    3.74    0.79
  -2  -2  17    3.28    0.45
  -2  -2  17    5.53    0.95
  -2  -2  17    4.99    0.81
   2  -2 -17    5.61    0.86
   2   2 -17    4.02    0.52
  -2   2  17    3.79    0.86
  -2  -2  17    3.67    0.39
  -2  -2  16   15.46    1.31
   2   2 -16   13.61    1.23
   2   2 -16   14.60    1.30
  -2  -2  16   14.76    0.82
  -2  -2  16   15.23    1.33
   2  -2 -16   18.73    1.43
   2   2 -16   13.43    0.83
  -2   2  16   16.43    1.39
  -2  -2  16   15.08    0.69
  -2  -2  15  246.52    5.38
   2   2 -15  252.79    5.42
  -2   2  15  247.53    5.51
   2  -2 -15  258.47    5.58
   2   2 -15  238.39    4.20
  -2  -2  15  243.99    5.67
   2   2 -15  253.95    5.74
  -2  -2  15  242.78    4.10
  -2  -2  14  284.38    5.71
   2   2 -14  261.68    4.00
   2   2 -14  267.14    5.61
   2   2 -14  263.19    4.37
  -2   2  14  277.75    5.78
   2  -2 -14  293.30    5.88
   2   2 -14  289.55    6.07
  -2  -2  14  274.59    5.93
  -2  -2  13  183.64    4.30
   2   2 -13  175.05    4.24
   2   2 -13  173.97    2.84
  -2  -2  13  180.13    4.47
   2   2 -13  181.47    4.48
   2  -2 -13  182.40    4.36
  -2   2  13  169.28    4.25
   2   2 -13  174.72    3.12
   2   2 -12  460.70    7.88
  -2  -2  12  460.61    7.95
   2   2 -12  474.06    8.18
  -2  -2  12  451.97    8.08
  -2   2  12  464.63    8.01
   2  -2 -12  473.66    8.03
   2   2 -12  452.48    6.16
  -2  -2  11  263.86    5.22
   2   2 -11  258.39    5.20
  -2  -2  11  258.92    5.35
   2   2 -11  258.61    5.34
  -2   2  11  250.92    5.21
   2  -2 -11  258.52    5.26
   2   2 -11  245.24    3.72
   2   2 -10   27.64    1.49
   2   2 -10   29.45    1.59
  -2  -2  10   27.50    1.48
  -2  -2  10   28.54    1.57
  -2   2  10   28.27    1.54
   2  -2 -10   29.99    1.53
   2   2 -10   26.41    0.85
   2   2  -9  254.03    5.06
   2   2  -9  267.06    5.27
  -2  -2   9  268.12    5.27
   2   2  -9  257.84    3.95
   2  -2  -9  279.77    5.27
  -2   2   9  273.60    5.22
   2   2  -9  270.19    3.85
   2   2  -9  250.38    3.84
   2   2  -8  220.14    4.51
   2   2  -8  219.55    3.47
  -2  -2   8  223.22    4.61
   2   2  -8  220.75    4.58
   2  -2  -8  231.56    4.60
  -2   2   8  233.92    4.63
   2   2  -8  221.11    3.30
   2   2  -8  216.40    3.41
   2   2  -7  368.69    6.34
   2   2  -7  365.49    5.24
   2   2  -7  375.21    6.40
  -2  -2   7  368.82    6.38
   2   2  -7  374.28    5.04
   2  -2  -7  378.73    6.38
  -2   2   7  367.68    6.32
   2   2  -7  364.63    5.22
   2   2  -6    7.40    0.85
   2   2  -6    6.19    0.70
  -2  -2   6    7.78    0.88
  -2   2   6    7.68    0.82
   2   2  -6    5.62    0.41
   2  -2  -6    6.97    0.75
   2   2  -5    3.93    0.75
   2   2  -5    3.17    0.58
   2   2  -5    3.27    0.37
  -2   2   5    2.03    0.62
   2  -2  -5    2.73    0.58
  -2  -2   5    2.33    0.34
   2   2  -4  445.21    7.02
   2   2  -4  452.69    7.00
   2  -2  -4  454.58    7.02
  -2   2   4  444.85    6.95
   2   2  -4  439.89    5.97
  -2  -2   4  425.58    5.99
   2   2  -3    2.28    0.68
   2   2  -3    0.79    0.46
   2   2  -3    0.70    0.34
  -2   2   3    0.11    0.58
   2  -2  -3   -0.41    0.43
  -2  -2   3    0.79    0.32
   2   2  -2    0.90    0.39
  -2   2   2    0.70    0.55
  -2  -2   2    1.03    0.36
   2  -2  -2    0.31    0.43
  -2  -2   1  710.04    9.55
  -2   2   1  716.93   10.12
   2   2  -1  712.95    9.52
   2  -2  -1  733.87   10.05
  -2  -2   0  128.52    2.61
  -2   2   0  125.98    2.87
   2   2   0  129.37    2.62
   2  -2   0  130.76    2.86
   2   2   1  439.99    6.53
  -2   2  -1  423.93    6.65
  -2  -2  -1  446.27    6.51
   2  -2   1  430.55    6.63
  -2  -2  -2 1287.09   16.55
   2   2   2 1298.23   16.56
  -2   2  -2 1280.96   16.64
  -2   2  -2 1289.61   16.54
  -2  -2  -3  173.66    3.47
   2   2   3  166.80    3.43
  -2   2  -3  169.63    3.36
  -2   2  -3  169.49    3.40
  -2   2  -4  156.59    3.53
  -2  -2  -4  171.85    3.51
   2   2   4  173.01    3.51
  -2   2  -4  155.36    3.25
  -2   2  -4  160.61    3.24
  -2   2  -5  192.48    4.05
   2   2   5  189.64    3.90
  -2  -2  -5  188.24    3.90
  -2   2  -5  187.44    3.63
  -2   2  -6   38.61    1.65
   2   2   6   35.68    1.59
  -2  -2  -6   37.31    1.58
  -2   2  -6   33.97    1.35
  -2   2  -7  226.21    4.69
   2   2   7  233.92    4.68
  -2  -2  -7  238.21    4.69
  -2   2  -7  220.48    4.15
   2  -2   7  225.54    4.14
  -2   2  -8  136.13    3.33
  -2   2  -8  139.73    3.52
   2   2   8  141.28    3.53
  -2  -2  -8  145.27    3.55
  -2   2  -8  142.44    3.08
   2  -2   8  142.05    3.06
  -2   2  -9   -0.05    0.46
  -2   2  -9    0.77    0.52
   2   2   9    0.19    0.59
  -2  -2  -9    0.17    0.50
  -2   2  -9    0.58    0.35
   2  -2   9    0.41    0.39
  -2   2 -10  391.75    6.72
   2  -2  10  391.93    7.10
  -2   2 -10  404.11    7.17
   2   2  10  397.34    7.15
  -2  -2 -10  401.72    7.17
  -2   2 -10  379.27    6.31
   2  -2  10  382.04    6.29
  -2   2 -11   21.84    1.31
  -2   2 -11   22.73    1.45
   2  -2  11   22.01    1.42
   2   2  11   21.98    1.47
  -2  -2 -11   24.37    1.52
  -2   2 -11   21.31    1.14
   2  -2  11   21.63    1.15
  -2   2 -12  196.58    4.37
   2  -2  12  200.69    4.74
  -2   2 -12  207.76    4.82
  -2  -2 -12  217.94    4.96
   2   2  12  207.93    4.87
   2  -2  12  201.55    4.06
  -2   2 -12  198.46    4.10
  -2   2 -13    5.40    0.72
  -2   2 -13    5.73    0.65
  -2   2 -13    7.34    0.99
   2  -2  13    6.17    0.92
   2  -2  13    6.01    0.29
   2   2  13    6.89    1.03
  -2  -2 -13    6.62    0.91
   2  -2  13    5.87    0.66
  -2   2 -14  147.98    3.48
  -2   2 -14  151.65    3.84
   2  -2  14  153.05    4.22
  -2   2 -14  153.53    4.22
  -2  -2 -14  160.60    4.35
   2   2  14  158.00    4.33
   2  -2  14  158.46    3.52
  -2   2 -15  164.81    3.78
  -2   2 -15  165.89    4.11
  -2   2 -15  183.09    4.72
   2  -2  15  168.75    4.59
  -2  -2 -15  177.57    4.69
   2   2  15  173.13    4.68
   2  -2  15  172.94    3.82
  -2   2 -16  141.14    3.74
  -2   2 -16  133.46    3.37
  -2   2 -16  145.40    4.26
   2  -2  16  141.16    4.17
   2   2  16  142.10    4.28
   2  -2  16  137.47    3.38
  -2   2 -17    0.12    0.38
  -2   2 -17    0.35    0.48
   2  -2  17    0.11    0.69
   2   2  17    1.10    0.79
   2  -2  17    0.55    0.46
  -2   2 -18   56.17    2.34
  -2   2 -18   57.68    2.13
   2  -2  18   55.19    2.67
  -2   2 -18   56.06    2.31
   2   2  18   58.46    2.76
   2  -2  18   59.19    2.16
  -2   2 -19   26.35    1.45
  -2   2 -19   29.38    1.73
   2  -2  19   26.91    1.90
  -2   2 -19   28.65    1.68
   2   2  19   29.89    2.02
   2  -2  19   30.83    1.58
  -2   2 -20   14.09    1.27
   2   2  20   12.46    1.35
   2  -2  20   14.23    1.47
  -2   2 -20   14.06    1.24
   2   2  20   13.37    1.45
   2  -2  20   15.03    1.15
   2   2  21   17.33    1.63
  -2   2 -21   13.18    1.25
   2  -2  21   13.27    1.47
   2   2  21   17.89    1.72
  -2   2 -21   13.80    1.25
   2  -2  21   17.27    1.25
  -2   2 -22   98.50    3.38
   2   2  22   96.12    2.84
   2   2  22   97.32    3.83
   2  -2  22   96.90    3.91
  -2   2 -22   94.86    3.35
   2  -2  22  101.78    3.11
   2  -2  23    1.72    0.97
   2   2  23    3.00    0.85
   2   2  23    2.15    0.58
   2  -2  23    2.45    0.63
   2  -2  24   31.25    2.32
   2   2  24   30.60    2.26
   2  -2  24   32.05    1.77
   2  -2  25   47.66    2.89
   2   2  25   47.02    2.80
   2  -2  25   47.78    2.20
   2  -2  26   27.65    2.28
   2   2  26   26.79    2.18
   2  -2  26   27.42    1.68
   2   2  27    9.43    1.44
   2   2  27    9.24    1.37
   2  -2  27    9.84    1.53
   2   2  28   33.41    2.50
   2  -2  28   33.41    2.58
   2   2  28   33.27    2.44
   2   2  29    8.44    1.44
   2  -2  29    9.41    1.52
   2   2  29   10.58    1.56
   2   2  30    4.62    1.14
   2   2  30    2.06    0.92
   2  -2  30    3.88    1.13
   2   2  31    4.54    1.28
   2   2  31    2.96    1.18
   2  -2  31    1.37    1.07
   2   2  32    8.94    1.53
   2   2  32    9.23    1.54
   2   2  33    1.20    1.00
  -2   3  33    8.47    1.61
  -2   3  32    0.87    0.94
  -2   3  31   -0.70    0.81
  -2   3  30    1.99    1.05
  -2   3  29   15.23    1.91
  -2  -3  29   11.58    1.79
  -2   3  28    9.50    1.55
  -2  -3  28    8.21    1.61
  -2   3  27   53.57    3.25
  -2  -3  27   59.70    3.54
   2   3 -26   25.93    2.14
  -2   3  26   22.98    2.18
  -2  -3  26   29.07    2.45
   2   3 -25    2.73    0.88
  -2   3  25    2.95    0.99
  -2  -3  25    2.98    1.08
   2   3 -24   19.52    1.79
  -2   3  24   18.73    1.84
  -2  -3  24   20.61    2.04
   2   3 -23   67.32    3.22
  -2   3  23   70.58    3.49
  -2  -3  23   69.73    3.59
   2   3 -22    3.93    0.98
   2   3 -22    3.79    0.57
  -2   3  22    3.18    0.95
  -2  -3  22    3.07    0.94
   2   3 -21   79.31    3.38
  -2   3  21   83.65    3.64
   2   3 -21   81.22    2.37
  -2  -3  21   80.95    3.67
   2   3 -20    3.00    0.92
   2   3 -20    2.96    0.51
  -2   3  20    3.10    0.88
  -2  -3  20    3.06    0.97
   2   3 -19   21.12    1.74
  -2   3  19   21.91    1.83
   2   3 -19   21.80    1.12
  -2  -3  19   23.69    1.95
   2   3 -18   38.78    1.24
   2   3 -18   38.06    2.27
   2   3 -18   38.50    1.47
  -2   3  18   41.08    2.37
  -2  -3  18   40.23    2.44
   2   3 -17   65.33    2.87
   2   3 -17   62.88    1.64
  -2  -3  17   66.01    3.06
   2   3 -17   64.89    1.90
  -2   3  17   66.98    3.00
   2   3 -16    0.28    0.27
   2   3 -16    0.65    0.69
  -2  -3  16   -0.06    0.65
  -2   3  16    0.02    0.61
   2   3 -16    0.14    0.30
   2   3 -15  153.71    4.45
  -2  -3  15  156.67    4.64
  -2   3  15  154.36    4.51
   2   3 -15  158.81    3.09
   2   3 -15  150.92    2.94
   2   3 -14  104.42    3.52
  -2  -3  14  103.56    3.64
  -2   3  14  104.85    3.58
   2   3 -14  106.94    2.33
   2   3 -14   97.99    2.25
   2   3 -13  340.82    7.09
  -2  -3  13  355.34    7.35
   2   3 -13  370.16    7.50
   2  -3 -13  359.35    7.32
  -2   3  13  345.11    7.19
   2   3 -13  356.51    5.39
   2   3 -13  339.16    5.40
   2   3 -12  112.29    3.60
   2   3 -12  120.70    3.81
  -2  -3  12  116.01    3.73
  -2   3  12  114.37    3.66
   2  -3 -12  118.41    3.70
   2   3 -12  115.13    2.43
   2   3 -12  112.47    2.48
   2   3 -11  102.16    3.35
   2   3 -11  113.82    3.61
  -2   3  11  102.84    3.38
   2  -3 -11  108.15    3.47
   2   3 -11  110.26    2.31
   2   3 -11  102.39    2.37
   2   3 -10  104.89    3.34
   2   3 -10  111.77    3.47
   2   3 -10  104.89    2.13
   2  -3 -10  106.93    3.38
  -2   3  10   97.05    3.25
   2   3 -10  106.18    2.25
   2   3 -10   97.63    2.37
   2   3  -9  158.15    4.16
   2   3  -9  161.76    4.28
   2   3  -9  154.43    2.86
   2   3  -9  158.30    2.96
   2  -3  -9  162.85    4.21
  -2   3   9  152.60    4.07
   2   3  -9  154.93    3.17
   2   3  -8    1.39    0.71
   2   3  -8    0.85    0.52
   2   3  -8    0.88    0.32
  -2   3   8    1.29    0.63
   2  -3  -8    0.28    0.48
   2   3  -8    0.82    0.33
   2   3  -7   62.77    2.51
   2  -3  -7   70.45    2.56
  -2   3   7   64.23    2.43
   2   3  -7   63.92    1.72
   2   3  -7   65.50    2.53
   2   3  -6   17.32    1.33
   2   3  -6   15.35    1.20
  -2   3   6   16.38    1.27
   2  -3  -6   16.99    1.25
   2   3  -6   14.24    0.81
   2   3  -5  286.22    5.75
   2   3  -5  287.46    5.81
  -2   3   5  283.86    5.63
   2   3  -5  287.44    4.70
   2  -3  -5  299.17    5.78
  -2  -3   5  276.50    4.72
   2   3  -4  398.45    7.10
   2   3  -4  380.21    7.02
  -2   3   4  393.59    6.93
   2   3  -4  394.21    6.07
   2  -3  -4  403.00    7.05
  -2  -3   4  383.65    6.07
   2   3  -3  649.53   10.18
  -2   3   3  640.38   10.04
   2  -3  -3  667.16   10.21
  -2  -3   3  649.38    9.34
   2   3  -3  667.36    9.31
  -2  -3   2  637.31    9.27
  -2   3   2  634.43    9.85
   2   3  -2  652.39    9.24
   2  -3  -2  646.38    9.95
  -2   3   1    3.06    0.77
   2   3  -1    1.93    0.54
   2  -3  -1    2.95    0.66
  -2  -3   1    1.66    0.52
   2   3   0    9.46    0.88
  -2  -3   0    8.88    0.83
  -2   3   0    8.79    0.93
   2  -3   0    9.76    0.93
  -2   3  -1  693.00   10.33
   2   3   1  698.53   10.19
  -2  -3  -1  694.37   10.20
   2  -3   1  692.54   10.38
  -2  -3  -2  288.81    5.35
  -2   3  -2  284.39    5.29
   2   3   2  276.24    5.26
  -2  -3  -3  555.68    8.70
   2   3   3  545.81    8.66
  -2   3  -3  533.67    8.43
  -2   3  -3  543.45    8.65
  -2   3  -4  560.03    8.70
  -2  -3  -4  579.50    9.07
   2   3   4  552.63    8.91
  -2   3  -4  561.97    8.86
  -2   3  -5  105.65    3.25
  -2  -3  -5  114.66    3.17
   2   3   5  114.29    3.15
  -2   3  -5  103.03    2.87
  -2   3  -5  105.07    2.82
  -2   3  -6  120.86    3.56
  -2  -3  -6  131.59    3.49
   2   3   6  123.55    3.39
  -2   3  -6  121.20    3.04
  -2   3  -6  120.31    3.14
  -2   3  -7   -0.48    0.62
  -2  -3  -7    1.08    0.58
   2   3   7    0.92    0.57
  -2   3  -7    0.25    0.40
  -2   3  -7    0.59    0.38
  -2   3  -8   34.91    1.93
  -2  -3  -8   36.22    1.87
   2   3   8   35.32    1.86
  -2   3  -8   33.01    1.54
  -2   3  -8   36.64    1.60
  -2   3  -9  426.58    7.90
  -2   3  -9  456.04    8.34
   2   3   9  426.47    7.98
  -2  -3  -9  448.89    8.12
  -2   3  -9  441.95    7.26
  -2   3  -9  426.52    7.30
  -2   3 -10  189.72    4.68
  -2   3 -10  200.62    5.04
   2   3  10  192.99    4.82
  -2  -3 -10  189.89    4.83
  -2   3 -10  194.22    4.16
  -2   3 -10  184.28    4.12
  -2   3 -11  200.09    4.93
  -2   3 -11  214.09    5.33
  -2  -3 -11  219.64    5.26
   2   3  11  214.53    5.23
  -2   3 -11  197.21    4.36
  -2   3 -12  256.41    5.73
  -2   3 -12  272.27    6.15
   2   3  12  256.42    5.96
  -2   3 -12  251.29    5.07
  -2   3 -13    9.45    1.08
   2   3  13    9.27    1.21
  -2   3 -13    9.58    0.88
  -2   3 -14   54.94    2.47
   2   3  14   60.11    2.78
  -2   3 -14   60.49    2.19
  -2   3 -15  122.34    3.82
   2   3  15  122.23    4.10
  -2   3 -15  122.91    3.30
  -2   3 -16   96.44    3.40
  -2   3 -16  100.08    2.94
   2   3  16   95.45    3.71
  -2   3 -17  108.54    3.13
  -2   3 -17  109.89    3.73
   2   3  17  115.95    4.19
   2  -3  17  117.89    3.19
  -2   3 -18  233.31    5.02
  -2   3 -18  237.73    5.85
   2  -3  18  235.70    6.29
   2   3  18  245.20    6.44
   2  -3  18  246.17    5.05
  -2   3 -19   -0.11    0.66
  -2   3 -19    0.24    0.38
   2  -3  19    1.20    0.81
   2   3  19    0.84    0.86
   2  -3  19    0.79    0.53
  -2   3 -20    4.03    0.87
  -2   3 -20    4.24    0.68
   2  -3  20    4.01    1.05
   2   3  20    3.68    0.95
   2  -3  20    4.28    0.70
  -2   3 -21    1.97    0.58
  -2   3 -21    2.86    0.80
   2  -3  21    2.44    0.89
  -2   3 -21    1.26    0.52
   2   3  21    1.35    0.95
   2  -3  21    1.74    0.53
  -2   3 -22    3.76    0.90
   2  -3  22    5.43    1.21
   2   3  22    5.58    1.19
   2  -3  22    4.32    0.78
  -2   3 -23   35.29    2.28
   2  -3  23   36.65    2.58
   2   3  23   35.39    2.60
   2  -3  23   37.96    1.88
  -2   3 -24  121.93    4.28
   2   3  24  109.95    4.57
   2  -3  24  120.71    4.83
   2   3  24  117.87    4.79
   2  -3  24  124.52    3.56
   2   3  25   37.37    2.69
  -2   3 -25   29.69    2.14
   2  -3  25   32.83    2.62
  -2   3 -26   24.84    2.01
   2   3  26   25.74    2.29
   2  -3  26   29.42    2.55
   2   3  27    2.14    1.07
   2  -3  27    1.39    0.87
   2   3  28   15.37    1.88
   2  -3  28   19.55    2.17
   2   3  29    7.69    1.45
   2  -3  29    8.27    1.49
   2   3  30    3.55    1.20
   2   3  31   25.00    2.38
   2   4 -29    1.92    0.96
   2   4 -28   23.65    2.26
   2   4 -27    3.51    1.10
  -2   4  27    4.53    1.30
   2   4 -26    8.51    1.42
  -2   4  26    9.12    1.54
   2   4 -25   32.40    2.50
  -2   4  25   34.00    2.69
   2   4 -24   37.24    2.64
  -2   4  24   37.70    2.82
   2   4 -23   53.60    3.12
  -2   4  23   52.51    3.22
   2   4 -22  125.05    4.73
  -2   4  22  118.86    4.81
   2   4 -21    6.44    1.25
  -2   4  21    8.96    1.49
   2   4 -20    9.50    1.38
  -2   4  20    7.82    1.32
   2   4 -20   11.43    0.82
   2   4 -19   -1.37    0.88
  -2   4  19    1.27    0.93
   2   4 -19    0.38    0.37
   2   4 -18    2.80    0.96
   2   4 -18    1.32    0.37
  -2   4  18    2.86    1.03
   2   4 -18    1.63    0.40
   2   4 -17   52.42    2.86
   2   4 -17   60.00    1.84
  -2   4  17   58.15    3.01
   2   4 -17   57.08    1.83
   2   4 -16  203.58    5.84
   2   4 -16  226.94    4.09
  -2   4  16  216.58    6.02
   2   4 -16  203.78    4.07
   2   4 -15   48.63    2.66
   2   4 -15   48.87    1.66
  -2   4  15   53.57    2.82
   2   4 -15   48.42    1.74
   2   4 -14  204.80    5.63
   2   4 -14  211.79    3.95
  -2   4  14  191.27    5.55
   2   4 -14  195.49    4.06
   2   4 -13   77.42    3.33
  -2   4  13   76.60    3.30
   2   4 -13   82.07    2.20
   2   4 -13   73.94    2.29
   2   4 -12    1.05    0.71
   2   4 -12    1.12    0.28
  -2   4  12    3.15    1.01
   2   4 -12    1.90    0.46
   2   4 -12    1.43    0.46
   2   4 -11   89.90    3.50
   2   4 -11   96.00    2.11
   2   4 -11   96.65    2.44
  -2   4  11   90.69    3.53
   2   4 -11   89.25    2.61
   2   4 -10   43.86    2.46
   2   4 -10   43.13    1.40
   2   4 -10   45.91    1.63
  -2   4  10   42.87    2.33
   2   4 -10   42.70    1.77
   2   4  -9    1.14    0.81
   2   4  -9    0.70    0.36
  -2   4   9    0.82    0.70
   2   4  -9    0.19    0.33
   2   4  -8  245.92    6.00
   2   4  -8  253.26    4.62
  -2   4   8  236.60    5.74
   2   4  -7    7.45    1.17
   2   4  -7    6.90    1.03
  -2   4   7    9.21    1.16
   2   4  -7    7.88    0.77
   2  -4  -7    7.47    1.01
   2   4  -6    3.13    0.86
   2   4  -6    3.84    0.80
  -2   4   6    2.11    0.79
   2   4  -6    3.57    0.56
   2  -4  -6    2.54    0.76
   2   4  -5   84.97    3.17
   2   4  -5   89.47    3.28
   2   4  -5   87.00    2.51
  -2   4   5   89.76    3.17
   2  -4  -5   90.69    3.20
  -2  -4   5   84.38    2.50
   2   4  -4    4.44    0.82
   2   4  -4    2.96    0.59
  -2   4   4    3.00    0.73
   2  -4  -4    4.31    0.75
  -2  -4   4    3.44    0.55
   2   4  -3   42.26    2.18
   2   4  -3   42.79    1.78
  -2   4   3   42.24    2.10
  -2  -4   3   38.56    1.73
   2  -4  -3   41.54    2.08
   2   4  -2  284.50    5.50
  -2   4   2  281.66    5.95
  -2  -4   2  281.72    5.54
   2  -4  -2  297.99    6.14
  -2   4   1  146.11    3.96
   2   4  -1  148.52    3.69
  -2  -4   1  146.58    3.74
   2  -4  -1  153.76    4.07
   2   4   0   63.91    2.32
  -2   4   0   56.70    2.36
  -2  -4   0   62.55    2.33
   2  -4   0   57.53    2.39
  -2   4  -1    6.30    0.86
   2   4   1    7.31    0.94
  -2  -4  -1    7.96    0.93
   2  -4   1    7.56    0.93
  -2   4  -2    1.69    0.68
   2   4   2    1.13    0.63
  -2  -4  -2    0.63    0.56
   2   4   3  239.38    5.32
  -2   4  -3  244.73    5.26
  -2  -4  -3  249.14    5.46
  -2   4  -4   28.29    1.60
   2   4   4   29.42    1.75
  -2  -4  -4   29.50    1.73
  -2   4  -4   29.82    1.71
  -2   4  -5   73.56    2.59
  -2  -4  -5   80.75    2.95
   2   4   5   78.01    2.87
  -2   4  -5   74.97    2.73
  -2  -4  -6   37.68    2.03
  -2   4  -6   35.60    1.76
   2   4   6   34.97    1.97
  -2   4  -6   34.20    1.81
   2   4   7    1.47    0.68
  -2  -4  -7    3.84    0.84
  -2   4  -7    2.77    0.66
  -2   4  -7    2.23    0.57
   2   4   8   87.64    3.27
  -2   4  -8   90.52    2.85
  -2   4  -8   85.15    2.91
  -2   4  -9   91.45    3.49
   2   4   9   95.54    3.45
  -2   4  -9   98.05    3.00
  -2   4  -9   90.29    2.99
  -2   4 -10    4.76    1.11
   2   4  10    5.25    0.99
  -2   4 -10    5.82    0.82
  -2   4 -10    3.50    0.66
  -2   4 -11   40.90    2.39
   2   4  11   41.48    2.35
  -2   4 -11   43.83    1.97
  -2   4 -11   41.99    1.98
  -2   4 -12    7.78    1.22
   2   4  12    4.74    1.08
  -2   4 -12    6.39    0.81
  -2   4 -12    6.69    0.85
  -2   4 -13   12.15    1.36
   2   4  13   14.28    1.58
  -2   4 -13   12.36    1.07
  -2   4 -13   11.34    1.08
  -2   4 -14   99.75    3.81
   2   4  14  104.50    4.00
  -2   4 -14  106.64    3.20
  -2   4 -14  101.11    3.19
  -2   4 -15  157.87    4.91
   2   4  15  157.38    5.10
  -2   4 -15  175.13    4.27
  -2   4 -15  161.57    4.18
  -2   4 -16    8.86    1.00
  -2   4 -16    6.40    1.14
   2   4  16   10.91    1.45
  -2   4 -16    8.42    0.99
  -2   4 -17    3.59    0.70
  -2   4 -17    2.53    0.89
   2   4  17    3.40    0.99
  -2   4 -17    3.72    0.72
  -2   4 -18   -0.99    0.82
   2   4  18    0.87    0.81
  -2   4 -18    0.40    0.49
  -2   4 -19    4.01    0.98
   2   4  19    6.52    1.30
  -2   4 -19    7.39    0.90
  -2   4 -20    6.15    1.14
   2   4  20    4.38    1.30
  -2   4 -20    4.10    0.71
  -2   4 -21   11.46    1.47
   2   4  21   12.02    1.65
  -2   4 -22    6.98    1.21
   2   4  22    7.00    1.44
  -2   4 -23   18.00    1.79
   2   4  23   17.93    2.01
  -2   4 -24    1.02    0.85
   2   4  24    1.18    1.16
  -2   4 -25    2.37    0.96
   2   4  25    3.17    1.12
   2   4  26    1.18    1.03
  -2   4 -26   -0.04    0.84
  -2   4 -27    5.22    1.29
  -2   4 -28   26.64    2.33
   2   5 -25    9.28    1.70
   2   5 -24   51.73    3.33
   2   5 -23    2.54    1.19
  -2   5  23    1.53    1.16
   2   5 -22   41.57    2.93
  -2   5  22   40.96    2.99
   2   5 -21    1.46    0.98
  -2   5  21    1.79    1.00
   2   5 -20    2.92    1.12
  -2   5  20    7.07    1.45
   2   5 -19   40.24    2.82
  -2   5  19   40.36    2.86
   2   5 -18   51.54    3.13
  -2   5  18   61.56    3.46
   2   5 -17    6.05    1.26
  -2   5  17    7.07    1.40
   2   5 -16   65.36    3.45
  -2   5  16   69.26    3.54
   2   5 -15    1.68    1.06
   2   5 -15    3.49    0.57
  -2   5  15    2.82    1.12
   2   5 -14   58.03    3.21
   2   5 -14   68.64    2.15
  -2   5  14   59.81    3.24
   2   5 -13   98.46    4.16
  -2   5  13  102.73    4.23
   2   5 -13  109.98    2.84
   2   5 -13   97.02    3.09
   2   5 -12   53.88    3.08
   2   5 -12   54.37    1.54
   2   5 -12   61.24    2.08
  -2   5  12   55.57    3.01
   2   5 -12   55.41    2.30
   2   5 -11   12.68    1.57
   2   5 -11   12.58    0.79
   2   5 -11   13.44    1.02
  -2   5  11    9.04    1.30
   2   5 -11   12.48    1.12
   2   5 -10   88.99    3.84
  -2   5  10   95.04    3.88
   2   5 -10  102.82    2.87
   2   5 -10   89.69    3.08
   2   5  -9    5.44    1.12
   2   5  -9    4.78    0.70
  -2   5   9    4.69    1.06
   2   5  -9    5.12    0.82
   2   5  -8   86.59    3.72
   2   5  -8   96.26    2.86
  -2   5   8   84.90    3.54
   2   5  -8   88.97    3.12
   2   5  -7   16.97    1.69
  -2   5   7   17.30    1.68
   2   5  -7   17.47    1.24
   2   5  -6    2.15    0.90
  -2   5   6    1.24    0.79
   2   5  -6    0.38    0.50
   2   5  -5   26.16    2.07
   2   5  -5   23.75    1.47
  -2   5   5   23.09    1.80
  -2  -5   5   21.03    1.44
   2   5  -4  141.18    4.63
   2   5  -4  136.86    3.72
  -2   5   4  146.16    4.47
  -2  -5   4  128.56    3.73
  -2   5   3   41.85    2.31
   2   5  -3   45.76    2.09
  -2  -5   3   42.60    2.07
   2   5  -2  271.91    5.78
  -2   5   2  260.90    6.20
  -2  -5   2  255.34    5.75
  -2   5   1    1.61    0.75
   2   5  -1    2.67    0.84
  -2  -5   1    0.18    0.50
   2   5   0   68.86    2.73
  -2   5   0   64.98    2.79
  -2  -5   0   70.21    2.81
   2   5   1    3.22    0.85
  -2   5  -1    0.76    0.70
  -2  -5  -1    0.82    0.65
   2   5   2  151.87    4.36
  -2   5  -2  151.77    4.34
  -2   5  -3  109.35    3.57
   2   5   3  107.15    3.65
  -2   5  -4  171.89    4.60
   2   5   4  166.24    4.73
   2   5   5    1.85    0.81
  -2   5  -5    1.07    0.69
  -2   5  -6  222.70    5.31
   2   5   6  224.72    5.75
   2   5   7    2.30    0.88
  -2   5  -7    2.06    0.76
  -2   5  -8   68.01    3.36
  -2   5  -8   79.52    2.94
   2   5   8   79.82    3.35
  -2   5  -9   78.99    3.56
   2   5   9   79.53    3.47
  -2   5  -9   87.38    3.08
  -2   5  -9   79.24    3.15
  -2   5 -10  118.70    4.42
  -2   5 -10  130.59    3.84
   2   5  10  121.12    4.37
  -2   5 -10  122.36    3.94
  -2   5 -11   11.21    1.52
   2   5  11   15.54    1.68
  -2   5 -11   12.00    1.22
  -2   5 -11   11.53    1.25
  -2   5 -12  203.83    6.10
  -2   5 -12  216.44    5.13
   2   5  12  205.44    6.05
  -2   5 -12  200.28    5.25
  -2   5 -13    2.52    1.14
   2   5  13    1.96    0.96
  -2   5 -13    2.78    0.86
  -2   5 -14  217.68    6.46
   2   5  14  225.96    6.55
  -2   5 -14  229.69    5.35
  -2   5 -15   12.84    1.70
   2   5  15   15.17    1.77
  -2   5 -15   14.51    1.32
  -2   5 -16   51.84    3.09
   2   5  16   60.33    3.37
  -2   5 -16   60.33    2.57
  -2   5 -17   56.01    3.22
  -2   5 -17   63.86    2.63
   2   5  17   61.32    3.44
  -2   5 -18   66.77    3.55
  -2   5 -18   70.95    2.81
   2   5  18   72.12    3.83
  -2   5 -19    5.63    1.30
   2   5  19    6.00    1.35
  -2   5 -20   50.35    3.15
   2   5  20   56.17    3.49
  -2   5 -21    2.75    1.02
   2   5  21    2.46    1.18
  -2   5 -22   52.90    3.28
  -2   5 -23    2.17    1.03
  -2   5 -24    8.19    1.43
  -2   5 -25   22.96    2.30
   2   6 -18    5.61    1.33
  -2   6  18    7.95    1.64
   2   6 -17   23.20    2.29
  -2   6  17   25.60    2.41
   2   6 -16   31.70    2.66
  -2   6  16   30.45    2.59
   2   6 -15   40.40    3.02
  -2   6  15   35.92    2.75
   2   6 -14   -0.19    0.96
  -2   6  14    3.79    1.21
   2   6 -13   13.91    1.81
  -2   6  13   15.28    1.83
   2   6 -12   11.56    1.68
  -2   6  12   16.33    1.86
   2   6 -11  104.66    4.59
  -2   6  11  112.50    4.59
   2   6 -10   21.56    2.18
   2   6 -10   21.91    1.45
  -2   6  10   19.71    1.98
   2   6  -9   45.62    3.00
  -2   6   9   43.37    2.81
   2   6  -9   46.20    2.12
   2   6  -8   19.81    2.10
   2   6  -8   19.89    1.45
  -2   6   8   19.98    1.97
   2   6  -7    4.47    0.81
  -2   6   7    3.31    0.99
   2   6  -7    4.45    1.22
  -2   6   6   15.55    1.66
   2   6  -6   17.38    1.40
   2   6  -6   16.47    1.83
   2   6  -5   73.20    3.70
   2   6  -5   73.74    2.89
  -2   6   5   80.38    3.59
  -2   6   4    1.46    0.95
   2   6  -4    2.82    0.82
   2   6  -4    2.52    1.22
   2   6  -3   49.85    2.99
   2   6  -3   52.97    2.51
  -2   6   3   48.88    2.75
  -2   6   2   46.14    2.66
   2   6  -2   49.63    2.50
   2   6  -2   47.66    2.97
   2   6  -1   75.02    3.10
  -2   6   1   70.84    3.26
   2   6   0    6.16    1.06
  -2   6   0    4.11    1.00
  -2   6  -1   99.22    3.79
   2   6   1  100.00    3.73
   2   6   2   10.36    1.28
  -2   6  -2   11.42    1.39
   2   6   3  110.00    4.02
  -2   6  -3  107.29    3.88
   2   6   4    1.48    0.82
  -2   6  -4    2.71    0.91
  -2   6  -5   49.88    2.56
   2   6   5   52.53    2.84
   2   6   6    2.09    0.96
  -2   6  -6    0.89    0.73
   2   6   7    9.12    1.35
  -2   6  -7   11.33    1.28
  -2   6  -7   10.29    1.60
  -2   6  -8    6.89    1.13
   2   6   8    7.03    1.38
  -2   6  -8    6.10    1.47
  -2   6  -9  115.48    4.80
   2   6   9  113.76    4.50
  -2   6  -9  119.38    3.95
  -2   6 -10   41.79    2.90
   2   6  10   40.41    2.75
  -2   6 -10   44.40    2.34
  -2   6 -11  112.19    4.84
   2   6  11  116.90    4.74
  -2   6 -11  125.31    4.02
  -2   6 -12   47.60    3.23
  -2   6 -12   45.88    2.39
   2   6  12   46.50    3.05
  -2   6 -13   18.73    2.07
   2   6  13   17.80    2.03
  -2   6 -14    4.98    1.38
   2   6  14    4.22    1.27
  -2   6 -15   52.55    3.35
   2   6  15   57.68    3.45
  -2   6 -16    5.06    1.33
   2   6  16    4.54    1.28
  -2   6 -17   39.21    2.99
  -2   6 -18   18.84    2.15
  -2   7  11    1.66    0.97
  -2   7  10   34.51    2.81
  -2   7   9    0.00    0.88
  -2   7   8   70.00    3.78
  -2   7   7   11.93    1.73
   2   7  -6    4.00    1.46
  -2   7   6    5.54    1.29
  -2   7   5    1.16    0.91
   2   7  -5    3.58    1.31
   2   7  -4   12.85    1.38
  -2   7   4   13.84    1.72
   2   7  -4   16.25    2.02
   2   7  -3    9.51    1.28
  -2   7   3    7.68    1.36
   2   7  -3   10.74    1.65
   2   7  -2   29.35    2.55
  -2   7   2   34.73    2.49
   2   7  -2   26.75    1.99
   2   7  -1    2.21    0.90
  -2   7   1    2.37    1.03
   2   7  -1    3.00    1.24
   2   7   0   69.48    3.81
   2   7   0   68.58    3.27
  -2   7   0   66.00    3.37
   2   7   1    2.87    0.98
  -2   7  -1    2.94    1.05
   2   7   1    4.32    1.38
  -2   7  -2   34.97    2.46
   2   7   2   37.95    2.52
   2   7   3    2.65    1.00
  -2   7  -3    2.91    0.98
   2   7   4    1.29    0.90
  -2   7  -4    1.22    0.85
  -2   7  -5    2.36    0.86
   2   7   5    4.35    1.14
   2   7   6   21.96    2.08
  -2   7  -6   22.95    1.94
   2   7   7    1.73    1.03
   2   7   8    3.82    1.27
   2   7   9    2.67    1.26
   2   7  10   24.06    2.33
   2   7  11   -1.28    0.98
  -3   0  33   59.07    3.66
  -3   0  32    0.61    0.84
  -3   0  31    7.02    1.35
  -3   0  30    0.64    0.55
  -3   0  30   -0.75    0.95
  -3   0  29   29.87    1.82
  -3   0  29   31.60    2.49
  -3   0  28   -0.22    0.46
  -3   0  28    1.23    0.88
  -3   0  27   34.87    1.85
  -3   0  27   34.29    2.43
  -3   0  26    2.84    0.70
  -3   0  26    2.61    0.99
  -3   0  25  152.86    3.94
   3   0 -25  150.04    4.36
  -3   0  25  148.44    4.98
  -3   0  24    0.74    0.54
  -3   0  24    0.49    0.56
   3   0 -24    0.46    0.63
  -3   0  24    1.24    0.83
  -3   0  23   37.51    1.74
  -3   0  23   36.80    2.02
   3   0 -23   35.74    1.92
  -3   0  23   33.44    2.18
  -3   0  22    0.61    0.45
  -3   0  22    0.43    0.53
   3   0 -22   -0.46    0.43
  -3   0  22    1.09    0.71
  -3   0  21   43.27    2.07
  -3   0  21   42.86    1.78
   3   0 -21   41.94    1.98
  -3   0  21   42.40    2.34
  -3   0  20    0.31    0.40
  -3   0  20    0.99    0.59
   3   0 -20    0.59    0.45
  -3   0  20    0.65    0.59
  -3   0  20    0.85    0.74
  -3   0  19  103.98    3.17
  -3   0  19  105.38    2.75
  -3   0  19  103.05    3.04
   3   0 -19  103.09    3.01
  -3   0  19  106.30    3.57
  -3   0  18    2.84    0.61
  -3   0  18    3.37    0.77
   3   0 -18    2.75    0.66
  -3   0  18    3.44    0.79
  -3   0  17   88.67    2.76
   3   0 -17   86.79    2.58
  -3   0  17   87.66    2.62
  -3   0  16    0.73    0.50
  -3   0  16   -0.21    0.43
   3   0 -16    0.08    0.37
  -3   0  15    1.82    0.50
   3   0 -15    2.21    0.47
  -3   0  15    1.94    0.52
  -3   0  14    1.04    0.57
  -3   0  14    0.33    0.42
   3   0 -14    0.16    0.35
  -3   0  13  130.71    3.16
   3   0 -13  125.97    2.83
  -3   0  13  127.74    2.85
  -3   0  12    4.02    0.74
  -3   0  12    2.14    0.55
   3   0 -12    2.09    0.52
  -3   0  11  275.63    4.86
   3   0 -11  265.02    4.41
  -3   0  11  263.49    4.39
  -3   0  10    1.73    0.50
   3   0 -10    1.81    0.45
   3   0  -9   60.59    1.55
  -3   0   9   61.15    1.58
  -3   0   8    0.26    0.36
   3   0  -8    0.01    0.30
   3   0  -7   48.87    1.24
  -3   0   7   46.78    1.21
  -3   0   6    0.57    0.33
   3   0  -6   -0.27    0.27
  -3   0   5    4.47    0.39
  -3   0   5    4.93    0.34
   3   0  -5    4.18    0.38
  -3   0   4   -0.04    0.25
   3   0  -4    0.29    0.23
  -3   0   4    0.25    0.18
  -3   0   4    0.70    0.28
   3   0  -3   16.27    0.75
  -3   0   3   17.37    0.71
  -3   0   3   16.22    0.58
   3   0  -3   16.25    0.59
  -3   0   3   15.18    0.58
  -3   0   2    0.71    0.28
   3   0  -2    0.00    0.30
   3   0  -2    0.26    0.25
  -3   0   2    0.67    0.24
  -3   0   1   12.75    0.59
   3   0  -1   13.26    0.61
  -3   0   0    1.57    0.31
   3   0   0    1.49    0.36
  -3   0  -1   20.05    0.81
   3   0   1   21.14    0.86
   3   0   2    0.33    0.40
  -3   0  -2   -0.42    0.33
  -3   0  -3    7.77    0.64
   3   0   3    8.69    0.68
   3   0   3    7.80    0.40
  -3   0  -3    8.53    0.41
   3   0   4    0.09    0.49
  -3   0  -4   -0.38    0.40
   3   0   4    0.37    0.27
   3   0   5   13.82    0.88
  -3   0  -5   11.48    0.79
   3   0   5   11.98    0.61
   3   0   6    0.29    0.48
  -3   0  -6    0.04    0.36
  -3   0  -6   -0.08    0.18
   3   0   6   -0.07    0.33
  -3   0  -7    0.62    0.42
   3   0   7    1.09    0.53
   3   0   7    1.32    0.40
  -3   0  -8    0.49    0.41
   3   0   8    0.40    0.46
  -3   0  -8   -0.34    0.47
   3   0   8    0.31    0.37
   3   0   8    0.50    0.23
   3   0   9    0.83    0.46
  -3   0  -9    1.37    0.45
   3   0   9    1.06    0.26
  -3   0  -9    0.96    0.50
   3   0   9    1.62    0.42
   3   0  10    0.54    0.44
   3   0  10    0.21    0.26
  -3   0 -10    0.03    0.45
   3   0  10    0.37    0.38
   3   0  11    1.09    0.31
   3   0  11    0.50    0.48
  -3   0 -11    0.45    0.49
   3   0  11    0.67    0.42
   3   0  12    1.73    0.58
   3   0  12    1.15    0.34
  -3   0 -12    1.59    0.58
   3   0  12    1.67    0.55
   3   0  13   82.27    2.61
   3   0  13   80.63    1.91
  -3   0 -13   83.94    2.73
   3   0  13   82.10    2.48
   3   0  14    0.05    0.45
   3   0  14    0.43    0.31
  -3   0 -14    0.21    0.51
   3   0  14    0.76    0.52
   3   0  15   41.07    1.89
   3   0  15   38.50    1.35
  -3   0 -15   39.75    1.95
   3   0  15   39.53    1.81
   3   0  16    0.41    0.46
   3   0  16    0.59    0.37
  -3   0 -16   -0.97    0.54
   3   0  16    0.44    0.54
   3   0  17    0.30    0.46
   3   0  17    1.10    0.39
  -3   0 -17    0.78    0.55
   3   0  17    0.65    0.52
   3   0  18    0.70    0.41
   3   0  18    0.93    0.66
  -3   0 -18    0.95    0.68
   3   0  18    1.77    0.74
   3   0  19  112.63    3.58
   3   0  19  114.69    3.60
   3   0  19  110.82    2.74
   3   0  20    0.67    0.69
   3   0  20    0.43    0.41
   3   0  20    0.73    0.64
   3   0  21    1.53    0.64
   3   0  21    1.55    0.49
   3   0  21    0.38    0.52
   3   0  22    0.71    0.65
   3   0  22    0.13    0.39
   3   0  22   -0.68    0.65
   3   0  23   25.48    1.86
   3   0  23   25.26    1.36
   3   0  23   26.36    1.85
   3   0  24    1.46    0.81
   3   0  24    1.32    0.54
   3   0  24    1.01    0.70
   3   0  25  102.78    3.96
   3   0  25  105.63    3.88
   3   0  26    2.54    0.93
   3   0  26    1.14    0.73
   3   0  27    9.48    1.37
   3   0  27   10.42    1.33
   3   0  28    0.86    0.84
   3   0  28    0.37    0.64
   3   0  29    2.96    1.02
   3   0  29    3.42    1.00
   3   0  30   -0.54    0.77
   3   0  30    0.12    0.68
   3   0  31    0.08    0.82
   3   0  31    2.42    0.98
   3   0  32    1.25    0.99
   3   0  33   34.90    2.76
  -3   1  33    2.99    1.02
  -3  -1  33    1.68    1.05
  -3  -1  32   10.05    1.97
  -3   1  32   10.07    1.59
  -3   1  32    9.24    1.26
  -3   1  31    0.11    0.83
  -3  -1  31   -0.55    0.76
  -3   1  31    0.53    0.68
  -3   1  30   27.35    2.33
  -3  -1  30   29.22    2.50
  -3   1  30   28.36    2.00
  -3  -1  29   24.78    2.25
  -3   1  29   19.37    2.03
  -3   1  29   20.29    1.70
  -3  -1  28    7.76    1.36
  -3   1  28    6.77    1.20
  -3   1  28    8.13    1.12
  -3  -1  28    7.60    0.84
  -3  -1  27    3.60    1.07
  -3   1  27    4.66    0.93
  -3  -1  27    4.17    0.64
  -3   1  26   31.53    1.93
  -3  -1  26   29.26    2.25
   3   1 -26   28.42    1.72
  -3   1  26   30.70    2.10
  -3  -1  26   30.37    1.44
  -3  -1  25    5.71    0.70
  -3   1  25    6.50    0.97
   3   1 -25    4.71    0.80
  -3   1  25    4.93    1.01
  -3  -1  25    6.13    1.16
  -3   1  24    0.55    0.61
  -3  -1  24    1.09    0.45
   3   1 -24    0.94    0.52
  -3   1  24    1.18    0.78
  -3  -1  24    2.33    0.97
  -3  -1  23    4.44    0.58
  -3   1  23    3.97    0.81
  -3  -1  23    4.39    1.05
  -3   1  23    4.02    0.93
   3   1 -23    3.44    0.64
  -3   1  22   44.55    2.20
  -3  -1  22   46.41    2.31
  -3  -1  22   48.06    2.63
  -3   1  22   50.76    2.48
   3   1 -22   45.29    1.94
  -3  -1  22   49.06    1.67
  -3  -1  21   76.15    2.90
  -3  -1  21   80.03    3.30
   3   1 -21   74.87    2.46
   3  -1 -21   75.44    2.92
  -3   1  21   76.79    2.95
  -3  -1  21   77.60    2.11
  -3  -1  20  203.48    5.00
  -3  -1  20  209.72    5.46
  -3   1  20  207.72    5.05
   3  -1 -20  210.27    5.09
   3   1 -20  205.41    4.34
  -3  -1  20  207.64    3.81
  -3  -1  19   17.02    1.37
  -3  -1  19   19.10    1.62
  -3   1  19   19.95    1.47
   3  -1 -19   20.03    1.45
   3   1 -19   15.12    1.04
  -3  -1  19   16.55    0.91
  -3  -1  18    1.38    0.49
  -3  -1  18    2.06    0.41
  -3  -1  18    1.91    0.70
   3  -1 -18    2.29    0.63
  -3   1  18    2.76    0.62
   3   1 -18    2.34    0.45
  -3  -1  17   33.36    1.75
  -3  -1  17   34.51    1.91
   3  -1 -17   32.19    1.70
  -3   1  17   34.12    1.77
   3   1 -17   32.62    1.36
  -3  -1  17   32.95    1.14
  -3  -1  16   97.63    2.98
  -3  -1  16   94.36    3.17
   3   1 -16   95.69    2.36
  -3   1  16   97.23    2.96
   3  -1 -16   95.27    2.93
  -3  -1  16   94.21    1.99
  -3  -1  15   34.15    1.70
  -3  -1  15   31.25    1.79
  -3   1  15   31.18    1.62
   3  -1 -15   33.06    1.65
   3   1 -15   32.95    1.25
  -3  -1  15   31.46    0.99
  -3  -1  14  483.93    7.91
  -3  -1  14  463.08    8.13
   3  -1 -14  471.97    7.79
  -3   1  14  461.69    7.71
   3   1 -14  463.34    6.75
  -3  -1  14  473.94    6.22
  -3  -1  13    8.32    0.96
   3   1 -13    6.13    0.97
  -3  -1  13    9.13    1.16
   3  -1 -13    7.55    0.85
   3   1 -13    7.70    0.61
  -3   1  13    7.58    0.92
  -3  -1  13    5.95    0.41
  -3  -1  12   43.51    1.77
   3   1 -12   42.51    1.78
  -3  -1  12   44.08    1.88
  -3  -1  12   41.57    1.43
   3   1 -12   43.50    1.22
   3  -1 -12   39.91    1.66
  -3   1  12   41.06    1.70
  -3  -1  12   44.50    0.91
  -3  -1  11    5.11    0.74
   3   1 -11    3.93    0.78
   3   1 -11    4.13    0.40
  -3   1  11    4.85    0.77
   3  -1 -11    4.63    0.66
  -3  -1  11    3.84    0.52
  -3  -1  11    4.46    0.83
  -3  -1  10  204.41    4.04
   3   1 -10  195.35    4.02
   3   1 -10  196.71    2.96
  -3   1  10  195.97    3.91
   3  -1 -10  193.06    3.88
  -3  -1  10  206.26    4.20
  -3  -1  10  194.27    3.50
  -3  -1   9    2.50    0.58
   3   1  -9    0.85    0.65
   3  -1  -9    0.70    0.45
   3   1  -9    0.86    0.22
  -3   1   9    0.34    0.53
  -3  -1   9    0.48    0.35
   3   1  -9    1.00    0.45
  -3  -1   9    1.89    0.67
   3   1  -8  233.28    4.29
  -3  -1   8  242.26    4.31
   3  -1  -8  228.29    4.16
  -3   1   8  226.31    4.18
   3   1  -8  229.86    4.28
  -3  -1   8  223.85    3.77
  -3  -1   8  239.74    4.37
   3   1  -7    7.00    0.79
  -3  -1   7    7.93    0.76
   3  -1  -7    6.73    0.65
  -3   1   7    6.83    0.76
   3   1  -7    5.87    0.56
   3   1  -7    6.96    0.72
  -3  -1   7    5.92    0.54
  -3  -1   7    8.00    0.79
  -3  -1   6  270.53    4.45
   3   1  -6  267.40    4.46
  -3  -1   6  265.75    4.42
   3   1  -6  246.56    4.01
   3   1  -6  252.93    4.38
  -3   1   6  255.27    4.39
   3  -1  -6  257.41    4.40
  -3  -1   5    2.78    0.48
   3   1  -5    3.98    0.62
  -3  -1   5    2.98    0.58
   3   1  -5    3.78    0.49
   3   1  -5    2.71    0.44
  -3   1   5    2.81    0.60
   3  -1  -5    2.60    0.53
  -3  -1   4   66.72    1.69
   3   1  -4   63.33    1.73
  -3  -1   4   63.37    1.64
   3   1  -4   63.80    1.60
  -3   1   4   60.39    1.74
   3  -1  -4   62.48    1.70
   3   1  -3    4.22    0.54
  -3  -1   3    5.24    0.51
  -3  -1   3    4.24    0.47
   3   1  -3    4.64    0.48
  -3  -1   3    4.87    0.30
   3  -1  -3    4.86    0.56
  -3   1   3    4.82    0.62
  -3  -1   2  103.52    2.13
   3   1  -2  102.90    2.11
   3   1  -2   93.01    1.94
  -3  -1   2  104.05    1.99
   3   1  -2  109.53    1.77
  -3  -1   2  108.34    1.76
   3  -1  -2  100.90    2.21
  -3   1   2   98.22    2.21
   3   1  -1    4.25    0.48
   3   1  -1    4.69    0.41
  -3  -1   1    4.16    0.47
   3   1  -1    5.80    0.46
  -3  -1   1    4.48    0.41
  -3   1   1    4.38    0.56
  -3   1   1    4.05    0.51
   3   1   0  188.65    3.04
  -3   1   0  176.57    2.91
   3   1   0  208.85    3.11
  -3  -1   0  205.49    3.09
  -3   1   0  185.19    3.29
   3  -1   0  177.07    3.34
   3   1   1   14.29    0.67
  -3   1  -1   13.34    0.57
   3   1   1   16.60    0.82
  -3  -1  -1   16.44    0.78
   3  -1   1   12.94    0.84
  -3   1  -1   12.96    0.79
   3  -1   2  200.55    3.00
   3   1   2  225.73    3.62
  -3  -1  -2  218.90    3.60
  -3   1  -2  208.76    3.63
   3  -1   2  211.92    3.68
   3  -1   3    1.46    0.27
  -3   1  -3    1.91    0.47
   3   1   3    5.05    0.72
  -3  -1  -3    3.88    0.60
  -3   1  -3    1.57    0.45
   3  -1   3    1.93    0.62
  -3   1  -4  106.12    2.40
  -3  -1  -4  115.09    2.54
   3   1   4  118.74    2.58
  -3   1  -4  107.55    2.45
   3  -1   4  110.23    2.46
  -3   1  -5    0.13    0.38
   3   1   5    0.29    0.54
  -3  -1  -5    0.71    0.45
   3  -1   5    0.31    0.44
  -3   1  -5    0.13    0.33
   3  -1   6   15.32    0.98
  -3   1  -6   15.86    0.91
  -3  -1  -6   18.65    1.06
   3   1   6   19.12    1.15
   3  -1   6   17.30    1.01
  -3   1  -6   15.57    0.94
  -3   1  -7   33.70    1.22
   3  -1   7   35.86    1.47
  -3   1  -7   36.09    1.42
   3   1   7   38.19    1.60
  -3  -1  -7   37.71    1.55
  -3   1  -7   37.32    1.44
   3  -1   7   37.22    1.42
  -3   1  -8   28.04    1.27
  -3   1  -8   30.53    1.18
   3   1   8   30.68    1.50
  -3   1  -8   30.18    1.34
   3  -1   8   30.22    1.38
   3   1   8   30.66    1.53
  -3  -1  -8   33.16    1.53
   3  -1   8   32.15    1.37
   3   1   9   40.92    1.75
  -3   1  -9   38.73    1.35
  -3   1  -9   40.03    1.57
  -3   1  -9   42.03    1.64
   3  -1   9   43.29    1.67
   3   1   9   42.64    1.81
  -3  -1  -9   40.84    1.76
   3  -1   9   44.90    1.66
  -3   1 -10   36.88    1.33
   3   1  10   39.84    1.75
  -3   1 -10   36.86    1.52
   3  -1  10   38.19    1.64
  -3   1 -10   38.86    1.63
  -3  -1 -10   39.37    1.77
   3  -1  10   39.11    1.59
  -3   1 -11    0.01    0.33
  -3   1 -11   -0.40    0.37
   3   1  11    1.24    0.59
  -3   1 -11    0.26    0.42
   3  -1  11    0.63    0.52
  -3  -1 -11    0.89    0.55
   3  -1  11    1.10    0.56
   3   1  12   88.28    2.81
  -3   1 -12   84.43    2.50
  -3   1 -12   85.31    2.27
   3  -1  12   88.23    2.71
  -3   1 -12   88.76    2.70
  -3  -1 -12   89.36    2.88
   3  -1  12   88.92    2.56
   3   1  13   20.99    1.43
   3   1  13   19.58    0.85
  -3   1 -13   19.85    1.18
  -3   1 -13   21.00    1.09
   3  -1  13   23.18    1.40
  -3  -1 -13   20.63    1.40
   3  -1  13   21.68    1.28
  -3   1 -14    0.38    0.41
   3   1  14    0.10    0.51
   3   1  14    0.26    0.27
  -3   1 -14    0.36    0.36
   3  -1  14    0.26    0.58
  -3  -1 -14    0.17    0.46
   3  -1  14    0.93    0.52
   3   1  15   41.83    2.07
   3   1  15   42.15    1.36
  -3   1 -15   42.60    1.66
  -3   1 -15   40.25    1.78
   3  -1  15   45.03    2.06
  -3   1 -15   39.92    1.92
  -3  -1 -15   45.25    2.17
   3  -1  15   44.63    1.88
   3   1  16   -0.11    0.51
  -3   1 -16    0.04    0.38
   3   1  16    0.76    0.31
   3  -1  16    1.49    0.61
  -3  -1 -16   -0.17    0.61
  -3   1 -16    0.25    0.42
   3  -1  16    0.94    0.51
   3   1  17    0.32    0.29
   3   1  17    0.79    0.56
   3  -1  17    0.52    0.54
  -3  -1 -17   -1.04    0.60
  -3   1 -17    0.12    0.48
   3  -1  17    0.78    0.45
   3   1  18   53.65    1.70
   3   1  18   52.42    2.46
   3  -1  18   54.44    2.46
  -3   1 -18   50.96    2.34
   3  -1  18   53.72    2.24
   3   1  19    3.74    0.87
   3   1  19    3.41    0.51
   3  -1  19    2.92    0.76
   3   1  19    2.67    0.70
  -3   1 -19    3.48    0.78
   3  -1  19    2.99    0.70
   3   1  20   14.23    1.41
   3   1  20   14.41    0.92
   3   1  20   14.92    1.33
   3  -1  20   13.97    1.36
  -3   1 -20   13.78    1.28
   3  -1  20   14.38    1.25
   3   1  21   37.09    2.10
   3  -1  21   35.04    2.16
   3   1  21   35.40    2.16
   3   1  21   33.31    1.42
   3  -1  21   37.24    1.98
   3  -1  22    3.61    0.84
   3   1  22    4.55    0.91
   3   1  22    4.51    0.60
   3   1  22    5.02    1.03
   3  -1  22    5.28    0.91
   3  -1  23    0.15    0.63
   3   1  23    1.17    0.65
   3   1  23    0.68    0.40
   3   1  23    0.40    0.68
   3  -1  23    1.86    0.72
   3  -1  24    9.78    1.30
   3   1  24   11.04    1.32
   3   1  24   11.40    1.37
   3  -1  24   11.90    1.28
   3   1  25    0.00    0.65
   3  -1  25    0.08    0.69
   3   1  25    1.06    0.78
   3  -1  25    0.88    0.69
   3   1  26   22.08    1.85
   3  -1  26   19.74    1.88
   3   1  26   20.67    1.90
   3  -1  26   20.75    1.67
   3   1  27    7.23    1.19
   3  -1  27    6.95    1.33
   3   1  27    6.49    1.25
   3  -1  27    7.25    1.06
   3   1  28    3.54    0.99
   3  -1  28    3.48    1.10
   3   1  28    2.90    0.95
   3  -1  28    3.76    0.92
   3   1  29    1.32    0.85
   3  -1  29    1.85    0.91
   3   1  29    1.12    0.78
   3  -1  29    2.98    0.86
   3   1  30   29.33    2.36
   3   1  30   29.15    2.34
   3  -1  30   30.09    2.48
   3   1  31    3.55    1.12
   3   1  31    4.41    1.24
   3  -1  31    5.99    1.34
   3   1  32    0.11    0.86
   3   1  32   -0.74    0.89
   3  -1  32    0.20    0.94
   3   1  33    6.05    1.42
  -3   2  33    3.59    1.13
  -3   2  33    5.18    1.34
  -3   2  32   29.89    2.31
  -3   2  31    0.52    0.85
  -3  -2  31    0.38    0.87
  -3   2  30    0.48    0.76
  -3   2  30    1.26    0.96
  -3  -2  30   -0.06    0.80
  -3   2  29    2.98    0.92
  -3  -2  29    2.20    0.88
  -3   2  29    4.41    1.18
  -3  -2  28   29.52    2.44
  -3   2  28   32.18    2.41
  -3  -2  27   41.27    2.83
  -3   2  27   41.26    2.67
  -3  -2  26    6.73    1.33
  -3   2  26    4.96    1.12
  -3  -2  25   -0.61    0.85
  -3  -2  25    0.51    0.46
   3   2 -25   -0.19    0.39
  -3   2  25   -0.27    0.67
  -3  -2  25    0.79    0.29
  -3  -2  24   25.38    1.45
  -3  -2  24   28.09    2.22
   3   2 -24   26.09    1.44
  -3   2  24   24.51    1.97
  -3  -2  24   26.88    0.97
  -3  -2  23    2.55    0.89
  -3  -2  23    2.54    0.56
  -3   2  23    3.29    0.98
   3   2 -23    2.17    0.54
  -3  -2  23    2.28    0.35
  -3  -2  22   44.40    1.81
  -3  -2  22   41.21    2.55
  -3   2  22   45.11    2.52
   3   2 -22   41.33    1.69
  -3  -2  22   44.51    1.21
   3   2 -21   28.93    1.96
  -3  -2  21   29.09    2.09
  -3  -2  21   30.60    1.46
  -3   2  21   30.60    2.05
   3   2 -21   30.12    1.38
  -3  -2  21   31.40    0.96
   3   2 -20   27.41    1.85
  -3  -2  20   27.91    1.34
  -3  -2  20   24.96    1.91
  -3   2  20   28.63    1.92
   3   2 -20   28.50    1.28
  -3  -2  20   27.87    0.86
   3   2 -19   -0.04    0.61
  -3   2  19    0.82    0.68
   3   2 -19    0.51    0.33
  -3  -2  19    0.74    0.57
  -3  -2  19    0.64    0.36
  -3  -2  19    0.01    0.68
   3   2 -18   -0.23    0.59
  -3   2  18    0.29    0.61
   3   2 -18    1.22    0.34
   3  -2 -18    0.41    0.56
  -3  -2  18    0.86    0.61
  -3  -2  18    1.16    0.58
  -3  -2  18    1.19    0.38
   3   2 -17    0.69    0.56
   3   2 -17    0.45    0.30
  -3   2  17    0.42    0.72
   3  -2 -17    0.27    0.48
  -3  -2  17    0.42    0.61
  -3  -2  17    0.30    0.30
  -3  -2  17    0.13    0.50
   3   2 -16   -0.09    0.58
   3   2 -16    0.58    0.27
  -3   2  16    1.67    0.67
   3  -2 -16    0.91    0.51
   3   2 -16    0.88    0.67
  -3  -2  16    1.42    0.41
  -3  -2  16    0.84    0.49
  -3  -2  16    0.64    0.57
   3   2 -15    2.00    0.76
   3  -2 -15    4.93    0.87
  -3   2  15    3.53    0.85
   3   2 -15    2.99    0.38
  -3  -2  15    3.20    0.84
  -3  -2  15    4.07    0.81
   3   2 -15    2.52    0.74
  -3  -2  14   52.49    2.23
   3   2 -14   48.91    2.20
   3  -2 -14   53.93    2.28
  -3   2  14   50.92    2.24
   3   2 -14   46.89    1.28
   3   2 -14   52.97    2.34
  -3  -2  14   51.50    2.33
   3   2 -13   57.83    1.09
   3   2 -13   62.87    2.42
  -3  -2  13   63.78    2.45
   3  -2 -13   67.10    2.50
   3   2 -13   61.85    1.41
  -3   2  13   61.25    2.44
   3   2 -13   63.40    2.50
  -3  -2  13   64.14    2.54
   3   2 -12   54.94    1.07
  -3  -2  12   60.44    2.34
   3   2 -12   59.05    2.28
  -3   2  12   56.46    2.24
   3  -2 -12   61.52    2.34
   3   2 -12   57.26    1.27
   3   2 -12   60.66    2.42
  -3  -2  12   61.28    2.42
   3   2 -11    2.20    0.70
   3   2 -11    2.02    0.23
  -3  -2  11    3.26    0.74
   3   2 -11    1.77    0.63
  -3  -2  11    2.65    0.73
   3  -2 -11    2.28    0.59
  -3   2  11    2.74    0.70
   3   2 -10   90.07    2.78
  -3  -2  10   90.57    2.81
  -3  -2  10   92.34    2.85
   3   2 -10   91.22    2.04
   3   2 -10   94.37    2.87
  -3   2  10   91.69    2.78
   3  -2 -10   95.90    2.82
   3   2 -10   84.86    1.56
   3   2 -10   89.50    1.53
   3   2  -9    0.21    0.56
   3   2  -9    0.01    0.46
  -3  -2   9   -0.08    0.52
  -3  -2   9    0.90    0.63
   3   2  -9   -0.16    0.28
   3  -2  -9    0.21    0.47
  -3   2   9    1.08    0.64
   3   2  -9   -0.11    0.18
   3   2  -9    0.34    0.17
  -3  -2   8   10.14    0.98
   3   2  -8    7.61    0.85
  -3   2   8    6.96    0.84
   3  -2  -8    9.08    0.92
   3   2  -8    6.97    0.35
  -3  -2   8    7.68    0.86
   3   2  -8    6.84    0.55
   3   2  -8    7.88    0.88
   3   2  -7   14.08    1.06
   3   2  -7   15.14    1.09
  -3  -2   7   15.62    1.14
   3   2  -7   14.68    0.50
  -3   2   7   13.60    1.04
   3  -2  -7   17.38    1.11
   3   2  -6    7.23    0.84
   3   2  -6    6.67    0.75
  -3  -2   6    7.76    0.80
   3   2  -6    7.32    0.40
  -3   2   6    7.44    0.88
   3  -2  -6    6.48    0.73
   3   2  -5    1.48    0.59
   3   2  -5    0.11    0.43
  -3   2   5    1.04    0.62
   3   2  -5    1.26    0.27
   3  -2  -5    1.02    0.51
  -3  -2   5    0.65    0.26
   3   2  -4   63.01    2.07
   3   2  -4   58.43    1.93
   3   2  -4   64.02    1.39
  -3  -2   4   59.25    1.39
  -3   2   4   61.20    2.00
   3  -2  -4   62.66    2.04
   3   2  -3    5.48    0.79
   3   2  -3    4.30    0.56
   3   2  -3    5.77    0.48
  -3  -2   3    4.40    0.45
  -3   2   3    5.03    0.75
   3  -2  -3    5.70    0.68
   3   2  -2   58.37    1.95
   3   2  -2   56.49    1.80
  -3   2   2   57.63    1.89
   3   2  -2   58.87    1.48
  -3  -2   2   55.45    1.47
   3  -2  -2   56.51    1.87
   3   2  -1   10.36    0.91
  -3  -2   1   10.66    0.70
   3   2  -1   11.51    0.72
   3  -2  -1   11.77    0.90
  -3   2   1   11.28    0.95
  -3  -2   0   70.80    1.85
   3   2   0   73.88    1.86
   3  -2   0   69.08    2.07
  -3   2   0   68.25    2.11
  -3   2   0   66.97    2.04
   3   2   1   14.02    0.90
  -3  -2  -1   13.15    0.82
  -3   2  -1   13.34    0.95
  -3   2  -1   14.04    0.91
  -3  -2  -2  144.29    3.05
   3   2   2  149.35    3.09
  -3   2  -2  139.71    3.13
  -3   2  -2  135.21    3.13
  -3  -2  -3    1.53    0.50
   3   2   3    1.23    0.55
  -3   2  -3    0.67    0.44
  -3   2  -3    0.93    0.53
  -3   2  -4   44.54    0.95
  -3   2  -4   47.88    1.81
  -3  -2  -4   54.38    1.82
   3   2   4   50.71    1.78
  -3   2  -4   45.07    1.70
  -3   2  -5    0.32    0.50
   3   2   5    1.60    0.62
  -3  -2  -5    1.09    0.49
   3  -2   5    1.03    0.45
  -3   2  -5    0.28    0.36
  -3   2  -6   54.94    2.05
  -3  -2  -6   60.76    2.09
   3   2   6   57.25    2.07
   3  -2   6   58.63    1.89
  -3   2  -6   55.34    1.87
  -3   2  -7    3.68    0.64
   3   2   7    4.80    0.79
  -3  -2  -7    5.87    0.79
  -3   2  -7    4.24    0.61
   3  -2   7    4.90    0.64
  -3   2  -8   37.42    1.78
  -3  -2  -8   43.72    1.88
   3   2   8   40.07    1.80
   3  -2   8   39.79    1.58
  -3   2  -8   38.13    1.58
  -3   2  -9    1.53    0.60
  -3   2  -9   -0.05    0.42
  -3  -2  -9    0.95    0.57
   3   2   9    0.55    0.63
  -3   2  -9    0.04    0.32
   3  -2   9    0.59    0.46
  -3   2 -10    2.89    0.54
  -3   2 -10    2.64    0.61
  -3   2 -10    3.78    0.67
  -3  -2 -10    4.78    0.82
   3   2  10    3.64    0.75
   3  -2  10    3.15    0.60
  -3   2 -11    7.56    0.77
  -3   2 -11    8.80    0.91
  -3   2 -11    7.49    0.91
   3  -2  11    8.98    1.00
  -3  -2 -11   10.01    1.06
   3   2  11    7.61    1.01
   3  -2  11    7.91    0.80
  -3   2 -12    0.70    0.43
  -3   2 -12    0.65    0.47
   3  -2  12    1.28    0.59
  -3   2 -12    0.16    0.47
   3   2  12    1.65    0.76
  -3  -2 -12    1.23    0.59
   3  -2  12    1.54    0.51
  -3   2 -13    4.22    0.67
  -3   2 -13    4.42    0.65
   3  -2  13    6.36    0.90
  -3   2 -13    6.43    0.89
  -3  -2 -13    5.75    0.85
   3   2  13    7.40    0.99
   3  -2  13    5.36    0.69
  -3   2 -14    1.12    0.49
  -3   2 -14    1.91    0.51
   3  -2  14    2.54    0.72
  -3   2 -14    2.73    0.71
  -3  -2 -14    3.07    0.82
   3   2  14    2.55    0.72
   3  -2  14    2.74    0.62
  -3   2 -15    3.55    0.70
  -3   2 -15    3.34    0.68
   3  -2  15    2.59    0.72
  -3   2 -15    3.49    0.78
   3   2  15    2.44    0.74
   3  -2  15    3.78    0.68
  -3   2 -16   11.75    1.00
  -3   2 -16   13.25    1.13
   3  -2  16   12.94    1.34
  -3   2 -16   12.75    1.27
   3   2  16   12.65    1.37
   3  -2  16   11.49    1.00
  -3   2 -17    2.27    0.56
  -3   2 -17    2.65    0.68
   3   2  17    1.62    0.69
   3  -2  17    1.56    0.69
   3   2  17    1.44    0.69
   3  -2  17    1.37    0.45
  -3   2 -18    5.11    0.83
   3   2  18    4.81    0.95
  -3   2 -18    4.80    0.72
   3  -2  18    5.32    0.99
   3   2  18    4.35    0.91
   3  -2  18    5.34    0.77
   3   2  19    7.57    1.14
  -3   2 -19    5.47    0.80
  -3   2 -19    7.09    0.92
   3  -2  19    4.76    0.99
  -3   2 -19    6.05    0.92
   3  -2  19    6.01    0.84
   3   2  20    0.35    0.67
  -3   2 -20   -0.22    0.52
   3  -2  20    0.57    0.97
  -3   2 -20    1.54    0.64
   3  -2  20    0.50    0.46
   3  -2  21   -0.16    0.73
   3   2  21    0.55    0.70
   3   2  21    1.19    0.44
  -3   2 -21    0.85    0.56
   3  -2  21    0.90    0.56
   3  -2  22    0.57    0.65
   3   2  22    1.69    0.83
   3   2  22    0.88    0.44
  -3   2 -22    1.72    0.69
   3  -2  22    1.13    0.56
   3  -2  23    8.66    1.29
   3   2  23    8.91    1.36
   3  -2  23    7.01    0.93
   3  -2  24    0.67    0.71
   3   2  24    0.49    0.71
   3  -2  24    0.83    0.60
   3  -2  25    0.43    0.83
   3   2  25    0.94    0.80
   3  -2  25   -0.54    0.60
   3  -2  26    1.45    0.90
   3   2  26    1.53    0.77
   3   2  26    2.25    0.96
   3  -2  26    2.16    0.69
   3   2  27    1.85    1.53
   3  -2  27    1.49    0.92
   3   2  27    0.98    0.76
   3   2  28    0.32    0.75
   3  -2  28    0.55    0.92
   3   2  28    1.75    1.00
   3   2  29   11.98    1.68
   3  -2  29    9.70    1.56
   3   2  29   12.08    1.61
   3   2  30    4.14    1.17
   3   2  30    2.49    0.94
   3  -2  30    2.72    1.12
   3   2  31    6.80    1.46
   3  -2  31    5.32    1.25
   3   2  31    5.77    1.25
   3   2  32    0.48    0.88
   3   2  32    2.56    1.04
  -3   3  33   25.94    2.43
  -3   3  32   27.08    2.41
  -3   3  31    5.27    1.37
  -3   3  30    2.19    1.06
  -3  -3  30    0.66    0.92
  -3   3  29   12.66    1.76
  -3  -3  29   10.66    1.66
  -3   3  28    1.45    0.96
  -3  -3  28    2.18    1.06
  -3   3  27    0.90    1.08
  -3  -3  27    1.39    0.92
  -3   3  26   88.88    4.12
  -3  -3  26   90.60    4.28
   3   3 -25   44.91    2.76
  -3   3  25   46.30    2.94
  -3  -3  25   46.45    3.00
   3   3 -24    3.22    1.00
  -3   3  24    3.89    1.09
  -3  -3  24    3.33    1.13
   3   3 -23   25.98    2.04
  -3   3  23   22.91    2.06
  -3  -3  23   23.40    2.12
   3   3 -22   20.38    1.82
  -3   3  22   19.21    1.83
   3   3 -22   19.71    1.04
  -3  -3  22   21.37    1.99
   3   3 -21   40.29    2.43
   3   3 -21   40.26    1.46
  -3   3  21   40.89    2.57
  -3  -3  21   41.36    2.59
   3   3 -20   22.47    1.82
  -3   3  20   22.10    1.93
   3   3 -20   22.46    1.06
  -3  -3  20   21.59    1.89
   3   3 -19    4.71    0.95
  -3  -3  19    3.26    0.94
  -3   3  19    3.74    1.00
   3   3 -19    4.80    0.52
   3   3 -18   24.21    1.86
  -3  -3  18   29.07    2.11
   3   3 -18   26.09    1.07
  -3   3  18   26.41    1.94
   3   3 -18   26.05    1.07
   3   3 -17   39.85    2.26
   3   3 -17   40.05    1.06
  -3  -3  17   45.23    2.52
  -3   3  17   44.18    2.44
   3   3 -17   41.91    1.33
   3   3 -17   44.44    1.34
   3   3 -16   28.11    0.90
   3   3 -16   30.10    1.95
  -3  -3  16   33.22    2.12
   3   3 -16   31.04    1.09
  -3   3  16   27.71    1.96
   3   3 -16   31.95    1.08
   3   3 -15    0.73    0.26
   3   3 -15    0.88    0.63
  -3  -3  15    1.57    0.80
  -3   3  15    0.52    0.65
   3   3 -15    1.11    0.31
   3   3 -14   43.65    2.27
  -3  -3  14   42.34    2.32
  -3   3  14   44.83    2.31
   3   3 -14   45.50    1.25
   3   3 -14   42.76    1.23
   3   3 -13    2.53    0.74
   3   3 -13    2.94    0.78
  -3  -3  13    3.09    0.83
   3  -3 -13    2.54    0.78
  -3   3  13    2.38    0.76
   3   3 -13    1.67    0.31
   3   3 -13    2.90    0.39
   3   3 -12  214.38    5.20
   3   3 -12  215.32    5.34
  -3  -3  12  215.71    5.32
  -3   3  12  218.84    5.26
   3   3 -12  219.63    3.46
   3  -3 -12  234.15    5.43
   3   3 -12  203.77    3.59
   3   3 -11    6.46    0.98
   3   3 -11    6.29    0.55
   3   3 -11    6.15    0.93
   3   3 -11    5.76    0.48
  -3   3  11    7.02    1.06
   3  -3 -11    8.47    1.07
   3   3 -11    5.51    0.50
   3   3 -10  126.89    3.78
   3   3 -10  124.80    2.63
   3   3 -10  130.30    3.84
   3   3 -10  126.66    2.36
  -3   3  10  121.43    3.67
   3  -3 -10  136.63    3.86
   3   3 -10  120.96    2.61
   3   3  -9    2.89    0.86
   3   3  -9    3.08    0.80
  -3   3   9    4.34    0.92
   3   3  -9    2.64    0.41
   3  -3  -9    4.21    0.86
   3   3  -8  121.78    3.59
   3   3  -8  125.56    3.61
   3  -3  -8  136.00    3.74
   3   3  -8  122.67    2.39
  -3   3   8  120.82    3.54
   3   3  -7    3.83    0.79
   3   3  -7    4.01    0.73
   3   3  -7    4.40    0.47
  -3   3   7    3.63    0.81
   3  -3  -7    3.78    0.84
   3   3  -6  182.34    4.45
   3   3  -6  184.19    4.39
   3  -3  -6  196.95    4.54
  -3   3   6  183.99    4.37
   3   3  -6  187.66    3.31
  -3  -3   6  175.95    3.31
   3   3  -5    2.66    0.67
   3   3  -5    4.84    0.90
   3   3  -5    2.95    0.51
  -3   3   5    2.75    0.80
  -3  -3   5    2.38    0.42
   3  -3  -5    1.95    0.55
   3   3  -4  264.21    5.46
   3   3  -4  266.10    5.41
   3   3  -4  263.86    4.46
  -3  -3   4  256.76    4.47
  -3   3   4  265.50    5.42
   3  -3  -4  276.36    5.52
   3   3  -3    4.41    0.84
   3   3  -3    3.19    0.68
   3   3  -3    3.82    0.58
  -3   3   3    6.40    0.96
   3  -3  -3    3.41    0.70
  -3  -3   3    3.27    0.50
  -3   3   2  250.64    5.11
   3   3  -2  255.04    4.53
  -3  -3   2  248.69    4.54
   3  -3  -2  251.77    5.16
  -3   3   1    2.31    0.72
  -3  -3   1    2.72    0.55
   3   3  -1    3.23    0.62
   3  -3  -1    2.00    0.59
  -3  -3   0  202.21    4.11
  -3   3   0  201.90    4.41
   3   3   0  206.03    4.11
   3  -3   0  209.20    4.50
  -3  -3  -1    4.63    0.67
   3   3   1    4.13    0.68
  -3   3  -1    4.42    0.78
  -3   3  -2  178.39    3.99
   3   3   2  171.65    3.83
  -3  -3  -2  168.65    3.83
  -3   3  -2  178.35    4.09
   3   3   3    3.72    0.71
  -3  -3  -3    2.92    0.64
  -3   3  -3    2.79    0.63
  -3   3  -3    2.33    0.62
  -3  -3  -4   84.13    2.65
   3   3   4   81.30    2.59
  -3   3  -4   83.44    2.56
  -3   3  -4   81.68    2.60
  -3   3  -5    0.64    0.63
   3   3   5    1.66    0.68
  -3  -3  -5    2.17    0.63
  -3   3  -5    1.15    0.52
  -3   3  -5    1.23    0.52
  -3   3  -6   49.02    2.24
   3   3   6   49.12    2.10
  -3  -3  -6   50.75    2.12
  -3   3  -6   47.16    1.92
  -3   3  -6   50.13    1.98
  -3   3  -7    0.06    0.48
  -3  -3  -7    1.09    0.59
   3   3   7    0.81    0.61
  -3   3  -7   -0.01    0.38
  -3   3  -7    0.88    0.48
  -3   3  -8   38.64    2.01
  -3  -3  -8   37.11    1.93
   3   3   8   34.31    1.87
  -3   3  -8   35.23    1.68
  -3   3  -8   35.50    1.69
  -3   3  -9   -0.21    0.50
  -3   3  -9    0.09    0.65
  -3  -3  -9   -0.74    0.48
   3   3   9   -0.09    0.55
  -3   3  -9    0.10    0.35
  -3   3  -9    0.83    0.55
  -3   3 -10    3.30    0.75
  -3   3 -10    2.90    0.73
   3   3  10    2.58    0.68
  -3  -3 -10    3.89    0.74
  -3   3 -10    3.79    0.61
  -3   3 -11    0.97    0.65
  -3   3 -11    1.22    0.54
   3   3  11    0.91    0.67
  -3  -3 -11    2.27    0.71
  -3   3 -11    0.56    0.40
  -3   3 -12    5.18    0.94
  -3   3 -12    4.96    0.86
   3   3  12    3.53    0.81
  -3   3 -12    4.25    0.66
  -3   3 -13    5.78    0.94
  -3   3 -13    4.10    0.64
   3   3  13    4.05    0.90
  -3   3 -14    0.91    0.45
  -3   3 -14    0.38    0.56
   3   3  14   -0.28    0.72
   3  -3  14    0.21    0.41
  -3   3 -15    3.01    0.60
  -3   3 -15    2.58    0.76
   3   3  15    2.26    0.90
   3  -3  15    3.63    0.68
  -3   3 -16   -0.09    0.64
  -3   3 -16    0.57    0.43
   3   3  16    0.77    0.83
   3  -3  16    1.08    0.49
  -3   3 -17    1.40    0.61
  -3   3 -17    3.23    0.66
   3   3  17    2.50    0.90
   3  -3  17    2.42    0.61
  -3   3 -18    7.09    0.89
  -3   3 -18    6.45    1.02
   3   3  18    8.88    1.32
   3  -3  18    6.94    0.87
  -3   3 -19   14.99    1.46
  -3   3 -19   15.06    1.21
   3   3  19   16.99    1.70
   3  -3  19   18.42    1.32
  -3   3 -20   17.11    1.52
  -3   3 -20   15.32    1.42
   3   3  20   19.40    1.87
   3  -3  20   17.65    1.35
   3   3  21    2.03    0.87
  -3   3 -21    4.82    1.00
   3   3  21    2.94    1.02
   3  -3  21    2.83    0.70
  -3   3 -22    3.51    0.86
   3   3  22    4.42    1.07
   3   3  22    2.76    0.96
   3  -3  22    4.78    0.77
   3  -3  23    7.27    1.36
   3   3  23    7.27    1.24
  -3   3 -23    6.48    1.05
   3  -3  23    6.11    0.90
   3  -3  24    2.10    1.01
   3   3  24    0.55    0.72
  -3   3 -24    2.14    0.83
   3  -3  24    1.57    0.57
   3   3  25    6.38    1.34
  -3   3 -25    5.50    1.08
   3  -3  25    8.34    1.48
   3   3  26   18.50    2.02
  -3   3 -26   17.84    1.74
   3  -3  26   19.06    2.05
   3   3  27    2.67    1.04
   3  -3  27    0.73    0.81
   3   3  28   -0.26    0.79
   3  -3  28    0.81    1.03
   3   3  29    1.41    0.93
   3  -3  29    2.20    1.32
   3   4 -28    2.35    1.07
   3   4 -27    8.67    1.53
  -3   4  27    9.89    1.73
  -3  -4  27    9.16    1.64
   3   4 -26   -1.11    1.03
  -3   4  26   -0.68    0.86
  -3  -4  26   -0.62    0.98
   3   4 -25    1.71    1.03
  -3   4  25    0.65    0.81
  -3  -4  25    0.52    0.93
   3   4 -24    5.17    1.24
  -3   4  24    5.84    1.31
  -3  -4  24    8.28    1.49
   3   4 -23    3.86    1.13
  -3   4  23    3.13    1.10
  -3  -4  23    3.08    1.21
   3   4 -22    0.56    0.81
  -3   4  22    0.54    0.89
   3   4 -21   21.08    1.96
  -3   4  21   17.17    1.83
   3   4 -20    0.43    0.74
  -3   4  20    1.16    0.76
   3   4 -19    0.58    0.79
  -3   4  19   -0.43    0.78
   3   4 -19   -0.05    0.28
   3   4 -18   17.32    1.75
   3   4 -18   15.66    0.81
  -3   4  18   17.13    1.75
   3   4 -18   15.64    0.84
   3   4 -18   18.25    0.85
   3   4 -17   10.72    1.40
  -3   4  17   13.08    1.54
   3   4 -17   11.93    0.70
   3   4 -17   11.26    0.74
   3   4 -16   -0.34    0.80
  -3   4  16    0.79    0.78
   3   4 -16    0.46    0.31
   3   4 -16    0.28    0.27
   3   4 -15   12.85    1.42
   3   4 -15   11.65    0.71
  -3   4  15   12.70    1.52
   3   4 -15   12.53    0.83
   3   4 -14    4.68    1.08
  -3   4  14    4.65    0.98
   3   4 -14    3.48    0.45
   3   4 -14    3.44    0.48
   3   4 -13   19.87    1.72
   3   4 -13   19.59    0.94
  -3   4  13   18.80    1.68
   3   4 -13   20.81    0.96
   3   4 -13   18.89    1.06
   3   4 -12    3.47    0.91
   3   4 -12    1.85    0.38
   3   4 -12    2.16    0.39
  -3   4  12    2.34    0.84
   3   4 -12    1.63    0.41
   3   4 -11    0.79    0.71
   3   4 -11    0.46    0.29
  -3   4  11   -0.13    0.65
   3   4 -11    0.44    0.29
   3   4 -11    0.04    0.36
   3   4 -10    2.21    0.79
  -3   4  10    3.35    0.86
   3   4 -10    3.14    0.45
   3   4 -10    2.99    0.50
   3   4  -9   -0.53    0.72
  -3   4   9   -0.66    0.70
   3   4  -9   -0.25    0.31
   3   4  -8    5.51    1.03
   3   4  -8    4.89    0.56
  -3   4   8    4.83    0.91
   3   4  -7   13.15    1.39
   3   4  -7   14.53    1.39
  -3   4   7   12.29    1.29
   3   4  -7   13.50    0.87
   3  -4  -7   15.66    1.36
   3   4  -6    0.86    0.55
   3   4  -6    0.66    0.62
  -3   4   6    0.43    0.62
   3   4  -6    0.32    0.37
   3  -4  -6    0.84    0.50
  -3  -4   6    0.12    0.36
   3   4  -5    3.64    0.93
   3   4  -5    2.76    0.76
  -3   4   5    2.30    0.68
   3   4  -5    3.17    0.53
   3  -4  -5    2.32    0.66
  -3  -4   5    2.98    0.49
   3   4  -4    8.21    1.11
   3   4  -4    9.82    1.11
  -3   4   4    7.02    0.95
   3   4  -4    8.47    0.80
   3  -4  -4    8.51    1.01
  -3  -4   4    8.51    0.80
   3   4  -3    0.91    0.77
   3   4  -3   -0.61    0.54
   3   4  -3   -0.12    0.38
  -3   4   3   -0.60    0.55
   3  -4  -3   -0.01    0.48
  -3  -4   3    0.23    0.41
   3   4  -2    0.72    0.47
  -3   4   2    0.31    0.56
  -3  -4   2    0.94    0.44
   3  -4  -2    0.72    0.45
   3   4  -1    9.11    0.91
  -3   4   1    8.22    1.05
  -3  -4   1    7.47    0.82
   3  -4  -1    8.93    1.03
  -3   4   0    3.55    0.72
   3   4   0    3.16    0.62
  -3  -4   0    3.10    0.58
   3  -4   0    3.18    0.66
  -3  -4  -1    1.35    0.50
   3   4   1    2.37    0.63
  -3   4  -1    2.19    0.67
  -3   4  -2    7.62    0.95
   3   4   2    9.23    0.98
  -3  -4  -2    8.46    0.94
  -3   4  -2    8.48    1.02
   3   4   3    1.29    0.55
  -3  -4  -3    1.88    0.56
  -3   4  -3    1.78    0.62
  -3   4  -3    3.22    0.71
  -3  -4  -4    2.92    0.70
   3   4   4    1.21    0.55
  -3   4  -4    1.60    0.59
  -3   4  -4    3.89    0.74
  -3  -4  -5    0.48    0.46
   3   4   5    0.82    0.61
  -3   4  -5   -0.08    0.54
  -3   4  -5    0.47    0.47
   3   4   6    0.47    0.52
  -3  -4  -6    1.02    0.61
  -3   4  -6    0.63    0.46
  -3   4  -6    0.46    0.50
  -3   4  -7    0.37    0.13
   3   4   7    0.60    0.61
  -3  -4  -7    1.86    0.69
  -3   4  -7    0.57    0.48
  -3   4  -7    0.33    0.48
   3   4   8    7.99    1.12
  -3   4  -8    8.70    0.99
  -3   4  -8    9.39    1.00
   3   4   9    7.92    1.16
  -3   4  -9    6.03    0.88
  -3   4  -9    8.31    1.00
  -3   4 -10    4.84    1.02
   3   4  10    3.45    0.90
  -3   4 -10    2.62    0.65
  -3   4 -10    3.92    0.74
  -3   4 -11    4.51    1.00
   3   4  11    6.29    1.14
  -3   4 -11    4.01    0.74
  -3   4 -11    2.89    0.73
  -3   4 -12    1.13    0.79
   3   4  12    0.57    0.70
  -3   4 -12    0.60    0.45
  -3   4 -12    1.34    0.58
  -3   4 -13   12.24    1.42
   3   4  13   13.47    1.51
  -3   4 -13   13.56    1.21
  -3   4 -13   10.79    1.07
  -3   4 -14    5.62    1.02
   3   4  14    5.80    1.18
  -3   4 -14    5.95    0.86
  -3   4 -14    5.10    0.83
  -3   4 -15   11.83    1.39
   3   4  15   12.88    1.57
  -3   4 -15   14.10    1.26
  -3   4 -15   11.61    1.16
  -3   4 -16   13.86    1.52
   3   4  16   14.54    1.60
  -3   4 -16   16.05    1.35
  -3   4 -16   16.28    1.35
  -3   4 -17   -0.16    0.52
  -3   4 -17    1.30    0.75
   3   4  17   -0.04    0.78
  -3   4 -17    1.26    0.66
  -3   4 -18   -0.37    0.80
   3   4  18    0.22    0.91
  -3   4 -18    0.01    0.57
  -3   4 -19    0.35    0.73
   3   4  19    0.01    0.79
  -3   4 -20    1.20    0.87
   3   4  20   -0.27    0.93
  -3   4 -21    4.63    1.06
   3   4  21    5.59    1.34
  -3   4 -22    1.92    0.92
   3   4  22    0.88    0.83
  -3   4 -23    5.33    1.13
   3   4  23    8.75    1.53
  -3   4 -24    1.63    0.91
   3   4  24    1.50    0.92
   3   4  24    1.95    0.97
   3   4  25    1.44    1.02
  -3   4 -25   -1.42    0.98
  -3   4 -26   -1.51    0.84
  -3   4 -27   -0.63    0.86
   3   5 -25    1.27    0.98
   3   5 -24    6.89    1.52
   3   5 -23   14.81    1.96
  -3   5  23   19.55    2.14
   3   5 -22   -0.22    0.89
  -3   5  22    2.46    1.18
   3   5 -21    1.85    1.02
  -3   5  21    4.24    1.22
   3   5 -20    4.81    1.17
  -3   5  20    3.97    1.18
   3   5 -19    6.98    1.50
  -3   5  19    6.27    1.31
   3   5 -18   19.00    2.02
  -3   5  18   19.49    2.03
   3   5 -17    4.57    1.09
  -3   5  17    6.55    1.37
   3   5 -16    8.49    1.42
  -3   5  16   10.32    1.53
   3   5 -15   10.88    1.52
   3   5 -15   12.00    0.82
  -3   5  15   14.73    1.77
   3   5 -14    9.43    1.44
  -3   5  14   12.05    1.58
   3   5 -14   13.51    0.88
   3   5 -13    0.92    0.84
   3   5 -13    2.01    0.43
  -3   5  13   -0.72    0.83
   3   5 -13    1.67    0.45
   3   5 -13    1.04    0.45
   3   5 -12   34.02    2.43
   3   5 -12   38.88    1.48
  -3   5  12   37.10    2.51
   3   5 -12   40.25    1.58
   3   5 -12   36.68    1.81
   3   5 -11    3.23    1.06
   3   5 -11    2.35    0.49
  -3   5  11    3.02    0.99
   3   5 -11    3.55    0.59
   3   5 -11    1.83    0.56
   3   5 -10   29.09    2.23
   3   5 -10   27.73    1.38
  -3   5  10   24.96    1.98
   3   5 -10   25.72    1.60
   3   5  -9    2.47    1.00
  -3   5   9    2.71    0.91
   3   5  -9    4.24    0.66
   3   5  -8   30.44    2.21
   3   5  -8   30.35    1.50
  -3   5   8   33.50    2.21
   3   5  -7    2.67    0.92
  -3   5   7    2.20    0.87
   3   5  -7    2.87    0.58
   3   5  -6   14.42    1.60
   3   5  -6   15.10    1.13
  -3   5   6   15.34    1.50
  -3  -5   6   12.03    1.06
   3   5  -5    1.03    0.78
   3   5  -5    0.66    0.47
  -3   5   5    0.18    0.67
  -3  -5   5    0.04    0.48
   3   5  -4   20.90    1.81
   3   5  -4   19.11    1.31
  -3   5   4   19.59    1.66
  -3  -5   4   15.75    1.23
   3   5  -3    2.03    0.95
  -3   5   3    2.06    0.79
   3   5  -3    1.24    0.58
  -3  -5   3    1.19    0.51
   3   5  -2   24.15    1.93
  -3   5   2   23.83    1.76
   3   5  -2   24.10    1.56
  -3  -5   2   22.28    1.50
   3   5  -1    1.86    0.57
  -3   5   1    2.13    0.74
  -3  -5   1    2.19    0.63
  -3   5   0   20.26    1.60
  -3  -5   0   18.49    1.44
   3   5   0   17.97    1.41
  -3   5  -1    1.17    0.63
   3   5   1    0.26    0.58
  -3  -5  -1    0.08    0.54
  -3   5  -2   18.62    1.51
   3   5   2   16.99    1.41
   3   5   3    2.09    0.74
  -3   5  -3    0.78    0.67
   3   5   4    7.08    1.06
  -3   5  -4    5.96    0.95
   3   5   5    1.19    0.64
  -3   5  -5    2.17    0.73
   3   5   6   13.11    1.39
  -3   5  -6   14.03    1.34
   3   5   7    2.07    0.86
  -3   5  -7    1.17    0.69
   3   5   8    9.53    1.28
  -3   5  -8   10.58    1.17
  -3   5  -9    2.57    1.09
   3   5   9    3.29    0.94
  -3   5  -9    1.63    0.73
  -3   5 -10   -0.47    0.79
   3   5  10   -0.18    0.70
  -3   5 -10    0.53    0.56
  -3   5 -11    0.14    0.87
   3   5  11    0.49    0.76
  -3   5 -11    1.27    0.65
  -3   5 -12   -1.75    0.94
   3   5  12   -0.12    0.77
  -3   5 -12    0.42    0.58
  -3   5 -13    1.11    0.85
   3   5  13    1.35    0.83
  -3   5 -13    4.07    0.81
  -3   5 -14    4.82    1.17
   3   5  14    2.89    1.00
  -3   5 -14    4.42    0.91
  -3   5 -15   15.61    1.79
  -3   5 -15   13.72    1.32
   3   5  15   15.86    1.87
  -3   5 -16    0.14    0.81
   3   5  16   -0.91    0.95
  -3   5 -16   -0.39    0.58
  -3   5 -17    0.76    0.93
   3   5  17    0.28    0.84
  -3   5 -17    0.71    0.70
  -3   5 -18   -0.11    0.90
   3   5  18    0.83    0.89
  -3   5 -18    0.98    0.67
  -3   5 -19    0.11    0.83
   3   5  19   -0.03    0.91
  -3   5 -20   -0.69    0.88
   3   5  20   -0.08    1.13
  -3   5 -21    0.13    0.83
  -3   5 -22    0.90    0.98
  -3   5 -23    5.92    1.32
  -3   5 -24    1.24    0.98
  -3   5 -25    5.89    1.41
   3   6 -18    0.98    0.98
  -3   6  18    5.50    1.50
   3   6 -17    0.91    0.92
  -3   6  17   -0.75    0.85
   3   6 -16    3.75    1.22
  -3   6  16    4.84    1.21
   3   6 -15   15.81    1.99
  -3   6  15   16.91    1.93
   3   6 -14    3.75    1.25
  -3   6  14    3.66    1.20
   3   6 -13    3.24    1.15
  -3   6  13    0.74    0.82
   3   6 -12    0.44    0.83
  -3   6  12    1.11    0.86
   3   6 -11    6.39    1.44
  -3   6  11    4.56    1.13
   3   6 -10   14.97    1.89
  -3   6  10   13.19    1.67
   3   6  -9    3.91    1.15
   3   6  -9    1.77    0.57
  -3   6   9    1.02    0.83
   3   6  -8    1.41    0.58
  -3   6   8   -0.45    0.93
   3   6  -7    8.71    1.46
   3   6  -7    6.63    0.89
  -3   6   7    5.79    1.17
   3   6  -6    1.28    0.59
  -3   6   6   -0.97    0.86
   3   6  -6    2.14    1.08
  -3   6   5    2.20    0.83
   3   6  -5    3.05    0.74
   3   6  -5    1.99    0.95
   3   6  -4    7.01    0.97
  -3   6   4    6.35    1.13
   3   6  -4    6.19    1.33
  -3   6   3    1.38    0.87
   3   6  -3   -0.63    0.70
   3   6  -3    1.60    0.96
  -3   6   2    0.17    0.76
   3   6  -2   -0.77    0.72
   3   6  -2    0.57    0.83
   3   6  -1   -0.31    0.65
  -3   6   1    0.54    0.74
   3   6  -1    0.30    0.86
  -3   6   0    1.97    0.81
   3   6   0    1.34    0.70
   3   6   0    2.88    1.04
   3   6   1    0.87    0.73
  -3   6  -1    0.58    0.73
   3   6   2    2.55    0.82
  -3   6  -2    1.22    0.70
   3   6   3    1.70    0.78
  -3   6  -3    1.00    0.65
   3   6   4    0.73    0.81
  -3   6  -4    0.34    0.74
  -3   6  -5   -0.66    0.75
   3   6   5    1.15    0.82
   3   6   6    0.00    0.73
  -3   6  -6   -0.46    0.66
   3   6   7    0.82    0.72
  -3   6  -7    0.60    0.62
   3   6   8    0.86    0.91
  -3   6  -8    0.27    0.63
  -3   6  -8   -0.85    0.82
  -3   6  -9    2.18    0.77
   3   6   9    1.68    0.93
  -3   6  -9    3.03    1.17
  -3   6 -10    2.75    0.82
   3   6  10    4.53    1.25
  -3   6 -10    5.01    1.27
  -3   6 -11   -0.25    0.60
   3   6  11    0.79    0.81
  -3   6 -11    1.11    0.95
  -3   6 -12    6.54    1.51
  -3   6 -12    4.89    0.95
   3   6  12    4.38    1.14
  -3   6 -13    0.38    0.90
  -3   6 -13    1.15    0.71
   3   6  13   -0.27    0.92
  -3   6 -14    0.90    0.98
   3   6  14    2.93    1.08
  -3   6 -15    4.99    1.31
   3   6  15    5.69    1.69
  -3   6 -16    0.29    0.90
   3   6  16    1.22    0.98
  -3   6 -17    3.00    1.15
  -3   7  11    2.85    1.11
  -3   7  10   -0.86    0.95
  -3   7   9    1.83    1.02
  -3   7   8    0.28    0.96
  -3   7   7    3.04    1.14
   3   7  -6    0.31    0.92
  -3   7   6    0.04    0.85
   3   7  -5    2.93    1.32
  -3   7   5    3.15    1.10
  -3   7   4   -0.37    0.81
   3   7  -4    0.80    1.18
   3   7  -3    1.82    0.78
  -3   7   3    1.58    0.91
   3   7  -3    1.87    1.08
  -3   7   2    5.03    1.14
   3   7  -2    5.78    1.05
   3   7  -2    5.96    1.47
   3   7  -1    1.04    0.69
  -3   7   1   -0.71    0.90
   3   7  -1    2.74    1.25
   3   7   0    1.35    0.79
  -3   7   0    2.64    0.95
   3   7   0    1.76    1.11
  -3   7  -1    5.24    1.03
   3   7   1    6.66    1.18
   3   7   1    6.14    1.44
   3   7   2    1.73    0.93
  -3   7  -2   -2.04    0.96
   3   7   2    1.19    0.97
  -3   7  -3    1.06    0.76
   3   7   3    3.40    1.18
   3   7   4   -1.05    0.92
  -3   7  -4    1.77    0.92
   3   7   5    2.33    0.93
  -3   7  -5    0.58    0.81
  -3   7  -6    0.91    0.67
   3   7   6    0.05    0.80
  -3   7  -7    0.97    0.72
   3   7   7    1.31    0.93
   3   7   8    4.19    1.16
   3   7   9    4.20    1.26
   3   7  10    0.58    0.85
  -4   0  33    1.52    0.95
  -4   0  32   21.38    2.22
  -4   0  31    1.25    0.86
  -4   0  30   21.17    1.49
  -4   0  30   18.27    1.99
  -4   0  29    0.47    0.47
  -4   0  29    0.18    0.79
  -4   0  28   16.56    1.28
  -4   0  28   14.74    1.74
  -4   0  27   -0.13    0.49
  -4   0  27    0.02    0.80
  -4   0  26  127.55    3.51
  -4   0  26  128.44    4.71
  -4   0  25    0.64    0.54
   4   0 -25    1.00    0.69
  -4   0  25    0.79    0.83
  -4   0  24   41.89    1.82
   4   0 -24   42.26    2.09
  -4   0  24   39.82    2.49
  -4   0  23   -0.95    0.56
  -4   0  23    0.04    0.41
   4   0 -23   -0.58    0.52
  -4   0  23   -0.68    0.75
  -4   0  22   62.73    2.65
  -4   0  22   62.82    2.14
   4   0 -22   61.45    2.41
  -4   0  22   62.44    2.45
  -4   0  22   59.65    2.84
  -4   0  21   -0.18    0.52
  -4   0  21    0.22    0.38
   4   0 -21    0.42    0.47
  -4   0  21   -0.22    0.50
  -4   0  21    0.74    0.67
  -4   0  20   97.63    2.60
  -4   0  20   97.72    3.19
  -4   0  20   96.34    2.94
   4   0 -20  100.73    2.97
  -4   0  20  100.34    3.55
  -4   0  19    0.40    0.48
  -4   0  19    0.13    0.47
   4   0 -19    0.13    0.38
  -4   0  18  436.26    7.74
  -4   0  18  428.88    7.24
   4   0 -18  425.41    7.19
  -4   0  17    0.05    0.43
   4   0 -17   -0.26    0.33
  -4   0  17   -0.02    0.46
  -4   0  16  217.21    4.67
  -4   0  16  210.93    4.20
   4   0 -16  205.97    4.15
  -4   0  15   -0.22    0.43
   4   0 -15    0.04    0.33
  -4   0  15    0.33    0.40
  -4   0  14  127.47    3.29
  -4   0  14  133.83    2.93
   4   0 -14  128.41    2.87
  -4   0  13    0.06    0.41
   4   0 -13    0.01    0.30
  -4   0  13   -0.58    0.41
   4   0 -12  570.94    8.12
  -4   0  12  580.90    8.13
   4   0 -11   -0.22    0.34
  -4   0  11   -0.16    0.36
  -4   0  10 1413.00   17.49
   4   0 -10 1402.24   17.48
   4   0  -9    0.64    0.33
  -4   0   9    0.04    0.36
   4   0  -8  350.67    5.08
  -4   0   8  354.77    5.06
  -4   0   7    0.64    0.37
   4   0  -7    0.04    0.28
  -4   0   7    0.18    0.21
  -4   0   6    2.86    0.44
  -4   0   6    1.19    0.33
  -4   0   6    2.09    0.30
   4   0  -6    2.30    0.35
  -4   0   5   -0.27    0.30
   4   0  -5    0.33    0.29
   4   0  -5    0.49    0.30
  -4   0   5   -0.14    0.22
  -4   0   5    0.54    0.32
   4   0  -4   15.69    0.80
  -4   0   4   15.66    0.77
   4   0  -4   16.57    0.68
  -4   0   4   15.24    0.65
  -4   0   4   14.67    0.63
  -4   0   3    0.22    0.31
   4   0  -3    0.33    0.41
   4   0  -3    0.18    0.30
  -4   0   3   -0.13    0.28
   4   0  -2  987.90   12.50
  -4   0   2  974.36   12.32
   4   0  -2  995.75   12.34
  -4   0   1    0.51    0.30
   4   0  -1    0.62    0.39
   4   0   0   34.88    1.13
  -4   0   0   32.18    1.09
   4   0   1    0.31    0.45
  -4   0  -1    0.69    0.40
  -4   0  -2 2007.17   23.49
  -4   0  -2 2025.68   24.56
   4   0   2 1998.06   24.59
   4   0   3    0.47    0.22
  -4   0  -3    0.65    0.23
  -4   0  -3    0.84    0.41
   4   0   3    0.31    0.51
  -4   0  -4   95.84    1.75
   4   0   4  101.80    1.77
  -4   0  -4   98.15    2.36
   4   0   4  103.28    2.46
   4   0   5    0.24    0.53
  -4   0  -5    0.33    0.41
   4   0   5    0.15    0.27
   4   0   6  338.27    5.63
  -4   0  -6  328.58    5.54
   4   0   6  331.44    4.83
  -4   0  -7    0.32    0.43
  -4   0  -7    0.01    0.16
   4   0   7    0.47    0.49
   4   0   7    0.22    0.33
  -4   0  -8   48.60    1.79
   4   0   8   53.87    1.92
   4   0   8   49.87    1.48
   4   0   9    1.13    0.52
  -4   0  -9    0.37    0.51
   4   0   9    0.24    0.33
  -4   0 -10    0.22    0.47
   4   0  10    0.97    0.55
  -4   0 -10    0.85    0.51
   4   0  10    1.06    0.46
   4   0  11    1.40    0.66
  -4   0 -11    0.60    0.50
   4   0  11    1.36    0.53
   4   0  12  697.98   10.68
  -4   0 -12  697.37   10.83
   4   0  12  690.37   10.12
   4   0  13    3.32    0.91
  -4   0 -13    0.12    0.46
   4   0  13    3.89    0.82
   4   0  14  998.49   14.57
  -4   0 -14 1029.85   14.89
   4   0  14  981.56   14.06
   4   0  15    1.76    0.83
  -4   0 -15   -0.17    0.53
   4   0  15    2.24    0.71
   4   0  16   56.49    2.36
  -4   0 -16   52.64    2.38
   4   0  16   52.79    2.16
   4   0  17    0.68    0.54
  -4   0 -17    0.31    0.46
   4   0  17    0.20    0.50
   4   0  18   82.86    2.92
   4   0  18   90.32    3.18
   4   0  19    1.60    0.78
   4   0  19    1.76    0.87
   4   0  20  413.67    8.05
   4   0  20  417.10    8.27
   4   0  21    1.63    0.87
   4   0  21    1.59    0.91
   4   0  22  204.20    5.39
   4   0  22  205.81    5.51
   4   0  23    1.14    0.71
   4   0  23    0.31    0.70
   4   0  24   32.53    2.15
   4   0  24   34.49    2.22
   4   0  25    2.77    1.00
   4   0  25    3.61    1.09
   4   0  26  280.64    7.10
   4   0  26  281.20    7.08
   4   0  27    7.69    1.35
   4   0  27    2.73    1.07
   4   0  28  161.47    5.36
   4   0  28  157.26    5.24
   4   0  29    0.68    0.94
   4   0  29    2.30    1.00
   4   0  30   32.15    2.47
   4   0  30   32.06    2.39
   4   0  31    0.18    0.85
   4   0  31    0.47    0.89
   4   0  32   16.63    1.97
  -4  -1  33   18.79    2.14
  -4   1  33   16.23    2.03
  -4  -1  32    2.72    1.14
  -4   1  32    3.00    1.13
  -4   1  31    0.25    0.58
  -4   1  31    1.53    1.03
  -4  -1  31    0.06    0.87
  -4   1  30    6.39    1.02
  -4   1  30    4.47    1.10
  -4  -1  30    5.14    1.22
  -4   1  29   53.05    2.59
  -4   1  29   58.58    3.37
  -4  -1  29   53.73    3.26
  -4   1  28    8.84    1.15
  -4  -1  28   10.29    1.55
  -4   1  28    9.07    1.33
  -4   1  27   65.33    2.79
  -4  -1  27   67.89    3.53
  -4   1  27   66.91    3.11
   4   1 -27   64.79    2.62
  -4  -1  27   67.35    2.09
  -4  -1  26   10.46    1.51
  -4   1  26   12.07    1.38
   4   1 -26   11.55    1.12
  -4  -1  26   11.20    0.84
  -4  -1  25   90.05    3.85
   4   1 -25   88.10    2.92
  -4   1  25   83.25    3.34
  -4  -1  25   91.24    2.37
  -4  -1  24   75.17    3.47
   4   1 -24   75.56    2.62
  -4   1  24   73.48    3.08
  -4  -1  24   78.99    2.13
  -4  -1  23    0.76    0.34
  -4   1  23    2.08    0.71
  -4   1  23   -0.09    0.69
   4   1 -23    1.29    0.48
  -4  -1  23    0.64    0.71
  -4  -1  22    0.18    0.30
  -4  -1  22    0.81    0.73
   4  -1 -22    0.09    0.48
  -4   1  22    0.16    0.56
   4   1 -22   -0.56    0.40
  -4  -1  21   87.78    3.17
  -4  -1  21   86.23    3.40
  -4   1  21   83.62    3.03
   4   1 -21   83.82    2.49
   4  -1 -21   84.99    3.05
  -4  -1  21   84.57    2.04
  -4  -1  20    5.17    0.90
  -4  -1  20    5.53    0.52
  -4  -1  20    3.86    0.94
   4  -1 -20    4.98    0.83
  -4   1  20    3.16    0.74
   4   1 -20    5.61    0.69
  -4  -1  19  521.75    9.03
  -4  -1  19  499.42    9.32
   4   1 -19  505.57    7.72
  -4   1  19  495.01    8.71
   4  -1 -19  495.47    8.71
  -4  -1  19  496.94    6.98
  -4  -1  18   47.04    2.16
  -4  -1  18   45.13    2.29
   4   1 -18   43.73    1.58
  -4   1  18   46.36    2.08
   4  -1 -18   47.74    2.08
  -4  -1  18   45.87    1.26
  -4  -1  17   13.28    1.15
  -4  -1  17   13.45    1.34
   4   1 -17   13.51    0.83
  -4   1  17   15.88    1.21
   4  -1 -17   14.70    1.15
  -4  -1  17   12.28    0.61
  -4  -1  16  153.51    3.93
  -4  -1  16  147.10    4.05
  -4  -1  16  152.02    3.46
   4   1 -16  146.48    2.95
   4  -1 -16  152.61    3.78
  -4   1  16  150.78    3.73
  -4  -1  16  146.61    2.42
  -4  -1  15   15.51    1.17
  -4  -1  15   16.27    1.02
  -4  -1  15   16.31    1.34
   4   1 -15   14.13    0.75
  -4   1  15   15.42    1.12
   4  -1 -15   16.11    1.14
  -4  -1  15   14.70    0.54
  -4  -1  14    8.00    0.95
  -4  -1  14   10.35    1.23
  -4  -1  14    5.52    0.65
  -4   1  14    4.14    0.70
   4  -1 -14    4.70    0.71
   4   1 -14    5.04    0.47
  -4  -1  14    5.03    0.29
  -4  -1  13 2012.23   25.36
  -4   1  13 1972.65   25.06
   4  -1 -13 1958.08   25.02
   4   1 -13 1929.80   23.61
  -4  -1  13 1944.21   25.51
  -4  -1  13 1987.80   24.54
   4   1 -12  103.65    2.93
  -4  -1  12  107.03    2.97
  -4   1  12  118.63    2.92
   4  -1 -12  113.33    2.88
   4   1 -12  105.94    1.98
  -4  -1  12  111.07    3.12
  -4  -1  12  105.84    2.56
   4   1 -11    2.57    0.63
  -4  -1  11    3.72    0.67
   4   1 -11    2.84    0.29
  -4   1  11    1.45    0.53
   4  -1 -11    1.76    0.54
  -4  -1  11    2.59    0.67
  -4  -1  11    2.16    0.43
   4   1 -10    4.05    0.70
  -4  -1  10    5.00    0.69
  -4   1  10    3.62    0.60
   4   1 -10    4.33    0.29
   4  -1 -10    3.26    0.58
  -4  -1  10    4.62    0.53
  -4  -1  10    5.33    0.76
   4   1  -9   76.77    2.27
  -4  -1   9   78.02    2.26
  -4   1   9   74.32    2.14
   4  -1  -9   79.57    2.17
  -4  -1   9   77.47    1.95
  -4  -1   9   77.77    2.28
  -4  -1   8  180.46    3.65
   4   1  -8  174.27    3.65
   4  -1  -8  187.23    3.61
  -4   1   8  184.53    3.58
  -4  -1   8  181.32    3.64
   4   1  -8  181.05    3.34
  -4  -1   8  178.91    3.31
   4   1  -7  293.68    4.99
  -4  -1   7  293.02    4.99
   4   1  -7  285.10    4.87
  -4  -1   7  295.02    4.92
   4   1  -7  295.39    4.68
   4  -1  -7  287.28    4.86
  -4   1   7  295.71    4.93
  -4  -1   6   54.59    1.69
   4   1  -6   56.87    1.77
  -4  -1   6   56.96    1.70
   4   1  -6   59.72    1.62
   4   1  -6   54.82    1.64
   4  -1  -6   59.37    1.72
  -4   1   6   60.65    1.79
   4   1  -6   58.50    1.05
  -4  -1   5  924.79   12.26
   4   1  -5  953.04   11.33
   4   1  -5  923.19   12.28
  -4  -1   5  929.67   12.10
   4   1  -5  947.07   12.08
   4   1  -5  900.43   12.07
  -4   1   5  904.80   12.31
   4  -1  -5  929.79   12.28
   4   1  -4  854.21   10.56
  -4  -1   4  855.16   11.22
   4   1  -4  844.77   11.25
   4   1  -4  847.11   10.99
  -4  -1   4  857.22   11.00
  -4  -1   4  852.47   10.26
  -4   1   4  818.88   11.36
   4  -1  -4  872.13   11.32
   4   1  -3   42.83    1.37
  -4  -1   3   44.97    1.36
   4   1  -3   44.20    1.15
  -4  -1   3   43.47    1.20
   4   1  -3   42.74    1.19
  -4  -1   3   44.22    1.01
  -4   1   3   45.66    1.44
  -4   1   3   47.70    1.50
   4  -1  -3   43.97    1.45
   4   1  -2   74.88    1.65
  -4  -1   2   73.41    1.70
   4   1  -2   70.45    1.72
  -4  -1   2   67.80    1.50
   4   1  -2   71.66    1.53
  -4  -1   2   72.04    1.48
  -4   1   2   78.99    1.92
  -4   1   2   79.62    2.00
  -4  -1   1  510.42    6.93
   4   1  -1  518.76    7.08
   4   1  -1  512.77    6.95
  -4   1   1  499.46    6.92
   4   1  -1  517.01    6.62
  -4  -1   1  518.83    6.86
   4  -1  -1  508.84    7.33
  -4   1   1  499.95    7.32
  -4   1   1  500.54    7.29
   4   1   0 1889.37   22.62
  -4  -1   0 1881.97   22.62
   4   1   0 1896.58   23.03
   4   1   0 1855.95   22.26
  -4   1   0 1884.34   22.68
  -4  -1   0 1889.32   22.82
  -4   1   0 1870.73   23.19
   4  -1   0 1913.74   23.21
   4   1   1 9827.08  113.99
   4   1   1 9999.00  114.68
   4  -1   1 9973.34  114.08
  -4   1  -1 9738.75  114.08
  -4  -1  -1 9734.95  114.50
  -4   1  -1 9739.35  114.79
   4  -1   1 9979.98  114.80
   4   1   2 4145.70   51.05
   4   1   2 4334.64   50.09
   4  -1   2 4296.38   50.26
  -4  -1  -2 4280.23   50.93
  -4   1  -2 4327.10   51.06
   4  -1   2 4333.35   51.05
   4   1   3   86.50    1.57
   4   1   3   97.49    2.52
   4  -1   3   89.32    1.73
  -4  -1  -3   85.38    2.21
  -4   1  -3   91.83    2.26
   4  -1   3   87.96    2.24
   4   1   4   58.42    1.14
   4   1   4   57.35    1.95
  -4   1  -4   55.98    1.62
  -4  -1  -4   60.25    1.83
  -4   1  -4   52.47    1.72
   4  -1   4   54.86    1.76
   4   1   5   91.76    2.44
  -4   1  -5   84.65    2.11
  -4  -1  -5   85.56    2.32
   4  -1   5   82.97    2.24
  -4   1  -5   81.63    2.21
   4   1   6  310.90    5.47
  -4   1  -6  307.85    5.08
  -4  -1  -6  307.33    5.43
  -4   1  -6  301.87    5.31
   4  -1   6  308.53    5.26
   4   1   7  298.15    5.48
   4  -1   7  300.93    5.14
  -4   1  -7  302.24    5.13
  -4  -1  -7  296.76    5.46
  -4   1  -7  312.48    5.37
   4  -1   7  304.93    5.31
  -4   1  -8   44.34    1.39
   4   1   8   42.37    1.78
  -4   1  -8   41.49    1.68
  -4   1  -8   42.48    1.59
   4  -1   8   45.24    1.64
  -4  -1  -8   42.98    1.79
   4  -1   8   45.02    1.71
  -4   1  -9  224.79    4.46
   4   1   9  222.73    4.70
  -4   1  -9  226.30    3.89
  -4   1  -9  226.84    4.38
   4  -1   9  225.01    4.36
  -4  -1  -9  223.85    4.72
   4  -1   9  224.56    4.47
  -4   1 -10  113.18    2.96
  -4   1 -10  111.55    2.47
   4   1  10  109.55    3.17
  -4   1 -10  112.89    2.91
   4  -1  10  114.87    2.93
  -4  -1 -10  111.73    3.17
   4  -1  10  110.52    2.94
  -4   1 -11  228.57    4.67
   4   1  11  225.41    3.33
   4   1  11  229.14    4.95
  -4   1 -11  228.91    4.07
   4  -1  11  230.65    4.65
  -4   1 -11  234.20    4.69
  -4  -1 -11  231.67    5.03
   4  -1  11  228.14    4.68
   4   1  12    8.75    0.98
   4   1  12   10.58    0.52
  -4   1 -12   11.00    0.79
  -4   1 -12   10.95    0.93
   4  -1  12   11.55    0.99
  -4   1 -12   11.43    0.96
  -4  -1 -12   11.15    1.09
   4  -1  12   11.95    1.03
   4   1  13   82.03    2.87
   4   1  13   80.54    1.67
  -4   1 -13   85.62    2.23
  -4   1 -13   83.12    2.63
   4  -1  13   86.71    2.72
  -4   1 -13   85.04    2.70
  -4  -1 -13   84.01    3.01
   4  -1  13   85.48    2.69
  -4   1 -14   91.17    2.37
   4   1  14   86.44    1.82
   4   1  14   89.93    3.06
  -4   1 -14   85.51    2.76
   4  -1  14   87.50    2.85
  -4  -1 -14   94.36    3.18
   4  -1  14   90.17    2.83
   4   1  15  268.53    5.94
  -4   1 -15  276.70    4.93
  -4   1 -15  269.60    5.55
   4   1  15  266.41    4.15
   4  -1  15  274.98    5.73
  -4  -1 -15  278.28    6.14
  -4   1 -15  272.33    5.81
   4  -1  15  276.23    5.62
   4   1  16    3.21    0.43
   4   1  16    4.80    0.90
  -4   1 -16    3.88    0.60
  -4   1 -16    3.38    0.68
   4  -1  16    3.68    0.82
  -4  -1 -16    3.03    0.75
  -4   1 -16    3.21    0.71
   4  -1  16    4.84    0.83
  -4   1 -17  303.37    5.45
   4   1  17  295.11    6.54
   4   1  17  301.59    4.69
   4  -1  17  299.25    6.33
   4   1  17  298.90    6.03
  -4   1 -17  299.23    6.41
   4  -1  17  296.99    6.14
   4   1  18   40.40    2.23
   4   1  18   39.29    1.30
   4   1  18   42.20    2.03
   4  -1  18   39.56    2.12
  -4   1 -18   43.71    2.24
   4  -1  18   42.68    2.08
   4  -1  19    2.64    0.77
   4   1  19    1.91    0.72
   4   1  19    1.09    0.32
   4   1  19    2.72    0.88
   4  -1  19    1.93    0.73
   4   1  20  104.66    3.45
   4  -1  20   98.17    3.56
   4   1  20  103.27    2.38
   4   1  20  103.60    3.74
   4  -1  20  101.05    3.40
   4  -1  21   15.31    1.46
   4   1  21   14.90    1.36
   4   1  21   14.24    0.86
   4   1  21   15.68    1.55
   4  -1  21   15.48    1.37
   4  -1  22   -0.21    0.65
   4   1  22    0.55    0.64
   4   1  22    1.04    0.41
   4   1  22    0.95    0.75
   4  -1  22    0.33    0.66
   4   1  23  133.85    4.28
   4  -1  23  130.96    4.45
   4   1  23  131.61    4.54
   4  -1  23  133.76    4.19
   4  -1  24   48.65    2.73
   4   1  24   49.82    2.61
   4   1  24   46.23    2.70
   4  -1  24   51.69    2.61
   4  -1  25  107.62    4.17
   4   1  25  108.34    4.00
   4   1  25  104.86    4.19
   4  -1  25  113.73    3.98
   4   1  26   26.05    2.00
   4  -1  26   25.53    2.08
   4   1  26   25.06    2.11
   4  -1  26   28.85    2.02
   4   1  27   11.41    1.46
   4  -1  27   14.03    1.68
   4   1  27   12.87    1.57
   4  -1  27   15.64    1.57
   4  -1  28   38.07    2.65
   4   1  28   40.36    2.60
   4   1  28   39.11    2.69
   4  -1  28   42.68    2.51
   4   1  29    7.41    1.38
   4  -1  29    7.82    1.42
   4   1  29    8.21    1.41
   4  -1  29    9.23    1.34
   4   1  30    7.43    1.34
   4   1  30    7.56    1.36
   4  -1  30    8.98    1.48
   4   1  31   23.17    2.21
   4   1  31   24.37    2.20
   4  -1  31   24.25    2.28
   4   1  32    3.40    1.12
   4  -1  32    4.37    1.20
   4   1  32    2.76    1.12
  -4   2  33    0.38    0.80
  -4   2  32   13.27    1.60
  -4   2  32   11.12    1.64
  -4  -2  32   15.74    2.01
  -4   2  31    9.44    1.35
  -4   2  31   10.46    1.56
  -4  -2  31    8.72    1.65
  -4   2  30   15.69    1.83
  -4  -2  30   16.30    1.99
  -4   2  29    3.20    1.05
  -4  -2  29    3.34    1.12
  -4   2  28    5.01    1.16
  -4  -2  28    5.17    1.21
  -4   2  27   43.46    2.73
  -4  -2  27   40.10    2.76
  -4   2  26   89.44    3.81
  -4  -2  26   87.16    4.01
  -4   2  25   19.40    1.78
  -4  -2  25   19.55    1.92
  -4  -2  25   20.21    1.34
  -4   2  24   44.70    2.58
   4   2 -24   46.58    1.79
  -4  -2  24   44.85    1.95
  -4  -2  24   44.13    2.71
   4   2 -23   39.19    1.59
  -4   2  23   39.61    2.36
  -4  -2  23   37.36    1.75
  -4  -2  23   37.74    2.47
   4   2 -22    3.30    0.52
  -4   2  22    2.10    0.75
  -4  -2  22    2.36    0.56
  -4  -2  22    2.70    0.94
   4   2 -21   19.36    1.01
  -4   2  21   19.23    1.60
  -4  -2  21   16.85    1.64
  -4  -2  21   16.81    1.14
   4   2 -20   46.01    2.38
   4   2 -20   49.15    1.58
  -4   2  20   49.39    2.46
  -4  -2  20   48.81    1.84
  -4  -2  20   48.09    2.60
   4   2 -19   77.47    3.03
   4   2 -19   81.33    2.00
  -4   2  19   81.02    3.12
  -4  -2  19   80.87    2.38
  -4  -2  19   77.42    3.23
  -4  -2  18   51.11    2.38
   4   2 -18   44.52    2.27
  -4   2  18   47.36    2.31
   4   2 -18   45.99    1.38
   4  -2 -18   48.39    2.33
  -4  -2  18   43.42    2.33
  -4  -2  18   45.99    1.72
  -4  -2  17    6.54    0.95
   4   2 -17    7.82    0.99
   4   2 -17    7.10    0.52
  -4   2  17    8.11    1.01
   4  -2 -17    8.03    0.99
  -4  -2  17    6.70    0.68
  -4  -2  17    7.03    1.04
  -4  -2  16   17.08    1.37
   4   2 -16   15.84    1.36
   4   2 -16   15.63    0.68
   4  -2 -16   17.13    1.39
  -4   2  16   17.24    1.39
  -4  -2  16   15.82    0.95
  -4  -2  16   16.22    1.38
  -4  -2  15    4.71    0.79
   4   2 -15    4.05    0.76
  -4   2  15    3.85    0.84
   4  -2 -15    5.97    0.82
   4   2 -15    3.52    0.33
  -4  -2  15    2.94    0.71
   4   2 -15    3.06    0.73
   4   2 -14   23.82    1.56
  -4  -2  14   26.63    1.63
  -4   2  14   28.69    1.66
   4  -2 -14   26.72    1.61
   4   2 -14   25.95    0.75
   4   2 -14   26.97    1.67
  -4  -2  14   25.58    1.63
  -4  -2  13  322.13    6.22
   4   2 -13  302.81    6.08
  -4   2  13  307.08    6.10
   4  -2 -13  315.46    6.16
   4   2 -13  300.04    4.00
   4   2 -13  316.51    6.33
  -4  -2  13  292.19    6.15
   4   2 -12  556.22    9.24
  -4  -2  12  577.63    9.32
  -4   2  12  553.77    9.20
   4  -2 -12  563.08    9.27
  -4  -2  12  561.69    9.36
   4   2 -12  564.31    9.40
  -4  -2  11  397.25    7.13
   4   2 -11  386.61    7.01
   4   2 -11  396.29    7.14
  -4  -2  11  392.23    7.11
  -4   2  11  381.09    6.98
   4  -2 -11  397.21    7.08
  -4  -2  10   10.95    1.04
   4   2 -10   10.03    1.04
   4   2 -10    9.77    0.71
  -4  -2  10   11.69    1.04
   4   2 -10   10.61    0.97
  -4   2  10   12.03    1.06
   4  -2 -10   11.02    1.02
   4   2 -10    9.68    0.36
  -4  -2   9   49.35    1.98
   4   2  -9   48.36    1.98
   4   2  -9   49.19    1.96
   4   2  -9   48.98    1.55
  -4  -2   9   49.46    1.99
   4  -2  -9   51.26    2.01
  -4   2   9   46.85    1.93
   4   2  -8    4.78    0.75
  -4  -2   8    7.03    0.84
   4   2  -8    5.19    0.71
  -4  -2   8    4.34    0.70
   4   2  -8    5.03    0.55
  -4   2   8    5.54    0.82
   4  -2  -8    4.69    0.72
  -4  -2   7   18.63    1.25
   4   2  -7   16.95    1.17
  -4  -2   7   18.14    1.17
   4   2  -7   20.06    1.21
   4  -2  -7   21.33    1.27
  -4   2   7   22.31    1.33
   4   2  -6  271.75    5.10
  -4  -2   6  282.82    5.15
   4   2  -6  277.61    5.04
  -4  -2   6  277.17    5.02
   4  -2  -6  288.76    5.27
  -4   2   6  276.92    5.17
   4   2  -6  273.79    3.69
  -4  -2   6  262.98    3.69
   4   2  -5  282.88    5.16
   4   2  -5  278.72    4.99
   4   2  -5  284.94    3.94
  -4  -2   5  272.55    3.95
  -4   2   5  287.16    5.27
   4  -2  -5  298.09    5.30
   4   2  -4   22.75    1.25
   4   2  -4   20.23    1.10
  -4   2   4   20.64    1.25
   4   2  -4   22.79    0.80
  -4  -2   4   20.60    0.76
   4  -2  -4   19.13    1.15
   4   2  -3  126.89    2.95
   4   2  -3  117.36    2.73
  -4   2   3  124.98    3.04
  -4  -2   3  120.95    2.31
   4   2  -3  122.09    2.30
   4  -2  -3  129.81    3.05
   4   2  -2   40.96    1.60
   4   2  -2   44.64    1.51
  -4  -2   2   41.69    1.27
   4   2  -2   42.35    1.30
  -4   2   2   41.58    1.67
   4  -2  -2   42.86    1.64
   4   2  -1  267.77    4.68
   4   2  -1  267.50    4.49
  -4  -2   1  258.41    4.29
   4   2  -1  261.18    4.30
  -4   2   1  266.01    4.91
  -4   2   1  263.76    4.88
   4   2   0 1320.74   16.83
  -4  -2   0 1296.13   16.59
   4   2   0 1292.55   16.60
  -4   2   0 1311.57   17.20
  -4   2   0 1303.07   17.14
   4   2   1    6.01    0.69
   4   2   1    5.80    0.73
  -4  -2  -1    5.57    0.63
  -4   2  -1    6.42    0.78
  -4   2  -1    6.29    0.69
  -4   2  -2   25.92    0.89
  -4  -2  -2   30.75    1.30
   4   2   2   28.89    1.29
  -4   2  -2   27.03    1.34
  -4   2  -2   26.21    1.29
  -4   2  -3  286.40    4.16
   4   2   3  300.97    5.21
  -4  -2  -3  302.16    5.22
  -4   2  -3  287.86    5.23
   4   2   4   56.37    1.98
  -4  -2  -4   56.60    1.93
  -4   2  -4   50.31    1.83
   4  -2   4   54.88    1.91
  -4   2  -5    2.33    0.59
  -4  -2  -5    2.80    0.59
   4   2   5    1.64    0.58
   4  -2   5    1.94    0.53
  -4   2  -5    2.48    0.52
  -4   2  -6  120.34    3.19
   4   2   6  123.77    3.21
  -4  -2  -6  124.25    3.20
   4  -2   6  119.11    3.01
  -4   2  -6  117.81    3.03
  -4   2  -7   67.03    2.28
   4   2   7   60.46    2.23
  -4  -2  -7   63.06    2.25
   4  -2   7   61.51    2.10
  -4   2  -7   62.06    2.14
  -4   2  -8   33.14    1.63
  -4  -2  -8   32.66    1.64
   4   2   8   33.10    1.70
   4  -2   8   30.66    1.47
  -4   2  -8   31.20    1.49
  -4   2  -9  182.84    3.99
  -4   2  -9  190.28    4.37
   4   2   9  189.00    4.45
  -4  -2  -9  190.86    4.46
  -4   2  -9  178.82    4.05
   4  -2   9  184.58    4.05
  -4   2 -10    4.76    0.68
  -4   2 -10    5.56    0.74
  -4   2 -10    6.62    0.86
  -4  -2 -10    6.56    0.87
   4   2  10    4.95    0.82
   4  -2  10    4.87    0.70
  -4   2 -11   32.04    1.55
  -4   2 -11   31.87    1.72
   4   2  11   30.69    1.81
  -4  -2 -11   33.93    1.85
  -4   2 -11   32.22    1.59
   4  -2  11   28.86    1.50
  -4   2 -12  201.55    4.38
  -4   2 -12  210.02    4.91
   4   2  12  198.09    4.98
  -4  -2 -12  216.97    5.13
  -4   2 -12  207.08    4.56
   4  -2  12  200.15    4.45
  -4   2 -13    0.21    0.38
  -4   2 -13    0.43    0.44
   4  -2  13    0.94    0.65
  -4   2 -13    0.76    0.53
  -4  -2 -13    0.42    0.58
   4   2  13    1.27    0.74
   4  -2  13    0.44    0.42
  -4   2 -14  337.71    6.30
  -4   2 -14  331.70    6.42
   4   2  14  340.70    7.17
  -4   2 -14  356.11    7.06
   4  -2  14  348.39    7.00
   4   2  14  344.54    7.22
   4  -2  14  339.13    6.43
  -4   2 -15   87.01    2.86
   4   2  15   87.55    3.29
  -4   2 -15   89.51    2.81
   4  -2  15   86.64    3.25
  -4   2 -15   93.01    3.29
   4   2  15   88.13    3.33
   4  -2  15   88.94    2.85
   4  -2  16    4.25    0.88
  -4   2 -16    3.72    0.80
   4   2  16    5.10    0.97
  -4   2 -16    4.45    0.74
  -4   2 -16    4.43    0.72
   4  -2  16    4.55    0.76
   4  -2  17  141.42    4.29
  -4   2 -17  135.21    3.78
  -4   2 -17  138.19    3.70
   4   2  17  135.85    4.36
   4  -2  17  141.16    3.83
   4  -2  18   -0.18    0.60
  -4   2 -18    0.79    0.54
   4   2  18    0.83    0.69
  -4   2 -18   -0.66    0.49
   4  -2  18    0.10    0.44
  -4   2 -19    0.18    0.47
   4   2  19    0.08    0.71
   4   2  19    0.26    0.33
  -4   2 -19    1.20    0.61
   4  -2  19   -0.08    0.59
  -4   2 -19    0.62    0.55
   4  -2  19    0.53    0.52
   4  -2  20   68.53    3.13
   4   2  20   68.20    1.98
  -4   2 -20   69.37    2.64
   4   2  20   70.01    3.25
  -4   2 -20   65.44    2.65
   4  -2  20   67.95    2.69
   4  -2  21    3.12    0.93
   4   2  21    2.11    0.85
  -4   2 -21    2.33    0.64
   4   2  21    1.93    0.45
   4  -2  21    2.26    0.67
   4  -2  22   22.78    1.90
  -4   2 -22   27.62    1.70
   4   2  22   26.56    2.08
   4  -2  22   27.07    1.77
   4  -2  23   16.08    1.73
   4   2  23   13.74    1.55
   4  -2  23   15.58    1.39
   4  -2  24   16.65    1.80
   4   2  24   19.57    1.68
   4   2  24   17.98    1.83
   4  -2  24   17.26    1.50
   4   2  25   13.37    1.48
   4  -2  25   14.68    1.73
   4   2  25   13.67    1.66
   4  -2  25   14.54    1.39
   4  -2  26    1.43    0.76
   4   2  26    2.02    0.78
   4   2  26    2.11    0.97
   4  -2  26    1.59    0.64
   4   2  27    1.75    0.83
   4  -2  27    3.61    1.10
   4   2  27    3.95    1.17
   4  -2  27    2.80    0.81
   4   2  28   25.16    2.30
   4   2  28   23.85    2.04
   4  -2  28   26.47    2.37
   4   2  29   -0.04    0.81
   4  -2  29    2.85    1.17
   4   2  29    1.15    0.91
   4   2  30   17.61    2.19
   4   2  30   23.30    2.15
   4  -2  30   19.40    2.11
   4   2  31    6.21    1.38
   4  -2  31    5.63    1.33
  -4   3  33    5.60    1.39
  -4   3  31   26.60    2.47
  -4   3  30   10.47    1.65
  -4  -3  30    9.25    1.76
  -4   3  29   25.43    2.36
  -4  -3  29   29.98    2.59
  -4   3  28    2.80    1.01
  -4  -3  28    4.70    1.27
  -4   3  27    2.34    0.95
  -4  -3  27    3.46    1.09
  -4   3  26    2.42    1.03
  -4  -3  26    1.93    0.99
   4   3 -25  102.95    4.20
  -4   3  25  101.87    4.30
  -4  -3  25  116.20    4.73
   4   3 -24   89.14    3.84
  -4   3  24   81.02    3.75
  -4  -3  24   86.22    4.02
   4   3 -23   63.09    3.16
  -4   3  23   63.54    3.27
  -4  -3  23   69.06    3.51
   4   3 -22   83.19    3.59
  -4   3  22   77.13    3.53
  -4  -3  22   83.17    3.76
   4   3 -21   34.68    2.29
  -4  -3  21   36.44    2.51
   4   3 -21   38.47    1.23
  -4   3  21   33.68    2.30
   4   3 -20   63.05    3.01
  -4  -3  20   63.65    3.21
  -4   3  20   64.62    3.09
   4   3 -20   64.93    1.60
   4   3 -20   67.75    1.61
   4   3 -19    5.87    1.08
  -4  -3  19    3.71    0.95
  -4   3  19    5.38    1.08
   4   3 -19    3.85    0.37
   4   3 -19    4.54    0.40
   4   3 -18    5.10    1.02
  -4  -3  18    6.45    1.17
  -4   3  18    7.82    1.18
   4   3 -18    6.66    0.44
   4   3 -18    5.74    0.41
   4   3 -17  111.28    3.87
   4   3 -17  121.59    2.08
  -4   3  17  114.96    4.02
   4   3 -17  117.63    2.06
  -4  -3  17  118.43    4.14
   4   3 -16  273.93    6.48
  -4  -3  16  284.02    6.75
  -4   3  16  285.80    6.63
   4   3 -16  287.49    4.02
   4   3 -16  291.59    4.02
   4   3 -15  256.60    5.98
  -4  -3  15  254.50    6.11
  -4   3  15  252.73    6.03
   4   3 -15  253.91    3.47
   4   3 -15  242.87    3.42
   4   3 -15  234.63    3.38
   4   3 -14   78.05    3.06
  -4  -3  14   81.55    3.18
   4   3 -14   79.49    1.41
  -4   3  14   73.46    2.97
   4   3 -14   79.03    1.43
   4   3 -14   77.59    1.55
   4   3 -13   27.89    1.81
  -4  -3  13   28.35    1.84
   4   3 -13   29.06    1.81
  -4   3  13   24.60    1.73
   4   3 -13   29.08    0.72
   4  -3 -13   27.02    1.77
   4   3 -13   25.77    0.86
   4   3 -12   10.11    1.13
   4   3 -12   10.42    1.12
   4   3 -12   10.77    0.75
  -4  -3  12   11.14    1.21
  -4   3  12    8.64    1.07
   4   3 -12   10.59    0.44
   4  -3 -12   10.76    1.18
   4   3 -12    9.27    0.55
   4   3 -11  203.72    5.04
   4   3 -11  208.25    3.92
   4   3 -11  213.12    5.14
  -4  -3  11  203.09    5.06
   4  -3 -11  224.61    5.26
  -4   3  11  207.89    5.09
   4   3 -11  212.42    3.05
   4   3 -11  195.52    3.48
   4   3 -10  143.61    4.06
   4  -3 -10  158.17    4.23
   4   3 -10  150.25    2.43
  -4   3  10  148.32    4.14
   4   3 -10  149.08    3.17
   4   3 -10  152.64    4.16
   4   3  -9  257.16    5.64
   4  -3  -9  258.74    5.68
   4   3  -9  257.19    3.79
  -4   3   9  249.62    5.61
   4   3  -9  265.24    5.71
   4   3  -8  185.97    4.66
   4   3  -8  194.04    4.64
   4   3  -8  199.10    3.18
  -4   3   8  186.62    4.59
   4  -3  -8  202.79    4.80
   4   3  -7    6.17    0.92
   4   3  -7    8.24    0.94
   4   3  -7    8.38    0.55
  -4   3   7    7.32    0.94
   4  -3  -7    8.88    1.01
  -4  -3   7    7.10    0.53
   4   3  -6    2.96    0.74
   4   3  -6    4.16    0.71
  -4   3   6    3.54    0.78
   4   3  -6    3.53    0.40
   4  -3  -6    3.38    0.68
  -4  -3   6    3.17    0.41
   4   3  -5  142.44    3.78
   4   3  -5  143.38    3.68
  -4   3   5  145.10    3.81
  -4  -3   5  139.77    2.82
   4   3  -5  143.06    2.81
   4  -3  -5  152.07    3.90
   4   3  -4   10.74    1.06
   4   3  -4    8.65    0.92
  -4  -3   4    9.31    0.70
  -4   3   4   11.18    1.09
   4   3  -4   10.48    0.74
   4  -3  -4   10.70    1.02
   4   3  -3  450.71    7.83
   4   3  -3  456.69    7.72
  -4  -3   3  452.68    6.91
  -4   3   3  452.29    7.93
   4   3  -3  462.68    6.88
   4  -3  -3  467.82    7.99
   4   3  -2  652.03   10.21
   4   3  -2  632.29    9.99
  -4   3   2  659.06   10.31
  -4  -3   2  647.87    9.40
   4   3  -2  663.07    9.36
   4  -3  -2  695.43   10.49
   4   3  -1  191.01    4.29
  -4  -3   1  186.29    3.81
  -4   3   1  181.84    4.27
   4   3  -1  191.48    3.80
   4  -3  -1  188.82    4.35
  -4   3   0   77.48    2.59
   4   3   0   81.08    2.34
  -4  -3   0   76.78    2.29
  -4   3   0   79.34    2.64
   4   3   1  259.55    4.92
  -4  -3  -1  258.71    4.93
  -4   3  -1  252.41    5.21
  -4   3  -1  256.25    5.30
   4   3   2    7.38    0.82
  -4  -3  -2    7.52    0.79
  -4   3  -2    7.46    0.88
  -4   3  -2    8.02    0.91
   4   3   3  256.67    5.09
  -4  -3  -3  256.36    5.15
  -4   3  -3  251.55    5.26
  -4   3  -3  249.59    5.14
  -4   3  -4  116.68    2.19
  -4  -3  -4  119.65    3.30
   4   3   4  118.27    3.23
  -4   3  -4  126.15    3.40
  -4   3  -4  121.45    3.28
  -4   3  -5  127.54    2.18
  -4   3  -5  138.18    3.87
  -4  -3  -5  143.45    3.68
   4   3   5  137.70    3.61
  -4   3  -5  134.34    3.54
  -4   3  -5  132.60    3.48
  -4   3  -6  107.39    3.37
  -4  -3  -6  102.62    3.16
   4   3   6   95.86    3.04
  -4   3  -6   98.51    2.98
  -4   3  -6   99.51    3.01
  -4   3  -7   83.39    2.98
  -4  -3  -7   82.63    2.83
   4   3   7   79.04    2.78
  -4   3  -7   74.44    2.59
  -4   3  -7   77.74    2.62
  -4   3  -8    0.63    0.51
   4   3   8    2.02    0.64
  -4  -3  -8    1.73    0.56
  -4   3  -8    1.66    0.53
  -4   3  -8    1.56    0.60
  -4   3  -9  141.07    4.13
  -4  -3  -9  143.65    4.09
   4   3   9  138.65    4.02
  -4   3  -9  135.15    3.66
  -4   3 -10   72.36    2.75
  -4   3 -10   80.21    3.08
  -4  -3 -10   78.85    3.01
   4   3  10   73.43    2.90
  -4   3 -10   75.70    2.64
  -4   3 -11   12.55    1.21
  -4   3 -11   12.71    1.36
   4   3  11   11.48    1.25
  -4   3 -11   11.60    1.07
  -4   3 -12    6.27    0.82
  -4   3 -12    6.27    0.91
   4   3  12   10.62    1.26
   4  -3  12    7.24    0.90
  -4   3 -13  216.85    5.24
   4   3  13  223.72    5.74
   4  -3  13  223.59    4.99
  -4   3 -13  216.57    4.99
  -4   3 -14  135.14    4.00
   4   3  14  136.26    4.43
  -4   3 -14  137.88    3.85
   4  -3  14  143.20    3.82
  -4   3 -15   88.43    3.19
   4   3  15   90.73    3.60
   4  -3  15   93.13    3.01
  -4   3 -15   89.72    3.05
  -4   3 -16   10.38    1.16
  -4   3 -16   11.40    1.11
   4   3  16   13.03    1.50
   4  -3  16   12.73    1.13
  -4   3 -17   -0.27    0.67
  -4   3 -17    1.04    0.49
   4   3  17    1.28    0.87
   4  -3  17    1.89    0.62
  -4   3 -18    1.75    0.55
  -4   3 -18    1.96    0.63
   4   3  18    6.15    1.18
   4  -3  18    2.61    0.70
  -4   3 -19    2.58    0.66
   4   3  19    3.49    1.04
  -4   3 -19    3.10    0.80
   4   3  19    1.18    0.82
   4  -3  19    3.41    0.76
   4   3  20   13.88    1.66
  -4   3 -20   12.94    1.37
  -4   3 -20   12.89    1.23
   4  -3  20   14.98    1.30
  -4   3 -21   98.53    3.66
   4   3  21  102.01    4.28
   4  -3  21  103.28    3.45
   4   3  22    1.69    0.89
  -4   3 -22    0.63    0.60
   4  -3  22    1.05    0.61
   4   3  23   -0.89    0.77
  -4   3 -23   -0.32    0.66
   4  -3  23    0.05    0.61
   4   3  24    1.03    0.96
  -4   3 -24   -0.71    0.70
   4  -3  24   -0.22    0.52
   4   3  25    8.04    1.47
  -4   3 -25    8.20    1.18
   4   3  26    1.45    1.12
  -4   3 -26    1.06    0.66
   4   3  27   27.08    2.41
   4   3  28   13.75    1.89
   4   4 -28   26.11    2.41
   4   4 -27   15.82    1.94
  -4   4  27   19.88    2.20
  -4  -4  27   20.56    2.31
   4   4 -26   27.12    2.43
  -4   4  26   30.99    2.61
  -4  -4  26   32.88    2.72
   4   4 -25   11.53    1.65
  -4   4  25   12.65    1.71
  -4  -4  25   12.03    1.77
   4   4 -24    3.87    1.08
  -4   4  24    2.64    1.16
  -4  -4  24    5.25    1.40
   4   4 -23   58.43    3.31
  -4   4  23   58.12    3.42
  -4  -4  23   60.06    3.48
   4   4 -22    6.85    1.24
  -4   4  22    6.39    1.29
  -4  -4  22    8.54    1.55
   4   4 -21    8.62    1.46
  -4   4  21    8.46    1.42
  -4  -4  21    9.88    1.54
   4   4 -20   15.19    1.68
  -4   4  20   13.85    1.66
   4   4 -19   31.76    2.34
  -4   4  19   35.67    2.48
   4   4 -18   10.66    1.50
   4   4 -18    8.11    0.50
  -4   4  18    8.29    1.25
   4   4 -18    9.69    0.46
   4   4 -18    9.14    0.44
   4   4 -17    1.44    0.88
   4   4 -17    1.03    0.29
  -4   4  17    0.92    0.74
   4   4 -17    1.59    0.26
   4   4 -17    1.37    0.24
   4   4 -16   13.34    1.54
   4   4 -16   13.11    0.57
  -4   4  16   12.17    1.50
   4   4 -16   12.59    0.71
   4   4 -15   20.02    1.82
  -4   4  15   17.95    1.68
   4   4 -15   20.38    0.75
   4   4 -15   18.36    0.92
   4   4 -14   36.81    2.33
  -4   4  14   41.62    2.46
   4   4 -14   44.24    1.19
   4   4 -14   38.77    1.41
   4   4 -13  259.22    6.52
   4   4 -13  260.57    4.69
  -4   4  13  249.36    6.40
   4   4 -13  273.97    4.13
   4   4 -13  260.23    4.68
   4   4 -12   41.29    2.41
   4   4 -12   41.30    1.57
   4   4 -12   45.58    1.33
  -4   4  12   38.50    2.31
   4   4 -12   39.83    1.55
   4   4 -11   52.36    2.67
   4   4 -11   51.15    1.80
   4   4 -11   54.92    1.52
  -4   4  11   46.09    2.48
   4   4 -11   49.66    1.81
   4   4 -10    2.34    0.84
  -4   4  10    3.03    0.79
   4   4 -10    2.99    0.45
   4   4  -9    1.50    0.77
  -4   4   9    0.24    0.63
   4   4  -9    1.48    0.39
   4   4  -8   60.69    2.75
   4   4  -8   55.97    2.65
   4   4  -8   58.88    1.78
  -4   4   8   55.13    2.64
   4   4  -7    2.93    0.84
   4   4  -7    1.32    0.65
  -4   4   7    1.26    0.65
   4   4  -7    2.49    0.50
  -4  -4   7    1.49    0.43
   4   4  -6   51.53    2.51
   4   4  -6   50.09    2.43
  -4   4   6   49.84    2.43
   4   4  -6   53.08    1.77
   4  -4  -6   53.51    2.50
  -4  -4   6   47.28    1.72
   4   4  -5  102.50    3.52
   4   4  -5  103.81    3.47
   4   4  -5  104.79    2.68
  -4   4   5  102.86    3.48
   4  -4  -5  109.06    3.58
  -4  -4   5   95.08    2.61
   4   4  -4   65.13    2.75
   4   4  -4   65.21    2.69
  -4  -4   4   60.06    2.07
   4   4  -4   66.09    2.11
  -4   4   4   55.94    2.52
   4  -4  -4   61.43    2.66
   4   4  -3  182.57    4.85
   4   4  -3  188.63    4.78
  -4   4   3  175.62    4.72
  -4  -4   3  184.98    4.06
   4   4  -3  189.73    4.03
   4  -4  -3  187.71    4.87
   4   4  -2   59.94    2.60
   4   4  -2   60.13    2.55
  -4  -4   2   57.85    2.15
   4   4  -2   60.46    2.13
  -4   4   2   58.27    2.50
   4  -4  -2   60.46    2.59
   4   4  -1    2.05    0.78
   4   4  -1    0.98    0.49
  -4   4   1    0.54    0.62
  -4  -4   1    1.31    0.53
   4  -4  -1    0.06    0.46
  -4  -4   0   32.28    1.67
   4   4   0   34.77    1.70
  -4   4   0   36.35    1.94
  -4   4   0   36.58    2.01
  -4   4  -1   47.02    2.22
  -4  -4  -1   43.71    2.00
   4   4   1   45.41    2.01
  -4   4  -1   49.41    2.35
  -4  -4  -2  246.06    5.38
  -4   4  -2  235.56    5.43
   4   4   2  246.02    5.29
  -4   4  -2  244.17    5.68
  -4   4  -3  174.96    4.51
   4   4   3  181.32    4.47
  -4  -4  -3  181.51    4.53
  -4   4  -3  176.69    4.65
  -4  -4  -4    7.43    0.99
   4   4   4    8.80    1.03
  -4   4  -4   10.28    1.10
  -4   4  -4    9.19    1.04
  -4   4  -5   40.52    2.04
   4   4   5   42.68    2.21
  -4  -4  -5   42.73    2.14
  -4   4  -5   40.44    2.08
  -4   4  -6    0.28    0.19
  -4  -4  -6    0.77    0.55
   4   4   6   -0.42    0.65
  -4   4  -6    0.81    0.59
  -4   4  -6   -0.06    0.44
   4   4   7    8.82    1.11
  -4   4  -7    8.24    1.01
  -4   4  -7    7.37    0.96
   4   4   8   65.80    2.83
  -4   4  -8   67.32    2.71
  -4   4  -8   64.48    2.60
   4   4   9   26.87    1.89
  -4   4  -9   26.10    1.66
  -4   4  -9   23.46    1.60
  -4   4 -10  281.58    6.72
   4   4  10  305.35    6.96
  -4   4 -10  302.73    6.29
  -4   4 -10  293.13    6.36
  -4   4 -11  405.33    8.49
   4   4  11  428.07    8.79
  -4   4 -11  420.14    8.10
  -4   4 -11  431.83    8.02
  -4   4 -12  108.41    3.91
   4   4  12  115.58    4.14
  -4   4 -12  113.43    3.67
  -4   4 -12  116.08    3.61
  -4   4 -13    2.17    0.94
   4   4  13    3.24    1.02
  -4   4 -13    1.22    0.63
  -4   4 -13    2.62    0.84
  -4   4 -14   96.14    3.73
   4   4  14   95.06    3.92
  -4   4 -14  100.56    3.44
  -4   4 -14  105.80    3.47
  -4   4 -15    0.06    0.53
   4   4  15   -0.43    0.76
  -4   4 -15    0.49    0.66
  -4   4 -16  124.82    4.39
   4   4  16  135.87    4.89
  -4   4 -16  131.20    3.99
  -4   4 -16  129.99    4.04
  -4   4 -17   84.59    3.62
   4   4  17   87.28    3.94
  -4   4 -17   91.28    3.31
  -4   4 -18    1.98    0.84
   4   4  18    0.99    0.92
  -4   4 -19   12.57    1.47
   4   4  19   17.39    1.84
  -4   4 -20    4.40    1.09
   4   4  20    4.78    1.26
  -4   4 -21    0.64    0.82
   4   4  21   -0.36    0.84
   4   4  22   14.66    1.92
  -4   4 -22   16.01    1.71
   4   4  22   13.29    1.81
  -4   4 -23    8.85    1.44
   4   4  23    9.52    1.62
  -4   4 -24   29.16    2.33
   4   4  24   29.90    2.69
  -4   4 -25    8.50    1.37
  -4   4 -26    7.62    1.38
   4   5 -25   15.54    1.99
   4   5 -24    5.14    1.30
   4   5 -23    6.46    1.37
  -4   5  23    3.53    1.12
   4   5 -22   20.27    2.25
  -4   5  22   18.77    2.08
   4   5 -21    1.48    0.99
  -4   5  21    1.16    0.97
   4   5 -20    5.16    1.28
  -4   5  20    6.98    1.40
   4   5 -19   18.35    1.98
  -4   5  19   21.20    2.16
   4   5 -18    0.62    0.85
  -4   5  18    0.77    0.82
   4   5 -17   14.29    1.74
  -4   5  17   15.86    1.85
   4   5 -16   12.15    1.64
  -4   5  16   13.86    1.65
   4   5 -15    1.66    0.94
  -4   5  15   -0.21    0.85
   4   5 -14   17.83    1.80
   4   5 -14   18.97    1.05
   4   5 -14   18.97    0.93
  -4   5  14   17.80    1.85
   4   5 -13   25.34    2.15
   4   5 -13   25.72    1.27
   4   5 -13   28.01    1.20
  -4   5  13   29.54    2.27
   4   5 -13   25.65    1.47
   4   5 -12   66.93    3.39
   4   5 -12   68.65    2.19
   4   5 -12   71.30    2.04
  -4   5  12   64.18    3.33
   4   5 -12   64.25    2.39
   4   5 -11   25.32    2.11
   4   5 -11   25.99    1.25
  -4   5  11   22.72    1.92
   4   5 -11   23.09    1.45
   4   5 -10    1.83    0.98
   4   5 -10    2.40    0.50
  -4   5  10    0.23    0.85
   4   5  -9    4.87    1.08
   4   5  -9    5.75    0.68
  -4   5   9    5.20    1.14
   4   5  -8   12.17    1.53
  -4   5   8   12.26    1.44
   4   5  -8   13.43    1.01
   4   5  -7   27.85    2.14
  -4   5   7   26.33    1.97
   4   5  -7   30.71    1.51
   4   5  -6   33.57    2.29
  -4   5   6   31.83    2.21
   4   5  -6   35.00    1.64
  -4  -5   6   27.98    1.55
   4   5  -5    1.56    0.82
  -4   5   5    0.79    0.68
   4   5  -5    0.49    0.49
  -4  -5   5    0.03    0.43
   4   5  -4   20.84    1.82
  -4   5   4   20.66    1.73
   4   5  -4   19.17    1.30
  -4  -5   4   18.67    1.34
   4   5  -3    3.35    1.03
   4   5  -3    3.27    0.69
  -4   5   3    0.40    0.64
  -4  -5   3    1.42    0.52
   4   5  -2   42.15    2.48
  -4  -5   2   37.75    1.96
   4   5  -2   41.68    2.01
  -4   5   2   39.02    2.27
   4   5  -1   90.01    3.57
  -4   5   1   86.91    3.41
  -4  -5   1   85.74    3.06
   4   5  -1   88.26    3.03
   4   5   0   69.95    3.13
  -4   5   0   71.78    3.06
  -4  -5   0   70.11    2.80
   4   5   0   70.11    2.73
   4   5   1    8.62    1.12
  -4   5  -1    6.88    1.12
  -4  -5  -1    8.29    1.09
   4   5   2  157.53    4.46
  -4   5  -2  167.35    4.74
   4   5   3   16.57    1.48
  -4   5  -3   14.90    1.44
   4   5   4   43.05    2.32
  -4   5  -4   41.35    2.28
  -4   5  -5   28.91    1.90
   4   5   5   26.75    1.89
   4   5   6    1.64    0.77
  -4   5  -6    1.24    0.84
  -4   5  -7  120.70    3.86
   4   5   7  121.58    4.14
  -4   5  -8  134.99    4.14
   4   5   8  123.07    4.33
   4   5   9    9.27    1.34
  -4   5  -9   11.57    1.30
  -4   5 -10   18.84    1.84
   4   5  10   19.91    1.85
  -4   5 -10   19.33    1.58
  -4   5 -11   10.53    1.49
   4   5  11   10.14    1.47
  -4   5 -11   11.72    1.27
  -4   5 -12   31.32    2.38
   4   5  12   35.28    2.49
  -4   5 -12   36.23    2.12
  -4   5 -13   33.29    2.43
   4   5  13   35.27    2.51
  -4   5 -13   35.22    2.12
  -4   5 -14    3.04    1.02
   4   5  14    2.64    0.96
  -4   5 -14    2.51    0.72
  -4   5 -15   10.52    1.50
   4   5  15    9.99    1.43
  -4   5 -15   11.58    1.29
  -4   5 -16   51.87    3.06
   4   5  16   55.45    3.27
  -4   5 -16   55.97    2.66
  -4   5 -17    4.54    1.12
   4   5  17    5.52    1.38
  -4   5 -17    5.72    1.05
  -4   5 -18   -0.55    0.89
   4   5  18    1.08    0.98
  -4   5 -18    1.22    0.68
  -4   5 -19    6.19    1.24
   4   5  19    7.81    1.54
  -4   5 -20    1.00    0.97
   4   5  20    1.94    1.11
  -4   5 -21   23.20    2.19
  -4   5 -22    4.68    1.21
  -4   5 -23    0.93    0.94
  -4   5 -24    2.33    1.10
  -4   5 -25    1.19    1.07
   4   6 -18   10.07    1.87
  -4   6  18   11.19    1.73
   4   6 -17   28.37    2.58
  -4   6  17   28.01    2.64
   4   6 -16    0.67    0.94
  -4   6  16    2.24    1.08
   4   6 -15   61.39    3.61
  -4   6  15   61.75    3.60
   4   6 -14   57.15    3.59
  -4   6  14   63.27    3.61
   4   6 -13    8.17    1.45
  -4   6  13   10.06    1.66
   4   6 -12   36.06    2.73
  -4   6  12   34.53    2.65
   4   6 -11   26.67    2.41
  -4   6  11   30.22    2.48
   4   6 -10    3.99    1.28
  -4   6  10    5.18    1.36
   4   6  -9  253.94    7.30
  -4   6   9  246.83    7.08
   4   6  -9  251.24    5.29
   4   6  -8   18.86    2.19
  -4   6   8   17.93    2.01
   4   6  -8   19.98    1.41
   4   6  -7    0.35    0.84
   4   6  -7    0.93    0.56
  -4   6   7    0.99    0.84
   4   6  -6   17.25    1.94
  -4   6   6   18.92    1.84
   4   6  -6   18.56    1.37
   4   6  -5   10.19    1.53
  -4   6   5   12.25    1.55
   4   6  -5   10.58    1.12
   4   6  -4   24.38    2.19
  -4   6   4   22.53    2.00
   4   6  -4   26.40    1.74
   4   6  -3  203.62    6.26
  -4   6   3  204.61    5.98
   4   6  -3  201.25    5.13
  -4   6   2    5.42    1.19
   4   6  -2    5.70    1.05
   4   6  -2    5.55    1.33
   4   6  -1   55.50    3.12
  -4   6   1   52.20    2.87
   4   6  -1   53.24    2.57
   4   6   0   12.06    1.34
  -4   6   0   13.61    1.61
   4   6   0   13.86    1.69
   4   6   1   97.83    4.08
   4   6   1   95.86    3.64
  -4   6  -1   94.51    3.80
   4   6   2   10.11    1.34
  -4   6  -2    9.15    1.32
   4   6   2   12.80    1.64
  -4   6  -3   76.30    3.38
   4   6   3   74.30    3.29
   4   6   4    8.88    1.33
  -4   6  -4   12.26    1.47
  -4   6  -5   51.52    2.73
   4   6   5   52.88    2.87
   4   6   6    5.52    1.19
  -4   6  -6    5.82    1.11
  -4   6  -7   41.25    2.44
   4   6   7   40.49    2.57
  -4   6  -8   12.11    1.39
   4   6   8   12.61    1.65
  -4   6  -8   11.80    1.65
  -4   6  -9   31.38    2.56
  -4   6  -9   32.37    2.17
   4   6   9   31.79    2.40
  -4   6 -10    5.71    1.10
   4   6  10    5.15    1.22
  -4   6 -10    3.84    1.20
  -4   6 -11   65.53    3.65
   4   6  11   66.04    3.52
  -4   6 -11   63.31    3.01
  -4   6 -12    4.05    1.02
   4   6  12    5.54    1.32
  -4   6 -12    5.66    1.41
  -4   6 -13   42.66    2.98
  -4   6 -13   42.73    2.46
   4   6  13   41.50    3.05
  -4   6 -14    2.23    1.05
   4   6  14    5.76    1.39
  -4   6 -15   39.97    3.03
   4   6  15   40.23    2.96
  -4   6 -16   29.28    2.55
  -4   6 -17    5.87    1.34
  -4   7  10   58.52    3.59
  -4   7   9    2.38    1.16
  -4   7   8    7.43    1.43
  -4   7   7   -0.03    0.92
   4   7  -6   25.88    2.49
  -4   7   6   22.90    2.21
   4   7  -5   18.59    2.10
  -4   7   5   15.54    1.87
   4   7  -4    7.35    1.49
  -4   7   4    5.34    1.19
   4   7  -3    4.92    1.33
  -4   7   3    3.66    1.14
   4   7  -2   45.15    3.13
  -4   7   2   47.75    3.00
   4   7  -2   44.72    2.58
  -4   7   1    2.08    1.01
   4   7  -1    1.92    0.83
   4   7  -1    3.65    1.18
   4   7   0   25.42    2.38
   4   7   0   24.85    2.00
  -4   7   0   23.94    2.15
  -4   7  -1    1.20    0.87
   4   7   1    3.35    1.02
   4   7   1    4.30    1.22
   4   7   2   27.26    2.41
  -4   7  -2   28.23    2.27
   4   7   2   27.16    2.24
  -4   7  -3    0.67    0.77
   4   7   3    1.17    0.91
   4   7   3    1.08    0.95
  -4   7  -4   17.39    1.75
   4   7   4   14.82    1.72
   4   7   4   17.67    2.02
   4   7   5    1.58    0.91
  -4   7  -5    0.32    0.70
   4   7   5    2.80    1.09
  -4   7  -6    4.74    1.07
   4   7   6    4.58    1.09
   4   7   6    6.40    1.39
  -4   7  -7    1.23    0.84
   4   7   7    0.24    0.84
   4   7   7    2.64    1.14
   4   7   8   12.90    1.70
   4   7   9   11.66    1.73
   4   7  10   15.51    2.02
  -5   0  33    5.41    1.33
  -5   0  32    0.66    0.85
  -5   0  31   24.85    2.31
  -5   0  30    1.51    0.90
  -5   0  29   28.61    1.64
  -5   0  29   30.28    2.44
  -5   0  28    0.91    0.52
  -5   0  28   -0.53    0.77
  -5   0  27   47.86    2.01
  -5   0  27   45.26    2.81
  -5   0  26    2.01    0.63
   5   0 -26    1.39    0.65
  -5   0  26    0.29    0.78
  -5   0  25  134.50    3.46
   5   0 -25  132.85    3.89
  -5   0  25  129.89    4.63
  -5   0  24    0.71    0.47
   5   0 -24    1.37    0.59
  -5   0  24    0.52    0.61
  -5   0  24    0.78    0.92
  -5   0  23   14.66    1.03
  -5   0  23   13.19    1.20
   5   0 -23   14.76    1.19
  -5   0  23   14.48    1.50
  -5   0  22    0.58    0.42
  -5   0  22    0.09    0.49
   5   0 -22    0.04    0.42
  -5   0  22    0.94    0.56
  -5   0  22    0.17    0.74
  -5   0  21  403.37    7.83
   5   0 -21  384.57    7.05
  -5   0  21  401.59    7.19
  -5   0  21  395.31    8.25
  -5   0  20    3.82    0.90
   5   0 -20    4.21    0.77
  -5   0  20    3.22    0.77
  -5   0  19    7.07    0.90
  -5   0  19    7.74    0.84
   5   0 -19    6.88    0.77
  -5   0  18    0.35    0.52
   5   0 -18    0.32    0.37
  -5   0  18    0.73    0.45
  -5   0  17  141.35    3.80
  -5   0  17  137.34    3.24
   5   0 -17  137.32    3.25
  -5   0  16    1.18    0.60
  -5   0  16    0.22    0.43
   5   0 -16    1.01    0.45
  -5   0  15  132.31    3.51
   5   0 -15  127.77    2.94
  -5   0  15  128.56    2.94
  -5   0  14    1.34    0.63
   5   0 -14    1.63    0.46
  -5   0  14    1.73    0.47
   5   0 -13  107.35    2.49
  -5   0  13  109.58    2.52
   5   0 -12    0.59    0.36
  -5   0  12    0.99    0.41
   5   0 -11   74.59    1.90
  -5   0  11   77.04    1.93
  -5   0  10    0.48    0.37
   5   0 -10    0.47    0.31
   5   0  -9  182.68    3.17
  -5   0   9  176.08    3.13
  -5   0   9  179.37    2.98
  -5   0   8    0.73    0.38
  -5   0   8    0.08    0.35
   5   0  -8   -0.11    0.31
  -5   0   8    0.62    0.26
  -5   0   7   92.46    2.29
  -5   0   7   86.95    1.89
   5   0  -7   86.21    1.92
  -5   0   7   88.45    1.84
  -5   0   6    0.81    0.41
   5   0  -6    0.14    0.31
  -5   0   6    0.82    0.30
  -5   0   6    0.69    0.39
  -5   0   5    0.16    0.36
   5   0  -5   -0.19    0.48
   5   0  -5    0.06    0.36
  -5   0   5    0.56    0.37
  -5   0   5    0.12    0.27
  -5   0   4    0.17    0.39
   5   0  -4   -0.69    0.48
  -5   0   4    0.82    0.36
   5   0  -4    0.33    0.36
   5   0  -3   16.26    0.94
  -5   0   3   16.83    0.83
   5   0  -3   17.25    0.84
   5   0  -2   -0.07    0.43
  -5   0   2    0.16    0.34
   5   0  -2    0.29    0.44
  -5   0   1   61.83    1.74
   5   0  -1   63.47    1.71
  -5   0   0   -0.13    0.37
   5   0   0    0.02    0.49
  -5   0  -1   74.94    1.99
   5   0   1   74.36    2.05
  -5   0  -2    0.13    0.18
   5   0   2   -0.26    0.52
  -5   0  -2    1.37    0.50
  -5   0  -3   38.16    0.90
  -5   0  -3   38.95    1.55
   5   0   3   45.15    1.66
   5   0   4    0.07    0.22
  -5   0  -4   -0.12    0.21
   5   0   4    0.03    0.60
  -5   0  -4    0.39    0.43
   5   0   5    0.60    0.26
  -5   0  -5    0.73    0.40
   5   0   5    0.77    0.61
   5   0   6    0.04    0.26
   5   0   6   -0.07    0.50
  -5   0  -6    0.19    0.45
   5   0   7    0.10    0.27
  -5   0  -7    0.07    0.41
   5   0   7   -0.01    0.53
   5   0   8   -0.10    0.32
  -5   0  -8    0.36    0.45
   5   0   8    0.25    0.51
   5   0   9    5.18    0.54
   5   0   9    6.09    0.80
  -5   0  -9    5.91    0.82
   5   0  10    0.33    0.35
  -5   0 -10    0.06    0.47
   5   0  10   -0.13    0.54
  -5   0 -11   51.65    2.11
   5   0  11   52.44    1.77
  -5   0 -11   52.42    2.20
   5   0  11   56.17    2.22
   5   0  12    0.28    0.55
   5   0  12   -0.07    0.36
  -5   0 -12   -0.28    0.51
   5   0  13   27.99    1.39
  -5   0 -13   28.46    1.71
   5   0  13   31.56    1.76
   5   0  14    2.37    0.76
  -5   0 -14    2.08    0.81
   5   0  14    2.52    0.66
   5   0  15    7.98    1.00
  -5   0 -15   10.00    1.12
   5   0  15    9.22    0.91
   5   0  16   -0.97    0.59
   5   0  16    0.29    0.48
  -5   0 -16   -0.09    0.47
   5   0  17   23.86    1.49
   5   0  17   22.09    1.61
   5   0  18    0.42    0.49
   5   0  18   -1.16    0.72
   5   0  19    1.86    0.68
   5   0  19    1.87    0.77
   5   0  20    0.99    0.61
   5   0  20    1.09    0.73
   5   0  21   33.98    2.02
   5   0  21   33.05    2.17
   5   0  22    1.33    0.72
   5   0  22    1.88    0.85
   5   0  23    8.56    1.15
   5   0  23    9.32    1.27
   5   0  24    0.75    0.73
   5   0  24   -0.39    0.70
   5   0  25   21.75    1.80
   5   0  25   19.49    1.80
   5   0  26    0.27    0.67
   5   0  26    0.96    0.82
   5   0  27    0.66    0.71
   5   0  27    2.68    1.00
   5   0  28    0.85    1.01
   5   0  28    0.41    1.41
   5   0  29   26.17    2.19
   5   0  29   25.73    2.21
   5   0  30   -0.62    0.79
   5   0  30    0.58    1.02
   5   0  31    1.24    0.97
   5   0  31    1.35    0.88
  -5   1  33   32.45    2.82
  -5  -1  33   40.57    3.07
  -5  -1  32   67.71    3.88
  -5   1  32   68.28    3.85
  -5   1  31    3.31    0.88
  -5  -1  31    1.37    0.89
  -5   1  31    3.17    1.23
  -5   1  30    1.99    0.74
  -5  -1  30    1.20    0.93
  -5   1  30    0.15    0.80
  -5   1  29   45.77    2.40
  -5   1  29   44.58    2.63
  -5  -1  29   45.87    3.02
  -5   1  29   45.67    3.00
  -5   1  28   80.70    3.12
  -5  -1  28   84.91    4.02
  -5   1  28   81.96    3.49
  -5  -1  27    9.42    1.58
   5   1 -27    8.48    1.02
  -5   1  27    6.83    1.14
  -5  -1  27   10.04    0.75
  -5  -1  26  155.84    4.47
  -5  -1  26  148.45    5.19
  -5   1  26  152.98    4.70
   5   1 -26  147.34    3.92
  -5  -1  26  157.96    3.15
  -5  -1  25   41.92    2.17
  -5  -1  25   43.00    2.72
  -5   1  25   37.38    2.24
   5   1 -25   42.37    1.92
  -5  -1  25   42.76    1.43
  -5  -1  24   68.72    2.72
  -5  -1  24   70.30    3.36
   5   1 -24   69.95    2.43
  -5   1  24   71.88    3.02
  -5  -1  24   71.41    1.86
  -5  -1  23  128.11    3.74
  -5  -1  23  119.49    4.34
   5   1 -23  121.40    3.21
   5  -1 -23  129.96    4.01
  -5   1  23  127.91    3.98
  -5  -1  23  127.42    2.57
  -5  -1  22   20.54    1.44
  -5  -1  22   21.88    1.84
   5  -1 -22   20.36    1.53
  -5   1  22   19.36    1.51
   5   1 -22   20.65    1.21
  -5  -1  22   21.04    0.89
  -5  -1  21    5.06    0.78
  -5  -1  21    5.78    1.06
   5  -1 -21    4.46    0.79
   5   1 -21    5.41    0.65
  -5   1  21    4.80    0.84
  -5  -1  21    6.41    0.52
  -5  -1  20   59.86    2.60
  -5  -1  20   59.37    2.76
  -5  -1  20   60.38    2.31
   5  -1 -20   61.68    2.50
   5   1 -20   61.97    1.96
  -5   1  20   60.17    2.48
  -5  -1  20   61.64    1.46
  -5  -1  19    7.72    1.05
  -5  -1  19    7.02    0.89
  -5  -1  19    7.64    1.18
  -5   1  19    5.33    0.89
   5  -1 -19    5.66    0.87
   5   1 -19    6.19    0.65
  -5  -1  19    7.54    0.51
  -5  -1  18  278.80    5.95
  -5  -1  18  278.97    5.39
  -5  -1  18  269.20    6.10
   5  -1 -18  272.16    5.62
  -5   1  18  265.57    5.55
   5   1 -18  265.15    4.57
  -5  -1  18  256.21    3.83
  -5  -1  17    2.01    0.27
  -5  -1  17    1.43    0.62
  -5  -1  17    1.76    0.54
  -5  -1  17    2.81    0.85
  -5   1  17    0.36    0.52
   5  -1 -17    0.86    0.49
   5   1 -17    1.02    0.35
  -5  -1  16    8.55    0.96
  -5  -1  16    8.17    0.79
  -5  -1  16    9.40    1.12
  -5   1  16    7.87    0.86
   5  -1 -16    8.30    0.90
   5   1 -16    8.09    0.60
  -5  -1  16    7.95    0.36
  -5  -1  15   25.97    1.52
  -5   1  15   23.55    1.37
   5  -1 -15   25.31    1.40
   5   1 -15   23.12    0.92
  -5  -1  15   25.37    1.30
  -5  -1  15   23.80    1.56
  -5  -1  14    5.50    0.78
   5   1 -14    5.44    0.44
   5  -1 -14    4.21    0.64
  -5   1  14    5.43    0.74
  -5  -1  14    5.82    0.89
  -5  -1  14    5.10    0.63
  -5  -1  13    2.54    0.70
  -5   1  13    1.69    0.56
   5   1 -13    1.02    0.27
  -5  -1  13    2.90    0.39
   5  -1 -13    1.85    0.54
  -5  -1  13    4.10    0.92
  -5  -1  13    1.79    0.52
  -5  -1  12  213.37    4.51
  -5  -1  12  209.81    4.52
  -5  -1  12  204.15    4.08
   5   1 -12  199.26    3.08
  -5   1  12  193.66    4.14
   5  -1 -12  213.81    4.29
  -5  -1  12  211.95    3.10
  -5  -1  11    0.50    0.55
  -5  -1  11    0.47    0.41
  -5  -1  11    1.29    0.61
  -5   1  11    0.35    0.49
  -5  -1  11    0.29    0.21
   5   1 -11    0.33    0.18
   5  -1 -11    0.07    0.40
  -5  -1  10    2.09    0.59
   5   1 -10    2.77    0.64
  -5  -1  10    2.40    0.48
  -5  -1  10    2.00    0.58
  -5   1  10    1.45    0.57
  -5  -1  10    2.26    0.23
   5   1 -10    1.93    0.22
   5  -1 -10    2.01    0.50
   5   1  -9    6.44    0.82
  -5  -1   9    7.46    0.78
   5   1  -9    6.25    0.69
  -5  -1   9    7.71    0.82
  -5  -1   9    7.17    0.65
  -5   1   9    6.41    0.73
   5  -1  -9    6.50    0.71
  -5  -1   8    0.23    0.46
   5   1  -8    0.06    0.58
   5   1  -8    0.51    0.46
  -5  -1   8   -0.05    0.50
  -5   1   8    0.21    0.55
   5   1  -8    0.17    0.14
   5  -1  -8    0.95    0.44
  -5  -1   7    4.50    0.59
   5   1  -7    3.98    0.74
   5   1  -7    2.93    0.54
  -5  -1   7    3.60    0.60
  -5   1   7    2.85    0.64
   5   1  -7    3.41    0.29
   5  -1  -7    4.41    0.64
   5   1  -6   29.16    1.34
  -5  -1   6   28.46    0.81
  -5  -1   6   31.37    1.29
   5   1  -6   24.23    1.17
  -5  -1   6   33.04    1.27
  -5   1   6   25.83    1.28
   5   1  -6   26.80    0.81
   5  -1  -6   27.75    1.26
  -5  -1   5    1.07    0.39
   5   1  -5    0.57    0.37
   5   1  -5    0.36    0.54
  -5  -1   5    3.00    0.41
  -5  -1   5    0.59    0.35
   5   1  -5    0.69    0.30
   5  -1  -5    0.69    0.41
  -5   1   5    0.94    0.47
  -5   1   5    0.61    0.53
  -5  -1   4    9.16    0.53
   5   1  -4   13.88    0.74
  -5  -1   4   14.24    0.70
   5   1  -4   12.41    0.87
  -5  -1   4   14.44    0.88
   5   1  -4   12.99    0.69
  -5   1   4   11.26    0.82
   5  -1  -4   13.64    0.85
  -5   1   4   13.08    0.92
  -5   1   3    2.85    0.51
  -5  -1   3    6.16    0.56
   5   1  -3    2.62    0.39
  -5  -1   3    3.35    0.50
   5   1  -3    2.96    0.48
   5   1  -3    4.09    0.64
  -5   1   3    3.42    0.53
  -5   1   3    2.97    0.67
  -5  -1   2   26.76    0.88
   5   1  -2   29.80    0.91
  -5   1   2   28.98    1.12
  -5  -1   2   31.01    1.10
   5   1  -2   31.47    1.15
   5   1  -2   34.02    1.18
  -5   1   2   28.87    1.25
   5  -1  -2   29.10    1.31
  -5   1   2   27.97    1.31
   5   1  -1   29.21    0.83
  -5   1   1   27.29    1.08
  -5  -1   1   30.40    1.04
   5   1  -1   32.41    1.09
   5   1  -1   31.23    1.23
   5  -1  -1   29.90    1.33
  -5   1   1   28.49    1.24
   5   1   0   10.85    0.84
   5   1   0   11.14    0.65
  -5  -1   0   10.63    0.64
   5   1   0    9.36    0.43
  -5   1   0   10.01    0.66
  -5  -1   0   10.70    0.72
   5  -1   0   11.24    0.99
  -5   1   0   13.48    0.95
   5   1   1   10.95    0.89
   5   1   1    9.68    0.58
  -5  -1  -1    9.46    0.56
   5   1   1    8.66    0.38
   5  -1   1    9.23    0.64
  -5  -1  -1    9.53    0.74
  -5   1  -1   11.24    0.88
   5  -1   1    8.95    0.84
   5   1   2   21.20    0.74
   5   1   2   19.22    1.13
   5  -1   2   19.11    0.85
  -5  -1  -2   18.99    1.05
   5  -1   2   20.12    1.13
  -5   1  -2   19.05    1.10
   5   1   3   27.78    0.78
   5   1   3   27.39    1.37
   5  -1   3   24.84    0.96
  -5  -1  -3   29.18    1.29
   5  -1   3   26.75    1.30
  -5   1  -3   26.69    1.26
   5   1   4   16.06    0.53
   5   1   4   17.73    1.16
  -5   1  -4   15.27    0.88
  -5  -1  -4   15.65    1.01
  -5   1  -4   15.66    1.05
   5  -1   4   17.51    1.14
   5   1   5   23.40    1.32
   5   1   5   21.03    0.55
  -5   1  -5   19.41    1.00
  -5  -1  -5   21.88    1.22
  -5   1  -5   19.66    1.19
   5  -1   5   21.11    1.22
   5   1   6    4.80    0.83
  -5   1  -6    4.82    0.69
  -5   1  -6    5.50    0.60
  -5  -1  -6    5.16    0.73
   5  -1   6    6.04    0.74
   5   1   7    3.50    0.68
  -5   1  -7    4.10    0.64
  -5   1  -7    4.47    0.59
  -5  -1  -7    4.09    0.67
   5  -1   7    4.11    0.67
  -5   1  -8   23.59    1.36
   5   1   8   23.12    1.42
  -5   1  -8   23.03    1.01
  -5   1  -8   24.15    1.21
   5  -1   8   23.80    1.22
  -5  -1  -8   26.93    1.50
   5  -1   8   24.37    1.35
  -5   1  -9   23.08    1.02
  -5   1  -9   22.36    1.32
   5   1   9   24.13    1.48
  -5   1  -9   20.77    1.17
   5  -1   9   21.34    1.21
  -5  -1  -9   22.97    1.42
   5  -1   9   24.03    1.37
   5   1  10   12.48    1.12
  -5   1 -10   12.04    1.00
  -5   1 -10   12.22    0.76
  -5   1 -10   11.43    0.91
   5  -1  10   12.82    1.03
  -5  -1 -10   13.85    1.17
   5  -1  10   12.52    1.07
   5   1  11   21.63    1.47
  -5   1 -11   19.18    0.97
  -5   1 -11   20.81    1.33
  -5   1 -11   20.92    1.27
   5  -1  11   21.22    1.30
  -5  -1 -11   22.47    1.49
   5  -1  11   21.15    1.37
   5   1  12    7.61    0.98
   5   1  12    7.48    0.33
  -5   1 -12    7.18    0.86
  -5   1 -12    9.07    0.71
  -5   1 -12    8.50    0.87
   5  -1  12    8.65    0.90
  -5  -1 -12    8.68    1.01
   5  -1  12    9.12    0.95
   5   1  13   24.31    0.66
  -5   1 -13   25.51    1.15
  -5   1 -13   25.67    1.53
   5   1  13   27.51    1.71
   5  -1  13   25.61    1.46
  -5   1 -13   25.98    1.45
  -5  -1 -13   28.63    1.74
   5  -1  13   28.00    1.60
   5   1  14    1.47    0.54
  -5   1 -14    1.82    0.61
   5   1  14    2.45    0.25
  -5   1 -14    2.02    0.41
   5   1  14    2.29    0.48
   5  -1  14    2.23    0.61
  -5  -1 -14    2.77    0.69
   5  -1  14    2.79    0.66
   5  -1  15    8.92    1.02
   5   1  15    9.77    0.90
   5   1  15   11.10    1.20
  -5   1 -15    7.25    0.94
  -5   1 -15    9.35    0.76
   5   1  15    9.49    0.46
   5  -1  15    9.34    1.03
  -5   1 -16    2.04    0.60
   5   1  16    1.82    0.62
  -5   1 -16    2.07    0.44
   5   1  16    2.30    0.29
   5  -1  16    2.90    0.70
   5   1  16    1.75    0.52
  -5   1 -16    1.57    0.57
   5  -1  16    2.04    0.59
  -5   1 -17    5.44    0.84
   5   1  17    6.07    1.04
   5   1  17    5.53    0.42
   5  -1  17    6.01    0.92
   5   1  17    5.29    0.80
  -5   1 -17    5.36    0.94
   5  -1  17    5.86    0.88
   5   1  18   35.42    1.86
   5  -1  18   37.87    2.05
   5   1  18   35.63    2.16
   5   1  18   38.79    1.10
   5  -1  18   34.16    1.97
   5  -1  19    8.60    1.12
   5   1  19    8.34    0.98
   5   1  19    9.04    0.56
   5   1  19    7.76    1.12
   5  -1  19    8.85    1.09
   5  -1  20    1.37    0.64
   5   1  20    2.30    0.38
   5   1  20    2.00    0.66
   5   1  20    1.97    0.82
   5  -1  20    0.37    0.59
   5   1  21    5.12    0.92
   5  -1  21    6.26    1.07
   5   1  21    5.42    1.03
   5   1  21    6.43    0.53
   5  -1  21    6.15    0.98
   5   1  22   -0.23    0.59
   5  -1  22    1.67    0.75
   5   1  22    0.69    0.69
   5  -1  22   -0.32    0.69
   5   1  23    1.24    0.63
   5  -1  23    0.22    0.63
   5   1  23    0.81    0.67
   5  -1  23    0.60    0.62
   5   1  24   14.55    1.44
   5  -1  24   17.80    1.66
   5   1  24   16.40    1.73
   5  -1  24   15.56    1.53
   5  -1  25    3.09    1.03
   5   1  25    2.51    0.91
   5   1  25    1.92    0.98
   5  -1  25    2.95    0.93
   5   1  26   10.81    1.33
   5  -1  26   10.75    1.51
   5   1  26   10.34    1.49
   5  -1  26   10.32    1.34
   5   1  27    1.16    0.78
   5  -1  27    0.66    0.81
   5   1  27    0.88    0.88
   5  -1  27    1.26    0.83
   5  -1  28    0.24    0.88
   5   1  28   -0.10    0.79
   5   1  28    0.40    0.73
   5  -1  28    0.58    0.73
   5   1  29    4.27    1.12
   5  -1  29    4.77    1.11
   5   1  29    2.69    0.92
   5  -1  29    5.74    1.15
   5   1  30   -0.35    0.82
   5  -1  30   -0.99    0.94
   5   1  30   -0.34    0.76
   5   1  31    1.05    0.91
   5  -1  31   -2.92    1.19
   5   1  32    1.51    1.04
   5  -1  32    2.63    1.27
  -5   2  33    1.96    1.00
  -5   2  33    2.51    1.14
  -5   2  32   15.18    1.70
  -5   2  32   17.69    1.97
  -5  -2  32   14.90    1.97
  -5   2  31    9.38    1.52
  -5  -2  31   10.07    1.66
  -5   2  30    1.69    1.25
  -5  -2  30    0.58    0.82
  -5   2  29   32.12    2.39
  -5  -2  29   32.25    2.60
  -5   2  28   11.50    1.54
  -5  -2  28   10.83    1.56
  -5   2  27    7.14    1.33
  -5  -2  27    8.54    1.50
  -5   2  26  139.18    4.79
  -5  -2  26  138.19    5.12
  -5   2  25   15.71    1.64
  -5  -2  25   18.41    1.40
  -5  -2  25   21.04    2.07
   5   2 -24   65.35    2.01
  -5   2  24   62.01    3.03
  -5  -2  24   63.22    2.42
  -5  -2  24   64.18    3.28
   5   2 -23   56.42    1.79
  -5   2  23   53.81    2.78
  -5  -2  23   56.38    2.24
  -5  -2  23   59.00    3.07
  -5   2  22    1.98    0.77
   5   2 -22    3.21    0.46
  -5  -2  22    4.53    1.10
  -5  -2  22    3.13    0.62
  -5   2  21    6.45    1.02
   5   2 -21    7.56    0.61
  -5  -2  21    6.81    0.77
  -5  -2  21    6.84    1.14
   5   2 -20   64.54    1.68
  -5   2  20   67.29    2.88
  -5  -2  20   65.21    2.25
  -5  -2  20   65.20    3.02
   5   2 -19    3.28    0.86
   5   2 -19    4.04    0.42
  -5   2  19    4.03    0.90
  -5  -2  19    4.70    0.69
  -5  -2  19    5.99    1.13
   5   2 -18  106.95    3.65
  -5  -2  18  112.34    3.67
   5   2 -18  107.10    2.05
   5  -2 -18  110.53    3.59
  -5   2  18  103.72    3.50
  -5  -2  18  107.11    2.88
  -5  -2  18  105.00    3.72
   5   2 -17   45.17    2.30
  -5  -2  17   50.44    2.38
  -5   2  17   46.19    2.25
   5   2 -17   46.49    1.12
   5  -2 -17   50.54    2.32
  -5  -2  17   46.32    2.37
   5   2 -16   -0.19    0.59
  -5  -2  16    0.21    0.60
   5  -2 -16    0.81    0.61
  -5   2  16    1.47    0.70
   5   2 -16    0.31    0.17
  -5  -2  16    1.82    0.78
   5   2 -15   19.68    1.45
  -5  -2  15   19.48    1.45
  -5   2  15   19.72    1.45
   5  -2 -15   20.27    1.43
  -5  -2  15   21.81    1.57
   5   2 -14    8.88    1.09
  -5  -2  14   12.02    1.17
   5  -2 -14   12.37    1.15
  -5   2  14   11.99    1.15
  -5  -2  14    9.39    1.09
   5   2 -14    9.74    1.26
   5   2 -13   19.53    1.40
  -5  -2  13   20.72    1.45
   5  -2 -13   20.61    1.41
  -5   2  13   20.36    1.42
  -5  -2  13   20.00    1.44
   5   2 -13   20.26    1.42
  -5  -2  12   77.63    2.72
   5   2 -12   72.30    2.66
   5  -2 -12   79.10    2.72
  -5   2  12   74.38    2.64
   5   2 -12   78.52    2.76
  -5  -2  12   73.63    2.68
  -5  -2  11  110.91    3.22
   5   2 -11  105.24    3.15
   5   2 -11  106.29    3.18
  -5  -2  11  108.78    3.18
   5   2 -11  102.44    2.58
   5  -2 -11  108.12    3.15
  -5   2  11  103.67    3.13
   5   2 -10    2.11    0.73
  -5  -2  10    1.31    0.60
   5   2 -10    1.57    0.17
   5   2 -10    2.04    0.52
  -5  -2  10    2.81    0.67
   5   2 -10    1.41    0.43
  -5   2  10    1.97    0.68
   5  -2 -10    0.84    0.50
   5   2  -9    6.21    0.86
  -5  -2   9    7.59    0.91
   5   2  -9    6.21    0.36
  -5  -2   9    6.78    0.83
   5   2  -9    7.23    0.80
   5   2  -9    5.24    0.60
  -5   2   9    6.58    0.90
   5  -2  -9    6.11    0.80
   5   2  -8    4.96    0.80
   5   2  -8    4.54    0.72
  -5  -2   8    4.18    0.73
  -5  -2   8    4.76    0.73
   5   2  -8    4.19    0.57
  -5   2   8    4.24    0.74
   5  -2  -8    6.03    0.80
   5   2  -7    6.97    0.89
  -5  -2   7    7.76    0.87
  -5  -2   7    6.50    0.75
   5   2  -7    6.67    0.73
  -5   2   7    6.95    0.86
   5  -2  -7    6.08    0.77
  -5  -2   6   13.64    1.08
   5   2  -6   14.00    1.03
   5   2  -6   13.22    0.95
  -5  -2   6   15.25    1.01
  -5  -2   6   11.35    0.48
  -5   2   6   12.65    1.08
   5  -2  -6   12.69    1.06
   5   2  -5   21.60    1.27
  -5  -2   5   23.98    1.29
  -5  -2   5   27.44    1.31
   5   2  -5   25.28    1.26
  -5   2   5   26.44    1.43
  -5  -2   5   24.02    0.79
   5  -2  -5   26.50    1.40
   5   2  -4    0.84    0.53
   5   2  -4    1.46    0.49
   5   2  -4    0.80    0.27
  -5  -2   4    0.97    0.29
  -5   2   4    2.00    0.67
   5  -2  -4    1.38    0.49
   5   2  -3   15.34    1.03
   5   2  -3   16.44    0.95
  -5  -2   3   16.31    0.77
  -5   2   3   15.93    1.13
   5   2  -3   16.36    0.78
  -5   2   3   15.46    1.10
   5  -2  -3   16.25    1.11
   5   2  -2   19.11    1.09
   5   2  -2   18.83    0.98
  -5  -2   2   18.92    0.90
   5   2  -2   19.58    0.92
  -5   2   2   21.07    1.26
  -5   2   2   20.77    1.23
   5   2  -1    8.66    0.79
   5   2  -1    7.55    0.65
   5   2  -1    9.37    0.72
  -5  -2   1    8.64    0.67
  -5   2   1    9.18    0.85
  -5   2   1    9.45    0.95
   5   2   0    1.85    0.49
  -5  -2   0    1.68    0.43
   5   2   0    2.33    0.53
  -5   2   0    2.80    0.69
  -5   2   0    1.61    0.56
   5   2   1   35.58    1.37
  -5   2  -1   34.42    1.16
   5   2   1   38.27    1.48
  -5  -2  -1   38.82    1.45
  -5   2  -1   35.55    1.61
  -5   2  -1   38.67    1.71
  -5   2  -2    4.63    0.45
   5   2   2    4.86    0.59
  -5  -2  -2    4.75    0.60
   5   2   2    4.94    0.68
   5  -2   2    4.62    0.73
  -5   2  -2    4.60    0.68
   5   2   3   23.04    1.06
  -5   2  -3   20.63    0.81
   5   2   3   22.23    1.26
  -5  -2  -3   20.85    1.18
  -5   2  -3   20.53    1.26
   5  -2   3   22.16    1.26
  -5  -2  -4    1.58    0.48
   5   2   4    1.91    0.62
   5  -2   4    2.48    0.61
  -5   2  -4    2.32    0.57
  -5   2  -5    8.28    0.86
  -5  -2  -5    8.50    0.84
   5   2   5    7.99    0.92
   5  -2   5    9.17    0.89
  -5   2  -5    8.44    0.84
  -5   2  -6   20.04    1.27
   5   2   6   18.04    1.28
  -5  -2  -6   20.66    1.30
   5  -2   6   20.44    1.27
  -5   2  -6   19.48    1.23
  -5   2  -7    3.56    0.71
  -5  -2  -7    4.46    0.72
   5   2   7    3.82    0.80
  -5   2  -7    4.80    0.71
   5  -2   7    4.63    0.74
  -5   2  -8   40.24    1.85
   5   2   8   41.24    1.95
  -5  -2  -8   40.90    1.92
   5  -2   8   40.72    1.82
  -5   2  -8   39.81    1.79
  -5   2  -9    0.58    0.45
  -5   2  -9    0.19    0.42
   5  -2   9    0.55    0.19
  -5  -2  -9   -0.16    0.54
   5   2   9    0.80    0.60
   5  -2   9   -0.40    0.48
   5   2  10    9.63    1.10
  -5   2 -10    8.35    0.88
  -5   2 -10    9.37    0.90
   5  -2  10    8.73    0.43
  -5   2 -10   10.56    1.07
  -5  -2 -10    8.36    1.00
   5   2  10    8.62    1.08
   5  -2  10    9.14    0.94
   5   2  11   14.99    1.33
  -5   2 -11   15.34    1.09
  -5   2 -11   16.34    1.25
   5  -2  11   16.30    0.60
  -5  -2 -11   16.32    1.34
   5  -2  11   15.52    1.20
  -5   2 -11   16.42    1.22
   5   2  12    6.16    0.95
  -5   2 -12    6.40    0.84
  -5   2 -12    6.80    0.80
  -5   2 -12    6.85    0.92
  -5  -2 -12    6.48    0.96
   5  -2  12    6.34    0.82
  -5   2 -13   13.41    1.24
   5   2  13   11.67    1.28
  -5   2 -13   10.32    0.92
  -5   2 -13   11.06    1.06
   5  -2  13   14.09    1.21
  -5   2 -14   51.48    2.37
  -5   2 -14   46.23    1.93
   5   2  14   46.01    2.39
  -5   2 -14   46.45    2.14
   5  -2  14   47.30    2.13
   5  -2  15    1.73    0.74
  -5   2 -15    1.01    0.46
  -5   2 -15    1.33    0.46
   5   2  15    0.23    0.62
  -5   2 -15    1.76    0.54
   5  -2  15    0.95    0.59
  -5   2 -16    5.19    0.89
   5  -2  16    6.00    1.01
  -5   2 -16    5.85    0.87
   5   2  16    5.60    1.00
  -5   2 -16    4.56    0.75
   5  -2  16    6.20    0.92
   5  -2  17    6.96    1.05
  -5   2 -17    5.34    0.83
   5   2  17    4.55    0.92
  -5   2 -17    5.86    0.83
   5  -2  17    6.47    0.91
   5  -2  18   11.94    1.35
   5   2  18   11.67    1.40
  -5   2 -18   10.78    1.07
  -5   2 -18    9.17    1.07
   5   2  18   11.73    0.70
   5  -2  18    9.73    1.10
   5  -2  19   26.72    1.92
   5   2  19   25.95    1.02
  -5   2 -19   27.17    1.78
  -5   2 -19   27.96    1.64
   5   2  19   24.27    1.94
   5  -2  19   28.43    1.81
   5  -2  20   13.82    1.48
   5   2  20   15.26    1.60
  -5   2 -20   15.67    1.28
   5   2  20   12.93    0.73
  -5   2 -20   12.82    1.25
   5  -2  20   14.05    1.33
   5  -2  21    0.57    0.76
   5   2  21    0.95    0.77
  -5   2 -21    2.77    0.62
   5  -2  21    1.64    0.75
   5   2  22   13.23    1.32
   5  -2  22   12.74    1.56
   5   2  22   15.55    1.72
  -5   2 -22   13.20    1.19
   5  -2  22   14.69    1.41
   5  -2  23   -0.05    0.70
   5   2  23    0.20    0.58
   5   2  23    0.96    0.72
   5  -2  23    0.93    0.63
   5  -2  24    4.87    1.09
   5   2  24    5.13    0.99
   5   2  24    3.98    1.09
   5  -2  24    6.23    1.06
   5   2  25    1.70    0.66
   5  -2  25    1.87    0.91
   5   2  25    0.72    1.07
   5  -2  25    1.27    0.67
   5   2  26    3.74    0.99
   5  -2  26    4.19    1.07
   5   2  26    2.50    0.97
   5  -2  26    4.01    0.93
   5  -2  27    7.14    1.30
   5   2  27    6.32    1.09
   5   2  27    5.71    1.25
   5  -2  27    7.00    1.11
   5   2  28    2.36    1.01
   5  -2  28    2.23    1.00
   5   2  28    2.66    0.99
   5   2  29    0.72    0.81
   5  -2  29    2.50    1.06
   5   2  30    6.68    1.45
   5  -2  30    7.54    1.50
   5  -2  31    0.62    0.91
  -5   3  31   12.58    1.79
  -5   3  30    4.83    1.29
  -5  -3  30    6.31    1.49
  -5   3  29   16.05    1.92
  -5  -3  29   18.76    2.15
  -5   3  28    2.83    1.05
  -5  -3  28    5.33    1.37
  -5   3  27    2.49    1.02
  -5  -3  27    1.55    1.02
  -5   3  26   26.92    2.29
  -5  -3  26   31.48    2.52
  -5   3  25    0.90    0.89
  -5  -3  25    0.72    0.81
   5   3 -24    6.51    1.27
  -5   3  24    5.67    1.25
  -5  -3  24    6.96    1.31
   5   3 -23   42.34    2.68
  -5  -3  23   43.16    3.30
  -5   3  23   41.54    2.65
   5   3 -22   36.70    2.39
  -5  -3  22   35.51    2.50
  -5   3  22   35.42    2.38
   5   3 -22   34.61    0.91
   5   3 -21   46.88    2.64
  -5  -3  21   49.27    2.85
   5   3 -21   39.36    0.90
  -5   3  21   44.44    2.59
   5   3 -21   41.87    0.91
   5   3 -20    3.88    1.07
  -5   3  20    4.46    0.98
  -5  -3  20    3.88    1.01
   5   3 -19   19.25    1.70
  -5   3  19   17.46    1.61
  -5  -3  19   19.78    1.81
   5   3 -18    6.39    1.03
  -5   3  18    7.44    1.17
  -5  -3  18    6.33    1.09
   5   3 -17    0.40    0.75
  -5   3  17   -0.24    0.68
  -5  -3  17    0.13    0.61
   5   3 -16   20.00    1.72
  -5   3  16   20.61    1.70
  -5  -3  16   19.95    1.75
   5   3 -15   87.49    3.31
  -5  -3  15   86.76    3.37
  -5   3  15   85.02    3.28
   5   3 -14   64.85    2.81
  -5  -3  14   66.03    2.85
  -5   3  14   58.95    2.69
   5   3 -13   58.56    2.61
   5   3 -13   59.12    1.90
   5   3 -13   64.71    2.77
  -5  -3  13   58.78    2.62
   5  -3 -13   62.63    2.70
  -5   3  13   58.97    2.64
   5   3 -13   54.86    1.23
   5   3 -12   11.90    1.26
   5   3 -12   11.71    1.19
   5   3 -12   12.24    0.87
  -5  -3  12   13.60    1.31
  -5   3  12   11.54    1.24
   5   3 -12   10.61    0.57
   5  -3 -12   12.77    1.25
   5   3 -11    6.60    0.98
   5   3 -11    6.59    0.68
   5   3 -11    8.11    1.05
  -5  -3  11    7.40    1.03
  -5   3  11    6.42    1.02
   5  -3 -11    8.41    1.00
   5   3 -10    8.81    1.07
   5   3 -10   11.92    1.15
   5   3 -10    9.61    0.79
   5   3 -10    9.54    0.39
  -5   3  10    9.50    1.07
   5  -3 -10   12.12    1.18
   5   3  -9    1.23    0.64
   5   3  -9    0.53    0.51
  -5   3   9    0.39    0.61
   5   3  -9    0.86    0.20
   5  -3  -9    1.09    0.61
   5   3  -8   49.94    2.26
   5   3  -8   52.11    2.22
  -5   3   8   51.06    2.30
   5   3  -8   52.40    1.26
   5  -3  -8   56.83    2.38
   5   3  -7   25.92    1.61
   5   3  -7   23.30    1.48
  -5   3   7   25.46    1.62
   5   3  -7   26.64    0.92
  -5  -3   7   24.78    0.91
   5  -3  -7   27.26    1.65
   5   3  -6    0.97    0.55
   5   3  -6    1.49    0.53
   5   3  -6    1.57    0.32
  -5   3   6    1.24    0.61
   5  -3  -6    1.33    0.54
  -5  -3   6    1.00    0.31
   5   3  -5    3.60    0.77
   5   3  -5    2.90    0.60
  -5  -3   5    3.11    0.43
  -5   3   5    3.19    0.70
   5   3  -5    3.84    0.45
   5  -3  -5    3.59    0.68
   5   3  -4    0.93    0.56
   5   3  -4    0.46    0.42
  -5   3   4    0.12    0.53
   5   3  -4    0.43    0.34
  -5  -3   4    0.45    0.34
   5  -3  -4    0.87    0.52
   5   3  -3    3.75    0.72
   5   3  -3    4.14    0.66
  -5  -3   3    2.65    0.47
   5   3  -3    3.88    0.53
  -5   3   3    4.07    0.79
   5  -3  -3    4.41    0.72
   5   3  -2    6.36    0.88
   5   3  -2    5.36    0.72
  -5  -3   2    4.35    0.56
   5   3  -2    4.80    0.60
  -5   3   2    5.91    0.87
   5  -3  -2    5.58    0.82
  -5   3   2    5.28    0.82
   5   3  -1   22.99    1.43
   5   3  -1   20.60    1.25
   5   3  -1   21.98    1.15
  -5   3   1   21.23    1.47
  -5  -3   1   22.09    1.15
  -5   3   1   23.00    1.46
   5   3   0    5.74    0.80
  -5  -3   0    4.48    0.60
   5   3   0    5.92    0.69
  -5   3   0    4.80    0.78
  -5   3   0    4.84    0.82
   5   3   1    5.80    0.76
  -5  -3  -1    5.69    0.70
   5   3   1    6.23    0.75
  -5   3  -1    4.52    0.77
  -5   3  -1    6.41    0.88
   5   3   2   12.45    1.05
  -5  -3  -2   13.18    0.99
   5   3   2   12.00    1.02
  -5   3  -2   13.11    1.15
  -5   3  -2   10.66    1.05
  -5   3  -3   10.43    0.62
  -5  -3  -3   12.80    1.05
   5   3   3   13.15    1.07
  -5   3  -3   11.91    1.08
  -5   3  -3   10.98    1.05
  -5   3  -4   15.45    0.71
  -5  -3  -4   16.35    1.18
   5   3   4   16.98    1.25
  -5   3  -4   16.47    1.24
  -5   3  -4   15.48    1.24
  -5   3  -5    1.58    0.67
  -5  -3  -5    2.77    0.65
   5   3   5    1.77    0.65
  -5   3  -5    1.45    0.58
  -5   3  -5    1.75    0.62
  -5   3  -6   43.81    2.17
  -5  -3  -6   47.45    2.11
   5   3   6   43.62    2.04
  -5   3  -6   43.30    1.99
  -5   3  -6   42.82    1.98
  -5   3  -7    1.94    0.56
  -5  -3  -7    4.13    0.88
   5   3   7    1.66    0.65
  -5   3  -7    2.16    0.55
  -5   3  -7    2.36    0.67
  -5   3  -8   74.71    2.92
  -5  -3  -8   79.90    2.92
   5   3   8   79.39    2.93
  -5   3  -8   72.82    2.68
  -5   3  -9   10.10    1.17
  -5  -3  -9   11.83    1.27
   5   3   9    8.88    1.14
  -5   3  -9    9.55    1.03
  -5   3 -10   48.83    2.40
   5   3  10   48.49    2.40
  -5   3 -10   46.30    2.15
   5  -3  10   50.12    2.17
  -5   3 -11    1.44    0.64
  -5   3 -11    1.60    0.67
   5   3  11    1.51    0.73
   5  -3  11    1.78    0.60
  -5   3 -11    2.07    0.57
  -5   3 -12   17.87    1.43
   5   3  12   18.82    1.64
   5  -3  12   19.34    1.40
  -5   3 -12   17.17    1.32
  -5   3 -13   15.86    1.37
   5   3  13   16.18    1.56
   5  -3  13   17.58    1.36
  -5   3 -13   17.09    1.36
  -5   3 -14   49.47    2.35
   5   3  14   48.02    2.60
  -5   3 -14   49.44    2.32
   5  -3  14   53.63    2.35
  -5   3 -15    4.51    0.84
  -5   3 -15    4.86    0.84
   5   3  15    5.57    1.23
   5  -3  15    5.66    0.93
   5   3  16   32.30    2.31
  -5   3 -16   30.40    1.87
  -5   3 -16   30.25    1.83
   5   3  16   34.04    2.35
   5  -3  16   32.40    1.86
   5   3  17    0.37    0.66
  -5   3 -17    1.48    0.55
  -5   3 -17    0.48    0.58
   5  -3  17    1.27    0.64
  -5   3 -18    2.62    0.77
   5   3  18    3.11    1.00
  -5   3 -18    2.92    0.73
   5  -3  18    2.59    0.73
  -5   3 -19    2.46    0.75
   5   3  19    1.88    0.93
  -5   3 -19    2.86    0.76
   5  -3  19    1.47    0.61
   5   3  20    2.57    0.98
  -5   3 -20    1.72    0.64
   5  -3  20    3.66    0.80
   5   3  21    1.34    0.94
  -5   3 -21   -0.58    0.61
   5  -3  21    1.46    0.69
  -5   3 -22   24.89    1.84
   5   3  22   28.78    2.38
   5  -3  22   25.11    1.78
   5   3  23    0.53    1.03
  -5   3 -23    0.14    0.63
   5  -3  23    0.23    0.55
   5   3  24    1.19    0.84
  -5   3 -24    0.72    0.60
   5  -3  24    0.39    0.57
   5   3  25    0.55    0.79
  -5   3 -25    0.17    0.66
   5   3  26    1.96    1.05
   5   3  27    7.15    1.50
   5   4 -28   11.69    1.70
  -5   4  28   10.36    1.65
   5   4 -27   13.93    1.82
  -5   4  27   13.10    1.80
  -5  -4  27   14.06    1.88
   5   4 -26    3.69    1.19
  -5   4  26    7.77    1.53
  -5  -4  26    4.26    1.28
   5   4 -25    7.77    1.37
  -5   4  25    9.05    1.44
  -5  -4  25   10.24    1.61
   5   4 -24    0.00    0.80
  -5   4  24   -0.39    0.99
  -5  -4  24    0.63    0.93
   5   4 -23    2.72    1.06
  -5   4  23    3.45    1.11
  -5  -4  23    2.56    1.12
   5   4 -22    6.54    1.31
  -5   4  22    7.09    1.23
  -5  -4  22    6.16    1.39
   5   4 -21    2.09    0.87
  -5   4  21    4.26    1.11
  -5  -4  21    2.18    1.08
   5   4 -20   61.10    3.21
  -5   4  20   56.19    3.16
  -5  -4  20   57.29    3.24
   5   4 -19   13.66    1.62
  -5   4  19   14.57    1.66
  -5  -4  19   12.67    1.63
   5   4 -18    0.36    0.79
  -5   4  18    0.04    0.81
   5   4 -17    7.21    1.25
  -5   4  17    5.18    1.08
   5   4 -17    5.24    0.33
   5   4 -16    1.63    0.89
  -5   4  16    1.35    0.80
   5   4 -16    2.15    0.31
   5   4 -15    1.67    0.84
  -5   4  15    2.21    0.96
   5   4 -15    1.80    0.29
   5   4 -14    8.21    1.23
   5   4 -14    8.66    0.76
  -5   4  14    9.77    1.45
   5   4 -14    7.64    0.61
   5   4 -13   67.83    3.14
   5   4 -13   68.83    2.18
  -5   4  13   68.88    3.13
   5   4 -13   64.88    1.31
   5   4 -13   64.22    1.89
   5   4 -12   24.41    1.90
   5   4 -12   22.77    1.25
  -5   4  12   21.15    1.81
   5   4 -12   24.66    0.81
   5   4 -12   22.32    1.12
   5   4 -11   23.13    1.84
  -5   4  11   22.19    1.75
   5   4 -11   26.07    0.92
   5   4 -11   24.33    1.30
   5   4 -10   14.71    1.47
  -5   4  10   16.53    1.57
   5   4 -10   16.17    0.78
   5   4  -9    8.75    1.17
   5   4  -9    8.75    0.62
  -5   4   9    7.27    1.09
   5   4  -8    4.49    0.90
   5   4  -8    4.08    0.82
   5   4  -8    4.71    0.50
  -5   4   8    4.66    0.94
  -5  -4   8    3.68    0.48
   5   4  -7    1.78    0.77
   5   4  -7    3.53    0.76
   5   4  -7    3.00    0.48
  -5   4   7    1.81    0.74
  -5  -4   7    2.32    0.44
   5   4  -6    5.21    0.95
   5   4  -6    5.22    0.87
  -5   4   6    5.28    0.94
   5   4  -6    5.67    0.64
  -5  -4   6    5.00    0.58
   5   4  -5   21.25    1.65
   5   4  -5   21.18    1.53
  -5   4   5   21.41    1.64
  -5  -4   5   20.89    1.16
   5   4  -5   24.03    1.21
   5  -4  -5   23.96    1.75
   5   4  -4   50.08    2.40
   5   4  -4   49.92    2.32
  -5   4   4   45.60    2.30
  -5  -4   4   48.62    1.82
   5   4  -4   49.23    1.80
   5  -4  -4   56.89    2.58
   5   4  -3   12.76    1.30
   5   4  -3   13.40    1.23
  -5  -4   3   12.70    0.99
  -5   4   3   11.60    1.24
   5   4  -3   13.90    1.03
   5  -4  -3   14.05    1.35
   5   4  -2   70.47    2.82
   5   4  -2   75.50    2.80
   5   4  -2   74.44    2.41
  -5  -4   2   72.67    2.41
  -5   4   2   71.18    2.87
   5  -4  -2   73.19    2.91
   5   4  -1    4.08    0.81
   5   4  -1    2.72    0.67
   5   4  -1    4.37    0.69
  -5  -4   1    3.46    0.62
  -5   4   1    3.93    0.81
  -5   4   1    4.95    0.84
   5   4   0   28.38    1.73
  -5  -4   0   27.59    1.55
  -5   4   0   27.34    1.77
   5   4   0   27.23    1.54
  -5   4   0   29.38    1.83
   5   4   1    9.06    1.06
  -5  -4  -1   10.10    1.02
   5   4   1   11.90    1.06
  -5   4  -1   11.86    1.19
  -5   4  -1   12.29    1.25
  -5   4  -2   22.88    1.62
   5   4   2   20.94    1.41
  -5  -4  -2   24.43    1.52
  -5   4  -2   24.51    1.67
  -5  -4  -3    1.58    0.58
   5   4   3    1.26    0.64
  -5   4  -3    2.96    0.83
  -5   4  -3    2.86    0.78
  -5   4  -4   30.33    1.14
  -5   4  -4   30.18    1.81
   5   4   4   30.95    1.79
  -5  -4  -4   31.43    1.78
  -5   4  -4   31.54    1.89
  -5   4  -5    1.70    0.31
  -5  -4  -5    1.78    0.62
   5   4   5    0.86    0.67
  -5   4  -5    1.35    0.59
  -5   4  -5    1.19    0.64
   5   4   6   23.10    1.62
  -5  -4  -6   24.68    1.67
  -5   4  -6   24.08    1.67
  -5   4  -6   22.55    1.58
   5   4   7    3.37    0.79
  -5   4  -7    4.06    0.72
  -5   4  -7    4.50    0.86
   5   4   8   14.04    1.39
  -5   4  -8   16.62    1.40
  -5   4  -8   13.52    1.29
   5   4   9    0.40    0.64
  -5   4  -9    1.42    0.65
  -5   4  -9    1.32    0.62
   5   4  10   28.90    2.04
  -5   4 -10   29.13    1.86
  -5   4 -10   29.24    1.83
  -5   4 -11    3.86    0.97
   5   4  11    3.13    0.91
  -5   4 -11    3.93    0.82
  -5   4 -11    3.25    0.77
  -5   4 -12    2.43    0.90
   5   4  12   -1.23    0.89
  -5   4 -12    1.61    0.60
  -5   4 -12    1.99    0.76
  -5   4 -13   15.62    1.57
   5   4  13   14.95    1.62
  -5   4 -13   16.01    1.44
  -5   4 -13   15.79    1.41
  -5   4 -14    9.18    1.21
   5   4  14    9.24    1.31
  -5   4 -14   10.54    1.20
  -5   4 -15   -0.79    0.81
   5   4  15   -0.29    0.75
  -5   4 -15   -0.30    0.55
  -5   4 -16   22.56    1.84
   5   4  16   24.37    2.06
  -5   4 -17    3.86    0.99
   5   4  17    2.53    0.87
  -5   4 -18    0.48    0.72
   5   4  18    1.65    0.85
  -5   4 -19    2.61    0.87
   5   4  19    2.45    0.86
   5   4  19    3.25    1.07
   5   4  20    0.69    0.83
  -5   4 -20    1.50    0.79
   5   4  20    1.20    0.84
   5   4  21    3.07    1.14
  -5   4 -21    4.49    1.09
  -5   4 -22    4.61    1.15
   5   4  22    6.22    1.37
   5   4  23    6.07    1.50
  -5   4 -23    7.07    1.28
  -5   4 -24    6.04    1.22
  -5   4 -25    8.10    1.34
   5   5 -24   35.58    2.90
   5   5 -23    2.76    1.16
  -5   5  23    1.56    1.00
   5   5 -22   59.45    3.59
  -5   5  22   62.67    3.64
   5   5 -21    1.43    1.07
  -5   5  21    1.18    1.04
   5   5 -20    6.30    1.31
  -5   5  20    4.41    1.27
   5   5 -19   -0.12    0.91
  -5   5  19    1.26    0.90
   5   5 -18   17.14    1.91
  -5   5  18   21.85    2.10
   5   5 -17    6.88    1.35
  -5   5  17    2.79    1.12
   5   5 -16   30.93    2.42
  -5   5  16   29.36    2.40
   5   5 -15   21.29    2.04
  -5   5  15   23.56    2.07
   5   5 -15   22.43    1.21
   5   5 -14   -0.12    0.82
  -5   5  14    0.67    0.83
   5   5 -14    1.55    0.47
   5   5 -13    1.39    1.90
   5   5 -13    0.30    0.35
   5   5 -13    1.24    0.34
  -5   5  13    1.08    0.77
   5   5 -12   33.04    2.44
   5   5 -12   34.02    1.62
  -5   5  12   35.73    2.45
   5   5 -12   34.46    1.28
   5   5 -12   30.92    1.61
   5   5 -11   35.13    2.47
  -5   5  11   35.62    2.42
   5   5 -11   35.17    1.36
   5   5 -10    2.08    0.84
  -5   5  10    1.55    0.84
   5   5 -10    2.30    0.43
   5   5  -9    1.54    0.85
   5   5  -9    1.25    0.41
  -5   5   9    0.80    0.75
   5   5  -8    0.12    0.68
   5   5  -8    0.12    0.34
  -5   5   8   -0.17    0.72
   5   5  -7    5.26    1.09
   5   5  -7    5.52    0.66
  -5   5   7    5.48    1.10
  -5  -5   7    6.38    0.77
   5   5  -6    1.87    0.97
   5   5  -6    1.02    0.51
  -5   5   6    1.66    0.80
  -5  -5   6    0.42    0.41
   5   5  -5   14.92    1.60
   5   5  -5   17.42    1.20
  -5   5   5   13.99    1.51
  -5  -5   5   14.09    1.12
   5   5  -4    6.67    1.13
   5   5  -4    7.20    0.90
  -5   5   4    6.52    1.14
  -5  -5   4    6.38    0.83
   5   5  -3   10.49    1.43
   5   5  -3   10.29    1.03
  -5   5   3   11.29    1.36
  -5  -5   3   12.38    1.14
   5   5  -2    4.41    1.07
   5   5  -2    4.23    0.76
  -5   5   2    4.47    0.98
  -5  -5   2    4.56    0.83
   5   5  -1   10.12    1.34
   5   5  -1    8.97    1.05
  -5   5   1   10.47    1.34
  -5  -5   1    8.91    1.03
   5   5   0    2.42    0.92
   5   5   0    2.39    0.66
  -5   5   0    1.46    0.77
  -5  -5   0    2.57    0.69
   5   5   1   10.12    1.26
  -5  -5  -1    8.95    1.06
  -5   5  -1    9.44    1.21
   5   5   1    8.71    1.06
   5   5   2    5.10    1.07
  -5   5  -2    1.96    0.79
   5   5   2    4.89    0.92
  -5   5  -3    1.96    0.75
   5   5   3    1.77    0.69
   5   5   4    6.05    0.99
  -5   5  -4    9.36    1.29
  -5   5  -5    2.71    0.44
   5   5   5    2.46    0.79
  -5   5  -5    1.78    0.70
  -5   5  -6    6.81    0.47
   5   5   6    9.53    1.24
  -5   5  -6    8.28    1.17
   5   5   7    7.22    1.16
  -5   5  -7    7.16    1.10
   5   5   8   12.09    1.39
  -5   5  -8    9.62    1.23
   5   5   9   -0.12    0.71
  -5   5  -9   -0.14    0.65
  -5   5 -10    4.40    1.08
   5   5  10    3.41    0.99
  -5   5 -10    3.87    0.91
  -5   5 -11    0.17    0.89
   5   5  11    1.87    0.95
  -5   5 -11    0.25    0.61
  -5   5 -12    2.02    1.02
   5   5  12    2.14    0.97
  -5   5 -12    1.65    0.68
  -5   5 -13    3.47    1.12
   5   5  13    2.08    0.92
  -5   5 -13    2.88    0.81
  -5   5 -14   10.90    1.49
   5   5  14   14.77    1.71
  -5   5 -14   15.26    1.49
  -5   5 -15    3.74    1.11
   5   5  15    4.51    1.13
  -5   5 -15    3.27    0.88
  -5   5 -16    6.24    1.29
   5   5  16    2.09    0.96
  -5   5 -16    4.11    0.95
  -5   5 -17   -0.19    0.87
   5   5  17    1.82    1.05
  -5   5 -17   -0.15    0.83
  -5   5 -18   -0.11    0.89
   5   5  18   -0.28    0.82
  -5   5 -18    0.31    0.63
  -5   5 -19   -0.84    0.95
   5   5  19   -0.87    0.91
  -5   5 -19   -0.24    0.60
  -5   5 -20   -0.09    0.81
  -5   5 -21    7.49    1.31
  -5   5 -22   15.72    1.91
  -5   5 -23    0.24    0.90
  -5   5 -24    3.02    1.17
   5   6 -17   11.38    1.76
  -5   6  17   13.37    1.82
   5   6 -16   19.90    2.17
  -5   6  16   20.01    2.11
   5   6 -15    4.86    1.48
  -5   6  15    4.05    1.24
   5   6 -14   48.21    3.22
  -5   6  14   44.26    3.02
   5   6 -13    3.43    1.10
  -5   6  13    5.67    1.34
   5   6 -12    5.91    1.35
  -5   6  12    5.83    1.34
   5   6 -11   17.26    1.95
  -5   6  11   18.51    1.95
   5   6 -10   16.05    1.94
  -5   6  10   12.23    1.68
   5   6  -9    7.60    1.43
  -5   6   9    6.24    1.24
   5   6  -8   29.30    2.46
  -5   6   8   33.03    2.52
   5   6  -8   32.61    1.70
   5   6  -7    2.12    1.09
   5   6  -7    2.11    0.63
  -5   6   7    1.63    0.96
   5   6  -6    4.13    1.15
   5   6  -6    6.65    0.88
  -5   6   6    5.43    1.17
   5   6  -5    1.95    0.93
   5   6  -5    1.00    0.52
  -5   6   5    0.38    0.76
   5   6  -4    6.37    1.27
   5   6  -4    6.16    0.94
  -5   6   4    7.17    1.26
   5   6  -3    4.08    1.11
   5   6  -3    3.00    0.79
  -5   6   3    5.11    1.24
   5   6  -2   14.06    1.68
   5   6  -2   11.53    1.21
  -5   6   2   15.23    1.66
   5   6  -1    0.38    0.77
  -5   6   1    0.18    0.78
   5   6  -1   -0.81    0.70
   5   6   0    7.10    1.29
  -5   6   0    6.55    1.24
   5   6   0    6.83    1.08
   5   6   1    0.80    0.78
  -5   6  -1    0.58    0.76
   5   6   1    0.28    0.61
   5   6   2    2.32    1.03
  -5   6  -2    1.00    0.72
   5   6   2    1.29    0.64
   5   6   3    1.07    0.90
  -5   6  -3   -0.15    0.77
   5   6   3    1.23    0.72
   5   6   4    3.91    1.10
  -5   6  -4    3.40    0.88
   5   6   4    2.91    0.92
   5   6   5    2.24    0.94
  -5   6  -5    0.64    0.67
   5   6   5    1.56    0.80
  -5   6  -6    0.78    0.65
   5   6   6    1.66    0.86
  -5   6  -7   -1.03    0.75
   5   6   7   -0.89    0.85
   5   6   8    0.91    0.87
  -5   6  -8   -1.13    0.86
  -5   6  -9    3.68    1.35
  -5   6  -9    0.25    0.64
   5   6   9    2.93    1.02
  -5   6 -10    1.07    0.91
   5   6  10   -0.22    0.91
  -5   6 -10    0.05    0.65
  -5   6 -11    1.20    0.84
   5   6  11   -0.36    0.85
  -5   6 -11    0.25    0.67
  -5   6 -12    3.09    1.18
   5   6  12    0.78    0.88
  -5   6 -12    0.21    0.69
  -5   6 -13    1.59    1.06
   5   6  13    1.62    1.07
  -5   6 -13    2.08    0.81
  -5   6 -14    1.00    0.86
   5   6  14   -0.96    1.00
  -5   6 -14    0.36    0.65
  -5   6 -15    0.08    0.90
   5   6  15    0.09    0.97
  -5   6 -16    0.21    0.90
  -5   6 -17   -2.09    1.19
  -5   7  10   -0.15    1.04
  -5   7   9   10.29    1.68
  -5   7   8   -0.09    0.96
  -5   7   7    3.78    1.14
   5   7  -6    1.15    1.03
  -5   7   6    1.05    0.83
   5   7  -5    6.87    1.45
  -5   7   5    4.68    1.15
   5   7  -4   -1.11    0.94
  -5   7   4    1.11    0.87
   5   7  -3    5.76    1.37
  -5   7   3    4.48    1.28
   5   7  -2   -0.26    0.99
  -5   7   2   -1.40    1.02
   5   7  -1    8.05    1.52
  -5   7   1    5.92    1.13
   5   7  -1    7.45    1.22
   5   7   0    0.01    0.84
  -5   7   0   -0.76    0.90
   5   7   0   -0.16    0.67
   5   7   1    4.30    1.13
  -5   7  -1    6.65    1.32
   5   7   1    6.79    1.53
   5   7   2    1.02    0.78
  -5   7  -2    1.89    0.76
   5   7   2    0.69    0.81
   5   7   3    2.70    0.96
  -5   7  -3    4.12    1.03
   5   7   3    3.55    1.22
   5   7   4    1.80    0.89
  -5   7  -4    1.58    0.89
   5   7   4    0.18    0.82
  -5   7  -5    6.07    1.24
   5   7   5    3.33    1.14
   5   7   5    5.40    1.32
   5   7   6    2.16    0.99
  -5   7  -6    0.83    0.75
   5   7   6    3.46    1.15
   5   7   7    3.40    1.07
  -5   7  -7    4.60    1.02
   5   7   7    2.45    0.96
  -5   7  -8    0.18    0.76
   5   7   8    1.34    0.93
   5   7   8    2.33    1.05
   5   7   9    1.07    0.95
   5   7   9    0.98    0.87
   5   7  10   -2.22    1.14
   5   7  10    1.50    0.94
   5   7  11    2.19    1.11
  -6   0  33    0.07    1.00
  -6   0  32    1.15    0.92
  -6   0  31   -0.84    0.94
  -6   0  30   21.22    2.08
  -6   0  29    0.79    0.55
  -6   0  29   -0.38    0.76
  -6   0  28   50.85    2.06
  -6   0  28   54.14    3.13
  -6   0  27   -0.68    0.47
   6   0 -27   -0.19    0.48
  -6   0  27    1.44    0.93
  -6   0  26   84.06    2.58
   6   0 -26   74.84    2.91
  -6   0  26   80.54    2.99
  -6   0  26   81.98    3.73
  -6   0  25   -0.13    0.40
   6   0 -25    0.58    0.53
  -6   0  25    0.08    0.52
  -6   0  25    0.31    0.80
  -6   0  24   59.81    2.07
   6   0 -24   58.41    2.39
  -6   0  24   57.91    2.37
  -6   0  24   55.82    2.96
   6   0 -23   -0.29    0.39
  -6   0  23    1.01    0.58
  -6   0  23    0.53    0.78
   6   0 -22   79.72    2.66
  -6   0  22   78.60    2.67
  -6   0  22   75.37    3.26
  -6   0  21    1.45    0.68
  -6   0  21   -0.29    0.49
   6   0 -21    0.17    0.42
  -6   0  20 1004.67   15.06
   6   0 -20  970.58   13.90
  -6   0  20  976.54   13.93
  -6   0  19   -0.19    0.47
   6   0 -19    0.07    0.35
  -6   0  19   -0.21    0.43
  -6   0  18   33.03    1.82
   6   0 -18   30.15    1.41
  -6   0  18   31.10    1.45
  -6   0  17    0.53    0.50
  -6   0  17   -0.11    0.37
   6   0 -17   -0.32    0.36
  -6   0  16   13.58    1.17
   6   0 -16   12.44    0.88
  -6   0  16   11.82    0.87
  -6   0  15    0.42    0.49
   6   0 -15   -0.10    0.33
  -6   0  15    0.86    0.40
  -6   0  14  563.84    8.12
   6   0 -14  547.28    8.10
  -6   0  13   -0.04    0.35
   6   0 -13    0.12    0.33
  -6   0  12   41.84    1.39
   6   0 -12   41.22    1.39
  -6   0  11   -0.06    0.32
  -6   0  11    0.14    0.36
  -6   0  11   -0.06    0.22
   6   0 -11    0.07    0.30
  -6   0  10    9.24    0.78
  -6   0  10    9.57    0.69
   6   0 -10    9.17    0.66
  -6   0  10    9.48    0.58
  -6   0   9    0.35    0.39
  -6   0   9    0.21    0.36
  -6   0   9    0.25    0.24
   6   0  -9   -0.05    0.32
  -6   0   8  200.86    3.91
  -6   0   8  207.87    3.47
  -6   0   8  200.84    3.36
   6   0  -8  193.37    3.44
  -6   0   7    0.56    0.40
  -6   0   7   -0.03    0.29
   6   0  -7    0.37    0.36
  -6   0   7    0.14    0.39
   6   0  -6  394.57    6.15
  -6   0   6  378.94    6.13
   6   0  -6  394.72    5.65
  -6   0   6  378.31    5.61
  -6   0   6  381.66    5.63
   6   0  -5   -0.16    0.55
  -6   0   5    0.28    0.39
   6   0  -5    0.04    0.42
  -6   0   5    0.11    0.37
   6   0  -4  549.86    7.94
   6   0  -4  542.96    7.58
  -6   0   4  536.52    7.58
   6   0  -3    0.04    0.48
  -6   0   3   -0.07    0.39
   6   0  -3    0.29    0.44
   6   0  -2   31.87    1.28
  -6   0   2   31.22    1.21
   6   0  -2   32.29    1.24
  -6   0   1   -0.30    0.40
   6   0  -1    0.34    0.52
  -6   0   0 3061.33   37.35
   6   0   0 3102.49   37.29
  -6   0  -1    0.75    0.47
   6   0   1    0.69    0.55
  -6   0  -2  255.23    3.41
  -6   0  -2  248.97    4.66
   6   0   2  257.05    4.68
  -6   0  -3    0.24    0.19
   6   0   3    0.54    0.58
  -6   0  -3    0.23    0.42
  -6   0  -4  115.03    1.95
  -6   0  -4  109.22    2.89
   6   0   4  117.39    2.96
   6   0   5   -0.40    0.50
  -6   0  -5    0.20    0.48
   6   0   6  379.96    5.33
  -6   0  -6  359.50    6.50
   6   0   6  380.48    6.59
   6   0   7    0.05    0.25
  -6   0  -7    0.49    0.46
   6   0   7   -0.01    0.50
   6   0   8  477.59    6.85
  -6   0  -8  469.09    8.04
   6   0   8  484.92    8.08
   6   0   9    0.50    0.34
  -6   0  -9    0.19    0.45
   6   0   9    1.28    0.73
   6   0  10  267.81    4.63
  -6   0 -10  268.02    5.51
   6   0  10  270.33    5.62
  -6   0 -11    0.28    0.50
   6   0  11    0.33    0.64
   6   0  11    0.00    0.34
  -6   0 -11    0.31    0.48
  -6   0 -12   12.76    1.16
   6   0  12   15.00    0.98
  -6   0 -12   13.80    1.20
   6   0  12   14.95    1.30
   6   0  13    2.04    0.86
   6   0  13    1.28    0.58
  -6   0 -13    0.49    0.51
   6   0  14  931.70   13.25
  -6   0 -14  950.61   14.55
   6   0  14  923.29   14.34
   6   0  15    3.58    1.07
   6   0  15    3.33    0.75
  -6   0 -15    1.75    0.70
   6   0  16  549.16    9.00
   6   0  16  540.86    9.86
   6   0  17    1.24    0.60
   6   0  17    1.04    0.77
   6   0  18    0.90    0.50
   6   0  18    0.58    0.62
   6   0  19   -0.03    0.59
   6   0  19   -0.51    0.69
   6   0  20    0.20    0.53
   6   0  20    1.03    0.73
   6   0  21   -0.01    0.53
   6   0  21    0.98    0.80
   6   0  22  142.23    4.32
   6   0  22  139.50    4.69
   6   0  23    0.06    0.67
   6   0  23    0.69    0.84
   6   0  24   73.12    3.17
   6   0  24   71.05    3.43
   6   0  25    0.64    0.63
   6   0  25   -0.04    0.75
   6   0  26    6.16    1.10
   6   0  26    6.99    1.34
   6   0  27   -0.72    0.76
   6   0  27    0.16    0.76
   6   0  28    0.73    0.87
   6   0  28    0.45    0.76
   6   0  29   -0.18    0.82
   6   0  29   -0.67    0.85
   6   0  30    9.28    1.43
   6   0  31   -0.53    0.85
  -6  -1  33    8.68    1.54
  -6   1  33    9.31    1.80
  -6  -1  32    8.32    1.53
  -6   1  32   10.45    1.65
  -6   1  31   16.26    1.47
  -6   1  31   18.98    1.78
  -6  -1  31   17.95    2.03
  -6   1  31   15.04    1.89
  -6   1  30    1.15    0.60
  -6   1  30    1.99    0.80
  -6   1  30    2.31    1.07
  -6  -1  30    2.40    1.08
  -6   1  29    2.12    0.66
  -6  -1  29    1.01    0.88
  -6   1  29    1.70    0.82
  -6  -1  28   51.19    3.19
  -6   1  28   52.64    2.75
  -6  -1  27   42.74    2.80
  -6   1  27   46.06    2.53
  -6  -1  26   21.66    2.00
   6   1 -26   20.51    1.33
  -6   1  26   21.83    1.73
  -6  -1  26   21.66    0.90
  -6  -1  25  106.90    3.57
  -6  -1  25  100.90    4.14
   6   1 -25  108.27    3.07
  -6   1  25  103.42    3.67
  -6  -1  25  109.15    2.21
  -6  -1  24  115.91    3.68
  -6  -1  24  113.96    4.29
   6   1 -24  117.82    3.13
  -6   1  24  113.25    3.78
  -6  -1  24  118.67    2.28
  -6  -1  23    1.86    0.32
  -6  -1  23    1.41    0.60
  -6  -1  23    1.89    0.80
   6   1 -23    2.23    0.51
   6  -1 -23    0.63    0.55
  -6   1  23    0.61    0.55
  -6  -1  22  153.90    4.16
  -6  -1  22  151.28    4.79
   6   1 -22  160.10    3.53
   6  -1 -22  159.94    4.37
  -6   1  22  157.76    4.34
  -6  -1  22  158.52    2.65
  -6  -1  21   73.47    2.66
  -6  -1  21   68.95    3.06
   6   1 -21   70.57    2.11
   6  -1 -21   67.92    2.68
  -6   1  21   72.09    2.73
  -6  -1  21   72.67    1.49
  -6  -1  20   10.89    1.17
  -6  -1  20   11.16    1.04
  -6  -1  20   11.12    1.26
   6  -1 -20   10.63    1.05
   6   1 -20    9.47    0.75
  -6   1  20   11.40    1.13
  -6  -1  20   11.30    0.49
  -6  -1  19   11.02    1.15
  -6  -1  19   12.33    1.06
  -6  -1  19    9.56    1.19
  -6   1  19   10.22    1.03
   6  -1 -19    9.19    0.96
   6   1 -19   10.86    0.74
  -6  -1  19   10.27    0.45
  -6  -1  19   10.46    0.42
  -6  -1  18    6.80    0.93
  -6  -1  18    8.12    0.86
  -6  -1  18    9.70    1.16
  -6   1  18    6.09    0.83
   6   1 -18    8.32    0.63
   6  -1 -18    7.25    0.84
  -6  -1  18    6.34    0.34
  -6  -1  18    6.54    0.30
  -6  -1  17  260.13    5.71
  -6   1  17  253.30    5.33
   6   1 -17  255.12    4.22
   6  -1 -17  260.24    5.37
  -6  -1  17  262.43    5.22
  -6  -1  17  246.75    5.73
  -6  -1  16   70.78    2.64
  -6   1  16   65.63    2.33
  -6  -1  16   67.52    1.69
   6   1 -16   70.83    1.71
   6  -1 -16   68.48    2.41
  -6  -1  16   70.11    2.32
  -6  -1  16   64.24    2.61
  -6  -1  15   38.26    1.87
  -6   1  15   35.00    1.66
   6   1 -15   36.72    1.12
  -6  -1  15   37.69    1.13
   6  -1 -15   35.83    1.68
  -6  -1  15   37.51    1.92
  -6  -1  15   38.45    1.67
  -6  -1  14   48.83    2.08
  -6  -1  14   50.69    2.15
  -6  -1  14   51.07    1.90
   6   1 -14   48.82    1.26
   6  -1 -14   55.04    2.04
  -6  -1  14   49.23    1.25
  -6   1  14   56.09    2.02
  -6  -1  13  152.84    3.83
  -6  -1  13  149.42    3.80
  -6  -1  13  157.89    3.53
  -6   1  13  150.84    3.54
   6  -1 -13  149.57    3.57
  -6  -1  13  152.26    2.48
   6   1 -13  149.03    2.49
  -6  -1  12   96.04    2.87
  -6  -1  12  101.50    2.67
  -6  -1  12  100.95    2.93
  -6  -1  12  100.09    1.74
  -6   1  12  101.56    2.75
   6  -1 -12  101.27    2.75
   6   1 -12   95.03    1.74
  -6  -1  11  215.42    4.53
   6  -1 -11  210.29    4.26
  -6  -1  11  213.26    3.02
  -6   1  11  208.16    4.25
  -6  -1  11  207.43    4.43
  -6  -1  11  215.84    4.22
  -6  -1  10  316.87    5.73
  -6  -1  10  307.38    4.05
  -6  -1  10  300.74    5.57
   6   1 -10  323.59    5.47
  -6  -1  10  318.39    5.46
   6  -1 -10  320.52    5.52
  -6   1  10  322.00    5.53
  -6  -1  10  313.10    4.13
  -6  -1   9  181.87    2.69
  -6  -1   9  183.27    3.94
  -6  -1   9  182.13    3.81
   6   1  -9  187.03    3.75
  -6  -1   9  184.61    2.63
  -6   1   9  189.20    3.83
   6  -1  -9  185.53    3.80
   6   1  -9  188.18    2.70
   6   1  -8  145.03    3.40
  -6  -1   8  151.24    3.40
  -6  -1   8  147.14    2.39
   6   1  -8  157.03    3.32
  -6  -1   8  149.15    3.24
  -6   1   8  149.27    3.31
  -6  -1   8  153.57    2.28
   6  -1  -8  144.04    3.25
   6   1  -8  153.06    2.41
   6   1  -7  250.96    4.73
  -6  -1   7  250.50    3.77
  -6  -1   7  250.57    4.67
  -6  -1   7  255.91    4.47
   6   1  -7  264.79    4.70
  -6   1   7  261.72    4.66
  -6   1   7  252.29    4.56
   6   1  -7  258.88    3.79
  -6  -1   7  259.61    3.58
   6  -1  -7  261.92    4.66
  -6  -1   6   18.62    1.01
   6   1  -6   17.42    1.10
  -6  -1   6   18.62    0.76
   6   1  -6   17.56    1.05
  -6  -1   6   17.45    0.90
  -6   1   6   17.38    1.10
   6  -1  -6   18.12    1.04
  -6   1   6   16.08    0.97
   6   1  -6   18.31    0.76
  -6   1   5   62.65    1.90
  -6  -1   5   62.32    1.65
   6   1  -5   67.85    1.96
  -6  -1   5   62.15    1.86
  -6  -1   5   63.65    1.57
  -6   1   5   67.56    2.04
   6   1  -5   63.85    1.59
  -6   1   5   62.85    1.90
  -6   1   4  229.14    4.16
  -6  -1   4  230.19    3.75
   6   1  -4  236.77    4.16
  -6  -1   4  234.23    4.12
  -6  -1   4  227.68    3.83
   6   1  -4  233.04    3.87
  -6   1   4  234.94    4.29
  -6   1   4  235.38    4.29
  -6   1   3  460.08    6.86
  -6  -1   3  459.37    6.25
   6   1  -3  450.71    6.72
  -6  -1   3  442.46    6.70
   6   1  -3  457.08    6.66
  -6  -1   3  449.26    6.60
  -6   1   3  469.26    7.05
  -6   1   3  468.52    7.10
   6  -1  -3  464.00    7.09
   6   1  -2   63.45    1.37
  -6   1   2   63.10    1.80
  -6  -1   2   65.64    1.40
  -6  -1   2   64.67    1.71
   6   1  -2   66.67    1.75
   6   1  -2   63.84    1.82
  -6  -1   2   67.89    1.81
   6  -1  -2   64.20    1.99
  -6   1   2   62.21    1.92
   6  -1  -1  364.82    5.74
   6   1  -1  366.58    4.92
  -6   1   1  386.01    5.77
  -6  -1   1  374.12    5.49
   6   1  -1  371.41    5.49
   6   1  -1  378.85    5.90
  -6  -1   1  373.00    5.85
   6  -1  -1  382.75    6.15
  -6   1   1  376.50    6.15
   6   1   0   30.55    0.70
   6  -1   0   30.75    1.18
  -6  -1   0   26.32    1.27
   6   1   0   32.21    1.07
  -6  -1   0   30.07    1.02
   6   1   0   28.74    1.32
  -6   1   0   27.91    1.35
   6  -1   0   28.67    1.35
   6  -1   1  130.36    2.63
  -6  -1  -1  123.06    2.27
  -6  -1  -1  122.43    2.87
   6   1   1  122.39    2.26
   6   1   1  125.12    2.93
  -6   1  -1  127.69    3.04
   6  -1   1  128.17    3.02
   6   1   2   18.01    0.70
   6   1   2   16.11    1.13
  -6  -1  -2   15.96    0.66
   6  -1   2   15.78    0.84
  -6  -1  -2   17.81    1.03
  -6   1  -2   15.45    1.02
   6  -1   2   15.67    1.08
   6   1   3  747.41    9.37
   6   1   3  761.13   10.87
   6  -1   3  749.61   10.07
  -6  -1  -3  740.78   10.72
  -6   1  -3  767.71   10.89
   6  -1   3  769.29   10.90
   6   1   4  296.00    5.44
  -6   1  -4  291.75    4.81
  -6  -1  -4  293.11    5.31
  -6   1  -4  294.35    5.39
   6  -1   4  289.65    5.37
   6   1   5  344.13    6.25
  -6   1  -5  348.85    5.56
  -6  -1  -5  346.73    6.15
  -6   1  -5  353.40    6.22
   6  -1   5  346.15    6.15
   6   1   6    4.74    0.79
  -6   1  -6    3.88    0.62
  -6   1  -6    3.90    0.53
  -6  -1  -6    3.32    0.61
   6  -1   6    3.44    0.62
   6   1   7    1.22    0.62
  -6   1  -7    1.76    0.54
  -6   1  -7    1.23    0.42
  -6  -1  -7    1.04    0.44
   6  -1   7    1.25    0.51
   6   1   8    4.67    0.75
  -6   1  -8    4.09    0.71
  -6   1  -8    3.79    0.55
  -6  -1  -8    3.46    0.67
   6  -1   8    4.62    0.75
  -6   1  -9   75.76    1.90
  -6   1  -9   77.36    2.62
   6   1   9   76.24    2.67
  -6   1  -9   75.63    2.25
  -6  -1  -9   75.30    2.67
   6  -1   9   75.11    2.55
   6   1  10    0.81    0.62
  -6   1 -10    0.24    0.42
  -6   1 -10    0.10    0.30
   6   1  10    0.33    0.31
   6  -1  10    0.42    0.43
  -6   1 -10    0.24    0.39
  -6  -1 -10    0.75    0.48
   6  -1  10    0.14    0.51
  -6   1 -11  341.11    5.32
  -6   1 -11  336.08    6.54
   6   1  11  327.08    6.73
   6  -1  11  332.27    6.02
   6   1  11  340.22    5.50
  -6   1 -11  338.38    6.09
  -6  -1 -11  344.59    6.84
   6  -1  11  335.72    6.55
   6   1  12   40.38    2.13
  -6   1 -12   41.67    1.97
  -6   1 -12   41.38    1.40
  -6   1 -12   39.61    1.76
   6   1  12   38.92    1.51
   6  -1  12   40.85    1.78
  -6  -1 -12   41.21    2.11
   6  -1  12   40.99    2.00
   6   1  13  455.29    8.54
  -6   1 -13  456.43    6.85
  -6   1 -13  455.30    8.22
   6   1  13  452.26    7.24
   6  -1  13  460.92    7.84
  -6  -1 -13  464.99    8.65
   6  -1  13  447.34    8.20
   6  -1  14   19.25    1.34
   6   1  14   21.07    1.20
   6   1  14   20.20    1.58
  -6   1 -14   18.96    0.98
  -6   1 -14   19.87    1.42
   6  -1  14   21.12    1.54
   6   1  15   82.59    2.55
   6  -1  15   83.76    2.85
  -6   1 -15   82.51    2.19
   6   1  15   82.35    3.17
  -6   1 -15   76.97    2.98
   6  -1  15   81.86    3.00
   6   1  16   88.71    2.75
   6  -1  16   92.09    3.07
  -6   1 -16   90.18    2.37
   6   1  16   91.32    3.42
  -6   1 -16   87.35    3.20
   6  -1  16   92.16    3.25
   6   1  17   52.71    2.16
   6  -1  17   55.07    2.40
   6   1  17   52.23    2.63
  -6   1 -17   53.68    2.46
   6  -1  17   54.99    2.54
   6   1  18   31.37    1.71
   6  -1  18   30.98    1.87
   6   1  18   31.13    2.08
   6  -1  18   30.46    1.96
   6   1  19  137.17    3.86
   6  -1  19  137.36    4.15
   6   1  19  134.97    4.51
   6  -1  19  142.07    4.35
   6   1  20    0.41    0.53
   6  -1  20    0.34    0.55
   6   1  20   -0.21    0.72
   6  -1  20    0.47    0.60
   6   1  21   11.07    1.18
   6  -1  21   10.33    1.25
   6   1  21   10.96    1.35
   6  -1  21   11.88    1.34
   6   1  22    0.43    0.55
   6  -1  22    0.34    0.61
   6   1  22   -0.15    0.64
   6  -1  22   -0.48    0.64
   6   1  23   16.75    1.49
   6  -1  23   19.16    1.71
   6   1  23   17.23    1.74
   6  -1  23   17.84    1.64
   6   1  24   13.81    1.40
   6  -1  24   12.80    1.48
   6   1  24   13.16    1.65
   6  -1  24   13.22    1.49
   6   1  25   90.61    3.56
   6  -1  25   89.48    3.76
   6   1  25   86.52    3.99
   6  -1  25   92.21    3.83
   6   1  26    1.90    0.76
   6  -1  26    1.83    0.94
   6   1  26    2.18    1.00
   6  -1  26    1.62    0.84
   6  -1  27   22.18    2.07
   6   1  27   26.47    2.02
   6  -1  27   23.22    2.00
   6   1  27   23.24    2.21
   6   1  28    0.19    0.68
   6  -1  28    1.51    0.93
   6   1  28    1.13    0.93
   6  -1  28    1.69    0.92
   6  -1  29   10.73    1.54
   6   1  29   10.41    1.62
   6  -1  29   10.98    1.49
   6   1  30    2.15    1.19
   6  -1  30    1.20    0.99
   6   1  31    1.89    0.95
   6  -1  31    2.47    1.02
  -6   2  34   12.68    1.77
  -6   2  33    7.69    1.46
  -6   2  32    2.18    0.95
  -6   2  31    2.70    1.07
  -6  -2  31    4.47    1.18
  -6   2  30    7.66    1.32
  -6  -2  30    8.10    1.54
  -6   2  29   12.62    1.59
  -6  -2  29   15.44    1.85
  -6   2  28   27.65    2.16
  -6  -2  28   28.33    2.44
  -6   2  27    2.48    0.90
  -6  -2  27    2.29    1.05
  -6   2  26   52.76    2.86
  -6  -2  26   56.88    2.43
  -6  -2  26   54.07    3.12
  -6   2  25   62.05    3.05
  -6  -2  25   60.19    2.47
  -6  -2  25   66.14    3.41
  -6   2  24    0.04    0.67
   6   2 -24    0.28    0.31
  -6  -2  24    0.62    0.48
  -6  -2  24    0.35    0.82
   6   2 -23   46.07    1.46
  -6   2  23   43.79    2.45
  -6  -2  23   46.53    2.07
  -6  -2  23   43.38    2.66
   6   2 -22   59.28    1.59
  -6   2  22   59.73    2.81
  -6  -2  22   55.03    2.23
  -6  -2  22   56.80    2.97
   6   2 -21   46.60    1.30
  -6   2  21   43.70    2.34
  -6  -2  21   44.11    2.55
  -6  -2  21   45.00    1.95
  -6   2  20   14.35    1.37
   6   2 -20   15.46    0.66
  -6  -2  20   14.99    1.52
  -6  -2  20   15.18    1.13
   6   2 -19   37.79    1.00
  -6   2  19   39.77    2.17
  -6  -2  19   39.13    1.76
  -6  -2  19   35.87    2.16
   6   2 -18    8.29    1.08
   6   2 -18    7.47    0.38
   6  -2 -18    8.79    1.08
  -6   2  18    8.44    1.07
  -6  -2  18    8.08    1.13
  -6  -2  17  228.48    5.48
   6   2 -17  218.05    5.41
   6  -2 -17  228.04    5.40
  -6   2  17  216.91    5.28
  -6  -2  17  210.29    5.40
   6   2 -16  129.40    3.93
  -6  -2  16  131.64    3.98
  -6  -2  16  135.66    4.08
   6  -2 -16  143.12    4.02
  -6   2  16  135.88    3.91
   6   2 -15    2.04    0.69
  -6  -2  15    3.75    0.80
  -6  -2  15    2.97    0.75
  -6   2  15    4.49    0.86
   6  -2 -15    2.82    0.65
  -6  -2  14   90.40    3.05
   6   2 -14   85.70    3.00
  -6  -2  14   83.47    2.97
   6  -2 -14   88.52    2.98
  -6   2  14   84.66    2.93
   6   2 -13    4.73    0.82
  -6  -2  13    5.34    0.87
  -6  -2  13    5.88    0.88
   6   2 -13    5.34    0.77
  -6   2  13    5.92    0.87
   6  -2 -13    6.43    0.87
  -6  -2  12   25.27    1.55
   6   2 -12   23.29    1.51
   6  -2 -12   24.08    1.50
  -6   2  12   22.91    1.48
   6   2 -12   26.91    1.32
   6   2 -12   24.12    1.52
  -6  -2  12   24.19    1.53
   6   2 -11  706.56   11.10
  -6  -2  11  718.73   11.16
   6   2 -11  712.95   10.34
   6   2 -11  707.35   11.04
  -6  -2  11  710.08   11.02
   6  -2 -11  737.02   11.21
  -6   2  11  706.25   11.05
   6   2 -10  115.90    3.28
  -6  -2  10  116.17    3.29
   6   2 -10  114.89    2.88
   6   2 -10  115.11    3.19
  -6  -2  10  112.80    3.17
  -6   2  10  118.02    3.31
   6  -2 -10  113.95    3.27
   6   2 -10  113.01    1.85
  -6  -2   9   24.26    1.43
   6   2  -9   23.11    1.43
   6   2  -9   24.50    0.78
   6   2  -9   23.31    1.33
  -6  -2   9   24.29    1.38
   6   2  -9   23.51    1.23
  -6   2   9   23.24    1.40
   6  -2  -9   23.83    1.43
  -6  -2   8   18.01    1.24
   6   2  -8   16.97    0.71
   6   2  -8   16.98    1.19
   6   2  -8   16.67    1.04
   6   2  -8   14.98    1.05
  -6  -2   8   18.28    1.16
  -6   2   8   17.78    1.26
   6  -2  -8   18.55    1.22
   6   2  -7    6.05    0.49
  -6  -2   7    6.44    0.77
   6   2  -7    6.56    0.83
   6   2  -7    5.78    0.67
  -6  -2   7    6.43    0.76
  -6  -2   7    6.10    0.33
  -6   2   7    6.36    0.88
   6  -2  -7    6.71    0.84
  -6  -2   6   49.49    1.90
   6   2  -6   50.90    1.95
   6   2  -6   51.65    1.47
   6   2  -6   48.49    1.75
  -6  -2   6   49.39    1.79
  -6  -2   6   49.16    1.15
  -6   2   6   54.92    2.07
   6  -2  -6   52.20    2.05
  -6  -2   5   82.46    2.45
   6   2  -5   81.96    2.47
   6   2  -5   82.10    2.01
   6   2  -5   82.53    2.24
  -6  -2   5   84.41    2.30
  -6  -2   5   82.76    1.71
  -6   2   5   76.38    2.49
  -6   2   5   76.52    2.46
   6  -2  -5   78.61    2.55
   6   2  -4   78.41    2.36
   6   2  -4   80.01    2.07
  -6  -2   4   79.67    2.35
   6   2  -4   77.53    2.13
  -6   2   4   77.55    2.50
  -6  -2   4   79.02    1.78
  -6   2   4   80.96    2.52
   6  -2  -4   82.57    2.54
   6   2  -3  314.08    5.50
   6   2  -3  318.37    5.24
   6   2  -3  307.22    5.14
  -6  -2   3  306.48    5.46
  -6  -2   3  309.54    4.84
  -6   2   3  328.59    5.92
  -6   2   3  334.52    5.93
   6   2  -2  301.77    5.16
   6   2  -2  297.43    5.21
   6   2  -2  298.22    4.87
  -6  -2   2  297.38    4.80
  -6   2   2  295.96    5.58
  -6   2   2  295.90    5.59
   6   2  -1 1508.07   19.18
   6   2  -1 1500.13   19.01
  -6   2   1 1448.97   18.72
   6   2  -1 1478.86   18.56
  -6  -2   1 1488.04   18.79
  -6   2   1 1482.87   19.66
  -6   2   1 1470.35   19.61
   6   2   0   13.46    1.16
   6   2   0    7.32    0.74
   6   2   0    6.28    0.57
  -6   2   0    5.81    0.57
  -6  -2   0    7.79    0.82
  -6   2   0    9.36    0.93
  -6   2   0    8.02    0.97
   6   2   1  395.80    6.78
   6   2   1  402.67    6.24
  -6   2  -1  399.59    6.06
  -6  -2  -1  413.48    6.55
  -6   2  -1  409.66    6.99
   6  -2   1  406.55    6.98
  -6   2  -1  410.66    7.00
   6   2   2  653.10    9.81
   6   2   2  649.40    8.98
  -6   2  -2  623.92    8.72
  -6  -2  -2  646.17    9.55
   6  -2   2  639.37    9.86
  -6   2  -2  652.78    9.96
   6   2   3   63.06    2.31
   6   2   3   60.34    1.72
  -6  -2  -3   64.58    2.17
   6  -2   3   67.64    2.31
  -6   2  -3   69.29    2.37
   6   2   4  275.50    5.43
   6   2   4  268.21    4.39
  -6  -2  -4  275.98    5.28
  -6   2  -4  265.10    5.35
   6  -2   4  262.68    5.29
   6   2   5  420.01    6.11
   6   2   5  418.15    7.41
  -6   2  -5  417.84    7.15
  -6  -2  -5  423.56    7.27
  -6   2  -5  414.96    7.30
   6  -2   5  415.97    7.28
   6   2   6   17.75    0.83
   6   2   6   16.92    1.29
  -6   2  -6   15.64    1.14
  -6  -2  -6   17.95    1.26
   6  -2   6   15.86    1.19
  -6   2  -6   16.22    1.17
   6   2   7   49.40    1.37
   6   2   7   50.44    2.18
  -6   2  -7   46.40    1.96
  -6  -2  -7   53.73    2.17
   6  -2   7   47.07    2.02
  -6   2  -7   48.19    2.03
   6   2   8    0.75    0.56
  -6   2  -8    0.52    0.43
  -6   2  -8    0.18    0.45
   6  -2   8    0.69    0.24
   6   2   8    1.01    0.33
  -6  -2  -8    1.37    0.59
   6  -2   8    0.81    0.55
   6   2   9    6.84    1.00
  -6   2  -9    4.95    0.77
  -6   2  -9    6.73    0.85
   6  -2   9    5.52    0.42
  -6  -2  -9    5.11    0.79
   6  -2   9    5.48    0.85
  -6   2 -10  219.33    4.52
   6   2  10  219.57    5.29
  -6   2 -10  228.34    5.01
   6  -2  10  214.92    3.44
  -6  -2 -10  227.20    5.33
   6  -2  10  218.04    4.94
  -6   2 -10  224.02    5.04
  -6   2 -11   91.26    2.68
   6   2  11   88.56    3.27
  -6   2 -11   96.84    3.10
   6  -2  11   93.09    1.89
  -6  -2 -11   92.57    3.27
   6  -2  11   92.38    3.04
  -6   2 -11   95.28    3.12
  -6   2 -12  176.62    4.46
  -6   2 -12  167.79    3.91
  -6   2 -12  170.07    4.42
   6   2  12  177.91    4.81
   6  -2  12  166.70    4.34
  -6   2 -13  181.16    4.61
  -6   2 -13  179.32    4.07
  -6   2 -13  177.70    4.59
   6   2  13  179.49    4.99
   6  -2  13  178.61    4.54
  -6   2 -14   34.12    1.92
  -6   2 -14   31.67    1.58
  -6   2 -14   29.27    1.78
   6   2  14   33.80    2.13
   6  -2  14   29.47    1.76
  -6   2 -15    0.47    0.50
   6   2  15    0.28    0.64
  -6   2 -15   -0.01    0.48
  -6   2 -15    1.19    0.52
   6  -2  15    1.80    0.65
   6   2  16   90.07    1.71
  -6   2 -16   87.06    3.19
   6   2  16   90.65    3.61
  -6   2 -16   90.39    2.83
   6  -2  16   87.08    3.14
  -6   2 -17    2.01    0.61
   6   2  17    2.43    0.84
  -6   2 -17    2.49    0.63
   6   2  17    2.47    0.29
   6  -2  17    3.27    0.76
   6  -2  18   50.86    2.58
  -6   2 -18   46.58    2.41
  -6   2 -18   48.91    2.10
   6   2  18   52.11    2.81
   6   2  18   50.77    1.13
   6  -2  18   48.26    2.40
   6  -2  19   93.02    3.59
   6   2  19   83.87    1.57
  -6   2 -19   97.62    3.01
   6   2  19   97.97    3.95
   6  -2  19   91.64    3.38
   6  -2  20    0.54    0.63
   6   2  20    0.25    0.50
   6   2  20    1.14    0.85
  -6   2 -20    0.57    0.50
   6  -2  20    0.74    0.59
   6  -2  21    0.30    0.65
   6   2  21    1.84    0.72
   6   2  21    0.44    0.72
  -6   2 -21    0.90    0.51
   6  -2  21    1.23    0.69
   6   2  22   25.89    1.77
   6  -2  22   25.48    2.03
  -6   2 -22   28.41    1.68
   6   2  22   22.40    2.00
   6  -2  22   28.54    1.96
   6  -2  23    6.62    1.21
   6   2  23    7.24    1.06
   6   2  23    8.46    1.40
   6  -2  23    5.72    1.03
   6  -2  24   52.53    2.98
   6   2  24   53.97    2.70
   6   2  24   53.01    3.21
   6  -2  24   50.52    2.69
   6  -2  25    2.91    1.04
   6   2  25    2.29    0.74
   6   2  25    1.70    0.93
   6  -2  25    3.34    0.90
   6   2  26   23.05    1.85
   6  -2  26   17.47    1.92
   6   2  26   19.22    2.07
   6  -2  26   18.75    1.72
   6  -2  27   13.48    1.71
   6   2  27   12.33    1.68
   6  -2  27   13.68    1.51
   6   2  28    2.93    0.95
   6  -2  28    1.73    1.04
   6   2  29    5.21    1.47
   6  -2  29    2.45    1.02
   6  -2  30   30.19    2.58
  -6   3  32    1.70    1.07
  -6   3  31   -0.97    0.89
  -6   3  30    8.35    1.50
  -6  -3  30    6.19    1.62
  -6   3  29   14.58    1.81
  -6  -3  29   14.18    1.91
  -6   3  28    9.99    1.56
  -6  -3  28   12.89    1.72
  -6   3  27   43.01    2.87
  -6  -3  27   43.38    3.04
  -6   3  26    3.18    1.09
  -6  -3  26    3.21    1.08
  -6   3  25    2.85    0.90
  -6  -3  25    4.16    1.12
   6   3 -24    6.69    1.24
  -6   3  24    7.36    1.29
  -6  -3  24    7.45    1.41
   6   3 -23    6.95    1.21
  -6   3  23    5.50    1.10
  -6  -3  23    5.92    1.21
   6   3 -22   59.32    3.12
  -6   3  22   61.00    3.09
  -6  -3  22   65.55    3.35
   6   3 -21   88.30    3.72
  -6   3  21   86.51    3.64
  -6  -3  21   93.56    3.91
   6   3 -20   64.98    3.10
  -6   3  20   56.27    2.91
  -6  -3  20   62.07    3.12
  -6   3  19    0.11    0.69
  -6  -3  19   -0.38    0.71
   6   3 -18    1.34    0.82
  -6   3  18    1.70    0.73
  -6  -3  18    2.06    0.79
   6   3 -17    8.17    1.17
  -6   3  17    6.66    1.10
  -6  -3  17    8.62    1.19
   6   3 -16    0.47    0.67
  -6   3  16    0.24    0.70
  -6  -3  16   -0.10    0.64
   6   3 -15   46.18    2.43
  -6   3  15   46.27    2.40
  -6  -3  15   48.63    2.49
   6   3 -14  258.81    6.13
   6   3 -14  260.72    5.02
   6   3 -14  267.84    6.22
  -6  -3  14  262.80    6.15
  -6   3  14  259.67    6.14
   6   3 -13  302.37    6.57
   6   3 -13  291.59    3.98
  -6  -3  13  297.04    6.50
   6   3 -13  297.59    5.43
   6   3 -13  309.35    6.59
  -6   3  13  283.99    6.43
   6   3 -13  285.13    3.98
   6   3 -12  414.97    8.00
   6   3 -12  395.66    5.56
  -6  -3  12  407.83    7.86
   6   3 -12  422.36    7.98
   6   3 -12  413.62    6.88
   6  -3 -12  417.26    8.08
  -6   3  12  387.39    7.82
   6   3 -12  402.34    5.59
   6   3 -11  144.87    4.17
   6   3 -11  138.72    3.37
   6   3 -11  145.87    4.07
  -6  -3  11  147.11    4.10
   6  -3 -11  140.22    4.14
  -6   3  11  130.41    3.98
   6   3 -10   28.34    1.82
   6   3 -10   27.79    1.43
   6   3 -10   28.48    1.73
  -6  -3  10   29.52    1.73
  -6   3  10   30.92    1.87
   6  -3 -10   33.61    1.96
   6   3  -9   37.25    2.00
   6   3  -9   38.26    1.93
  -6   3   9   33.40    1.89
   6  -3  -9   40.27    2.09
   6   3  -8   10.13    1.12
   6   3  -8    9.20    1.00
  -6   3   8   13.20    1.30
  -6  -3   8    9.36    0.51
   6  -3  -8   10.93    1.14
   6   3  -7  370.76    7.09
   6   3  -7  375.25    6.91
   6   3  -7  365.15    5.28
  -6   3   7  369.17    7.19
  -6  -3   7  363.98    5.30
   6  -3  -7  393.74    7.34
   6   3  -6  200.62    4.69
   6   3  -6  196.72    4.48
   6   3  -6  195.85    3.40
  -6  -3   6  189.56    3.38
  -6   3   6  199.35    4.80
   6  -3  -6  210.02    4.92
   6   3  -5  203.37    4.69
   6   3  -5  203.92    4.49
  -6   3   5  189.28    4.71
  -6  -3   5  195.84    3.59
   6   3  -5  205.92    3.63
   6  -3  -5  211.71    4.93
   6   3  -4  114.24    3.31
   6   3  -4  121.04    3.23
  -6   3   4  116.37    3.49
   6   3  -4  119.26    2.65
  -6  -3   4  116.06    2.61
   6  -3  -4  121.98    3.58
  -6   3   4  122.64    3.56
   6   3  -3   59.91    2.27
   6   3  -3   57.95    2.11
  -6   3   3   58.92    2.39
   6   3  -3   59.76    1.84
  -6  -3   3   57.04    1.79
  -6   3   3   56.99    2.36
   6   3  -2   31.42    1.64
   6   3  -2   28.96    1.47
   6   3  -2   34.71    1.44
  -6  -3   2   30.56    1.35
  -6   3   2   28.96    1.68
  -6   3   2   29.89    1.71
   6   3  -1  268.48    5.33
   6   3  -1  255.61    5.00
   6   3  -1  265.09    4.92
  -6  -3   1  260.64    4.90
  -6   3   1  263.80    5.63
  -6   3   1  270.35    5.69
   6   3   0  295.98    5.63
   6   3   0  283.28    5.33
  -6  -3   0  285.53    5.37
   6   3   0  288.03    5.38
  -6   3   0  309.78    6.17
  -6   3   0  298.20    6.02
   6   3   1   66.82    2.28
  -6   3  -1   62.85    1.85
  -6  -3  -1   65.89    2.24
   6   3   1   72.68    2.35
  -6   3  -1   68.04    2.54
  -6   3  -1   69.99    2.62
   6   3   2  178.36    3.99
  -6   3  -2  170.07    3.32
  -6  -3  -2  181.21    4.12
   6   3   2  181.42    4.13
  -6   3  -2  183.14    4.45
  -6   3  -2  184.77    4.52
   6   3   3  745.85   10.75
  -6   3  -3  688.85    9.67
  -6  -3  -3  746.45   11.19
   6   3   3  732.40   11.10
  -6   3  -3  718.40   11.36
  -6   3  -3  740.37   11.55
  -6   3  -4    1.44    0.34
   6   3   4    1.55    0.62
  -6  -3  -4    1.80    0.71
   6   3   4    1.62    0.89
  -6   3  -4    0.88    0.52
  -6   3  -4    1.21    0.76
  -6   3  -5    1.54    0.56
   6   3   5    3.20    0.61
  -6  -3  -5    3.10    0.70
   6   3   5    4.34    0.85
  -6   3  -5    1.19    0.65
  -6   3  -5    2.56    0.59
  -6   3  -6    8.66    1.04
  -6  -3  -6    8.93    1.01
   6   3   6    7.33    0.96
  -6   3  -6    8.55    0.99
  -6   3  -6    7.44    0.94
  -6   3  -7    9.32    1.06
  -6  -3  -7    7.00    0.95
   6   3   7    7.46    0.99
  -6   3  -7    8.92    1.01
  -6   3  -8   17.62    1.43
  -6  -3  -8   16.16    1.37
   6   3   8   14.88    1.39
  -6   3  -8   18.41    1.37
   6  -3   8   15.64    1.28
  -6   3  -9  276.76    6.24
   6   3   9  270.27    6.13
   6  -3   9  265.23    5.83
  -6   3  -9  269.33    5.94
  -6   3 -10  191.05    5.02
   6   3  10  177.78    4.91
   6  -3  10  181.69    4.64
  -6   3 -10  177.28    4.64
  -6   3 -11   16.92    1.40
   6   3  11   18.87    1.64
   6  -3  11   16.01    1.34
  -6   3 -11   13.99    1.28
  -6   3 -12    5.91    0.88
  -6   3 -12    8.15    1.03
   6   3  12    5.79    1.06
   6  -3  12    6.91    0.96
   6   3  13   50.63    2.69
  -6   3 -13   50.90    2.35
   6   3  13   51.24    2.65
  -6   3 -13   48.97    2.36
   6  -3  13   50.80    2.34
   6   3  14    6.49    1.13
  -6   3 -14    4.70    0.82
  -6   3 -14    4.79    0.87
   6  -3  14    5.69    0.96
  -6   3 -15  106.95    3.53
   6   3  15  109.09    4.16
  -6   3 -15  112.08    3.74
   6  -3  15  110.26    3.64
  -6   3 -16  162.74    4.54
  -6   3 -16  170.40    4.76
   6   3  16  165.08    5.32
   6  -3  16  173.47    4.73
  -6   3 -17   21.75    1.60
   6   3  17   22.20    1.98
   6  -3  17   21.63    1.63
   6   3  18    4.73    1.06
  -6   3 -18    5.47    0.96
   6  -3  18    4.96    0.91
  -6   3 -19    6.04    0.99
   6   3  19    3.63    1.09
   6  -3  19    2.61    0.72
   6   3  20    2.21    0.95
  -6   3 -20    3.58    0.88
   6  -3  20    1.69    0.69
  -6   3 -21   36.60    2.15
   6   3  21   32.23    2.51
   6  -3  21   33.02    2.10
   6   3  22    6.61    1.38
  -6   3 -22    5.82    1.02
   6  -3  22    5.84    0.96
  -6   3 -23   24.28    1.80
   6   3  23   28.17    2.46
   6  -3  23   27.09    1.96
   6   3  24   11.21    1.63
   6  -3  24   12.53    1.41
   6   3  25    4.33    1.21
   6   3  26   12.24    1.80
  -6   4  28    0.51    0.89
   6   4 -27    8.21    1.51
  -6   4  27    5.64    1.33
  -6  -4  27    7.37    1.73
   6   4 -26   11.69    1.69
  -6   4  26   10.82    1.74
  -6  -4  26   14.17    1.92
   6   4 -25   14.49    1.78
  -6   4  25   15.03    1.85
  -6  -4  25   12.99    1.78
   6   4 -24    5.76    1.32
  -6   4  24    8.24    1.55
  -6  -4  24    5.70    1.47
   6   4 -23  115.23    4.68
  -6   4  23  112.01    4.65
  -6  -4  23  122.08    5.01
   6   4 -22    2.36    0.99
  -6   4  22    1.93    0.94
  -6  -4  22    2.99    1.17
   6   4 -21    4.84    1.16
  -6   4  21    3.25    1.07
  -6  -4  21    5.98    1.27
   6   4 -20    6.82    1.23
  -6   4  20    9.25    1.44
  -6  -4  20    7.99    1.32
   6   4 -19   13.94    1.67
  -6   4  19   12.10    1.54
  -6  -4  19   13.55    1.64
   6   4 -18    7.08    1.25
  -6   4  18    7.65    1.30
   6   4 -17   55.55    2.98
  -6   4  17   56.48    2.97
   6   4 -16   24.47    0.72
   6   4 -16   28.99    2.13
  -6   4  16   25.67    2.01
   6   4 -16   22.59    0.72
   6   4 -15  127.03    4.44
   6   4 -15  130.34    3.26
  -6   4  15  129.47    4.51
   6   4 -15  116.12    2.31
   6   4 -14   34.22    2.28
   6   4 -14   32.12    1.56
  -6   4  14   37.35    2.38
   6   4 -14   32.23    1.18
   6   4 -13    3.12    0.97
   6   4 -13    2.01    0.56
  -6   4  13    4.46    1.08
   6   4 -12  175.40    5.13
  -6   4  12  169.64    5.06
   6   4 -12  166.92    3.95
   6   4 -11   51.83    2.68
   6   4 -11   52.43    1.25
  -6   4  11   53.04    2.71
   6   4 -11   53.92    2.08
   6   4 -10   19.69    1.67
   6   4 -10   20.92    0.83
  -6   4  10   16.00    1.55
   6   4  -9   88.43    3.43
   6   4  -9   91.93    2.07
  -6   4   9   84.83    3.37
   6   4  -8   14.88    1.49
   6   4  -8   14.07    1.32
   6   4  -8   14.59    0.81
  -6   4   8   10.21    1.23
  -6  -4   8   11.96    0.76
   6   4  -7    2.93    0.86
   6   4  -7    2.27    0.70
  -6   4   7    1.24    0.64
   6   4  -7    2.15    0.42
  -6  -4   7    2.26    0.44
   6   4  -6    0.31    0.62
   6   4  -6   -0.41    0.51
  -6   4   6    1.10    0.67
   6   4  -6   -0.20    0.33
  -6  -4   6   -0.31    0.36
   6   4  -5   13.22    1.39
  -6   4   5   10.61    1.25
  -6  -4   5   11.44    0.88
   6   4  -5   13.96    0.97
   6   4  -5   12.56    1.27
   6   4  -4  182.82    4.87
   6   4  -4  187.21    3.94
  -6   4   4  187.07    5.01
  -6  -4   4  175.81    3.90
   6   4  -4  183.12    4.71
   6   4  -3   54.77    2.52
   6   4  -3   54.52    1.99
  -6  -4   3   50.30    1.94
  -6   4   3   58.90    2.68
   6   4  -3   53.50    2.37
   6   4  -2  267.48    5.96
  -6   4   2  249.93    5.99
  -6  -4   2  257.41    5.20
   6   4  -2  265.29    5.21
   6   4  -2  258.90    5.71
   6   4  -1  179.15    4.67
   6   4  -1  178.59    4.50
  -6  -4   1  172.62    4.14
  -6   4   1  182.05    4.87
   6   4  -1  175.95    4.15
   6   4   0   14.17    1.32
   6   4   0   12.63    1.17
   6   4   0   15.06    1.21
  -6  -4   0   13.65    1.13
  -6   4   0   10.86    1.21
   6   4   1    6.06    0.97
  -6  -4  -1    5.58    0.82
   6   4   1    5.13    0.85
  -6   4  -1    4.39    0.92
   6   4   2  106.49    3.40
  -6   4  -2  108.53    3.63
  -6  -4  -2  110.08    3.36
   6   4   2  107.29    3.32
  -6   4  -2  115.27    3.79
  -6   4  -3    1.07    0.33
   6   4   3    2.80    0.79
  -6  -4  -3    1.33    0.61
   6   4   3    1.25    0.70
  -6   4  -3    2.44    0.78
  -6   4  -3    1.42    0.63
   6   4   4  221.98    5.06
  -6   4  -4  202.56    3.73
  -6  -4  -4  226.17    5.31
   6   4   4  219.05    5.23
  -6   4  -4  222.47    5.51
  -6   4  -4  217.29    5.36
  -6   4  -5   55.06    1.47
   6   4   5   54.91    2.51
  -6  -4  -5   57.96    2.58
  -6   4  -5   59.90    2.63
  -6   4  -5   60.75    2.70
   6   4   6   72.14    2.90
  -6   4  -6   68.74    2.89
  -6   4  -6   64.20    2.78
   6   4   7   16.62    1.53
  -6   4  -7   16.94    1.46
   6   4   8    8.02    1.12
  -6   4  -8    8.95    1.11
   6   4   9    3.88    0.95
  -6   4  -9    3.42    0.86
   6   4  10  144.94    4.64
  -6   4 -10  151.12    4.43
  -6   4 -11   17.05    1.63
   6   4  11   17.10    1.65
  -6   4 -11   16.76    1.51
  -6   4 -12   74.17    3.20
   6   4  12   76.32    3.44
  -6   4 -12   75.86    3.12
  -6   4 -13   38.94    2.35
   6   4  13   41.91    2.56
  -6   4 -13   39.54    2.23
  -6   4 -14   24.00    1.89
   6   4  14   24.95    2.07
  -6   4 -14   21.92    1.68
  -6   4 -15   27.13    2.04
   6   4  15   30.68    2.33
  -6   4 -16   11.34    1.41
   6   4  16    9.90    1.52
   6   4  17    0.05    0.80
  -6   4 -17   -0.13    0.76
  -6   4 -18   48.28    2.70
   6   4  18   50.25    3.20
  -6   4 -19   21.03    1.85
   6   4  19   21.72    2.16
   6   4  20   26.78    2.37
  -6   4 -20   22.14    1.94
   6   4  21    8.80    1.50
  -6   4 -21    8.82    1.35
  -6   4 -22    5.23    1.22
   6   4  22    5.93    1.39
  -6   4 -23   14.82    1.63
   6   5 -24   21.14    2.28
   6   5 -23    0.72    1.01
  -6   5  23    0.98    0.89
   6   5 -22   10.04    1.64
  -6   5  22   11.22    1.64
   6   5 -21   23.48    2.30
  -6   5  21   23.03    2.25
   6   5 -20    2.14    1.01
  -6   5  20    0.62    0.94
   6   5 -19    0.32    0.90
  -6   5  19    0.11    0.88
   6   5 -18    1.86    0.92
  -6   5  18   -0.50    0.94
   6   5 -17    2.15    0.96
  -6   5  17    0.58    0.92
   6   5 -16   45.95    2.99
  -6   5  16   49.24    3.02
   6   5 -15   41.10    2.82
  -6   5  15   40.25    2.80
   6   5 -15   40.58    1.79
   6   5 -14   97.55    4.22
  -6   5  14   94.40    4.11
   6   5 -14   98.10    2.96
   6   5 -13    3.36    1.04
  -6   5  13    2.11    1.02
   6   5 -13    3.43    0.67
   6   5 -12    3.17    1.06
  -6   5  12    1.62    0.83
   6   5 -12    3.20    0.39
   6   5 -12    3.14    0.63
   6   5 -11   24.88    2.14
  -6   5  11   24.98    2.17
   6   5 -11   25.89    1.11
   6   5 -10  302.00    7.56
   6   5 -10  305.59    5.16
  -6   5  10  293.14    7.45
   6   5  -9    3.52    1.14
  -6   5   9    2.14    0.98
   6   5  -9    3.94    0.60
   6   5  -8   30.50    2.23
   6   5  -8   33.19    1.45
  -6   5   8   29.84    2.21
  -6  -5   8   29.84    1.43
   6   5  -7    7.67    1.24
  -6   5   7    5.09    1.06
   6   5  -7    7.32    0.77
  -6  -5   7    5.76    0.72
   6   5  -6   45.45    2.63
   6   5  -6   43.93    1.81
  -6   5   6   42.43    2.54
  -6  -5   6   38.78    1.76
   6   5  -5   31.78    2.24
  -6   5   5   30.65    2.21
   6   5  -5   34.80    1.69
  -6  -5   5   32.50    1.69
   6   5  -4  220.72    5.97
  -6  -5   4  206.38    4.79
  -6   5   4  211.02    5.86
   6   5  -4  220.52    4.80
   6   5  -3    1.02    0.89
  -6   5   3    2.31    0.99
   6   5  -3    2.10    0.74
  -6  -5   3    0.83    0.56
   6   5  -2  151.13    4.74
  -6  -5   2  140.84    3.99
  -6   5   2  145.22    4.69
   6   5  -2  148.08    3.98
   6   5  -1   88.61    3.57
  -6  -5   1   85.99    3.08
  -6   5   1   84.02    3.49
   6   5  -1   90.76    3.11
   6   5   0  165.84    4.95
   6   5   0  164.08    4.43
  -6  -5   0  162.84    4.50
  -6   5   0  166.37    4.99
   6   5   1   61.05    2.92
   6   5   1   59.60    2.62
  -6  -5  -1   53.65    2.52
  -6   5  -1   50.18    2.71
   6   5   2  166.16    4.91
  -6   5  -2  174.66    5.09
   6   5   2  170.09    4.72
   6   5   3    2.64    0.94
   6   5   3    3.13    0.93
  -6   5  -3    1.47    0.87
   6   5   4  168.87    4.82
  -6   5  -4  152.14    3.25
  -6   5  -4  164.83    4.89
   6   5   4  161.74    4.71
   6   5   5    5.65    1.10
   6   5   5    6.93    1.15
  -6   5  -5    3.74    0.99
   6   5   6   62.70    2.83
  -6   5  -6   58.92    2.87
   6   5   6   58.59    2.87
   6   5   7   35.73    2.29
  -6   5  -7   40.30    2.36
   6   5   8    6.77    1.22
  -6   5  -8   10.30    1.31
   6   5   9  107.40    4.15
  -6   5  -9  100.17    3.80
   6   5  10  151.80    5.09
  -6   5 -10  154.26    4.78
  -6   5 -11    1.68    1.00
   6   5  11    3.03    1.02
  -6   5 -11    4.19    0.98
  -6   5 -12  102.13    4.22
   6   5  12  107.21    4.37
  -6   5 -12  109.28    3.97
  -6   5 -13    1.61    0.92
   6   5  13    2.62    1.02
  -6   5 -13    3.32    0.96
  -6   5 -14    0.66    0.97
   6   5  14    1.23    0.84
  -6   5 -14    0.97    0.75
  -6   5 -15   52.99    3.13
   6   5  15   58.31    3.36
  -6   5 -15   55.18    2.86
  -6   5 -16   69.11    3.58
   6   5  16   73.01    3.83
  -6   5 -16   73.55    3.30
  -6   5 -17   27.85    2.33
   6   5  17   37.19    2.85
  -6   5 -17   30.68    2.15
  -6   5 -18   24.09    2.17
   6   5  18   25.29    2.46
  -6   5 -18   26.17    2.02
  -6   5 -19    1.30    0.79
  -6   5 -19    2.49    0.88
  -6   5 -20   19.16    2.04
  -6   5 -21    1.86    1.00
  -6   5 -22    2.01    1.16
  -6   5 -23   31.61    2.60
   6   6 -17   27.21    2.56
  -6   6  17   24.38    2.43
   6   6 -16   -0.23    0.93
  -6   6  16    1.39    1.05
   6   6 -15   11.97    1.76
  -6   6  15   11.34    1.76
   6   6 -14    7.14    1.47
  -6   6  14    9.40    1.59
   6   6 -13  106.63    4.80
  -6   6  13  104.79    4.64
   6   6 -12    1.33    0.98
  -6   6  12    2.27    1.10
   6   6 -11   37.12    2.79
  -6   6  11   34.90    2.61
   6   6 -10    1.00    0.92
  -6   6  10    1.87    0.91
   6   6  -9   38.76    2.80
  -6   6   9   40.06    2.77
   6   6  -8    1.08    1.01
  -6   6   8   -0.10    0.82
   6   6  -7   99.43    4.36
   6   6  -7  100.51    3.09
  -6   6   7   92.52    4.14
   6   6  -6    0.48    0.88
  -6   6   6   -0.55    0.86
   6   6  -5   18.12    1.92
   6   6  -5   18.34    1.37
  -6   6   5   16.18    1.75
   6   6  -4    7.15    1.31
  -6   6   4    8.68    1.41
   6   6  -4   10.02    1.13
   6   6  -3   62.88    3.33
   6   6  -3   61.30    2.66
  -6   6   3   62.79    3.29
   6   6  -2   15.69    1.78
   6   6  -2   15.72    1.45
  -6   6   2   16.72    1.78
   6   6  -1   88.16    3.89
  -6   6   1   84.77    3.79
   6   6  -1   83.35    3.25
   6   6   0    8.65    1.42
  -6   6   0    9.37    1.47
   6   6   0   12.28    1.43
   6   6   1  144.55    5.04
  -6   6  -1  144.72    4.99
   6   6   1  135.23    4.43
   6   6   2   18.95    1.94
  -6   6  -2   19.01    1.89
   6   6   2   18.28    1.68
   6   6   3   58.99    3.13
  -6   6  -3   53.50    2.95
   6   6   3   54.77    2.86
   6   6   4    1.15    0.80
  -6   6  -4    0.25    0.80
   6   6   4    2.11    1.01
   6   6   5    5.18    1.12
  -6   6  -5    5.80    1.13
   6   6   5    5.92    1.15
   6   6   6   22.45    1.96
   6   6   6   21.06    1.98
  -6   6  -6   17.76    1.80
   6   6   7   73.68    3.39
   6   6   7   66.44    3.36
  -6   6  -7   73.60    3.42
   6   6   8    3.53    1.04
   6   6   8    4.31    1.19
  -6   6  -8    3.92    1.37
   6   6   9   27.49    2.13
  -6   6  -9   26.02    2.10
   6   6   9   29.25    2.38
  -6   6 -10    6.54    1.43
   6   6  10    7.81    1.35
   6   6  10    5.29    1.26
  -6   6 -10    5.72    1.16
   6   6  11   22.48    1.90
  -6   6 -11   21.48    2.16
  -6   6 -11   21.73    1.93
   6   6  11   20.25    2.06
   6   6  12    3.00    0.99
  -6   6 -12    2.03    1.08
   6   6  12    4.31    1.24
  -6   6 -12    3.97    1.12
  -6   6 -13   21.76    2.24
   6   6  13   18.16    2.03
  -6   6 -13   20.20    1.85
  -6   6 -14   10.08    1.63
   6   6  14   10.32    1.69
  -6   6 -14    8.46    1.32
  -6   6 -15   52.43    3.38
  -6   6 -16    1.49    1.00
  -6   7   9    4.74    1.31
  -6   7   8   10.04    1.58
  -6   7   7    1.89    1.07
   6   7  -6    1.91    1.10
  -6   7   6    1.48    0.96
   6   7  -5    5.30    1.32
  -6   7   5    3.52    1.14
   6   7  -4    8.00    1.45
  -6   7   4   11.10    1.66
   6   7  -3    2.52    1.16
  -6   7   3    2.08    1.09
   6   7  -2   22.63    2.19
  -6   7   2   25.04    2.25
   6   7  -1    3.62    1.16
  -6   7   1   -0.38    0.76
   6   7   0   22.75    2.22
  -6   7   0   16.32    1.87
   6   7   0   16.19    1.63
   6   7   1    2.36    1.12
  -6   7  -1    3.72    1.18
   6   7   1    0.36    0.78
   6   7   2    6.77    1.30
  -6   7  -2    6.66    1.30
   6   7   2    6.12    1.14
   6   7   3    1.20    0.92
   6   7   3    0.25    0.87
  -6   7  -3   -0.69    0.84
   6   7   4   10.30    1.46
  -6   7  -4   11.82    1.63
   6   7   4   10.93    1.63
  -6   7  -5    4.89    1.16
   6   7   5    5.27    1.22
   6   7   5    3.27    1.22
  -6   7  -6   16.53    1.88
   6   7   6   17.40    1.90
   6   7   6   19.60    2.09
  -6   7  -7    2.15    0.94
   6   7   7    2.84    1.06
   6   7   7    2.66    1.09
  -6   7  -8    5.51    1.20
   6   7   8    4.20    1.20
   6   7   8    7.40    1.50
   6   7   9   -0.33    0.90
   6   7   9    0.19    0.99
   6   7  10    1.30    1.02
  -7   0  33   44.71    3.26
  -7   0  32    1.92    1.08
  -7   0  31    2.68    1.08
  -7   0  30   -0.01    0.84
  -7   0  29   48.94    1.99
  -7   0  29   49.00    3.10
  -7   0  28    0.65    0.52
  -7   0  28    0.61    0.84
  -7   0  27  180.31    4.04
  -7   0  27  177.57    4.71
   7   0 -27  173.05    4.65
  -7   0  27  173.63    5.72
  -7   0  26    2.07    0.56
   7   0 -26    2.22    0.67
  -7   0  26    2.38    0.75
  -7   0  26    3.78    1.23
  -7   0  25  151.50    3.52
  -7   0  25  151.03    4.12
   7   0 -25  151.43    4.11
  -7   0  25  151.85    5.13
  -7   0  24    2.51    0.70
   7   0 -24    2.27    0.67
  -7   0  24    1.97    1.06
  -7   0  23    2.86    0.68
   7   0 -23    3.23    0.64
  -7   0  23    2.72    0.95
  -7   0  22    0.44    0.47
   7   0 -22    0.41    0.44
   7   0 -21    9.09    0.88
  -7   0  21    9.71    0.96
  -7   0  20    6.21    1.08
   7   0 -20    3.28    0.65
  -7   0  20    3.16    0.74
  -7   0  19  663.71   11.09
  -7   0  19  646.07    9.85
   7   0 -19  645.41    9.87
  -7   0  18    2.86    0.79
  -7   0  18    1.52    0.54
   7   0 -18    1.13    0.49
  -7   0  17    1.15    0.54
  -7   0  17    1.81    0.45
   7   0 -17    1.05    0.38
  -7   0  16    0.91    0.57
  -7   0  16    0.17    0.38
   7   0 -16    0.12    0.33
  -7   0  15    3.43    0.56
   7   0 -15    3.39    0.52
  -7   0  14    0.36    0.42
  -7   0  14    0.15    0.37
  -7   0  14    0.06    0.26
   7   0 -14    0.19    0.34
  -7   0  13  568.76    8.83
  -7   0  13  543.25    7.88
  -7   0  13  524.34    7.54
   7   0 -13  529.21    7.88
  -7   0  12    2.29    0.64
  -7   0  12    1.92    0.49
   7   0 -12    1.22    0.43
  -7   0  12    2.15    0.43
  -7   0  11   10.60    0.88
  -7   0  11    9.46    0.73
   7   0 -11    9.62    0.70
  -7   0  11    9.57    0.63
  -7   0  10    0.88    0.46
  -7   0  10    0.14    0.35
  -7   0  10    0.41    0.30
   7   0 -10    0.27    0.35
  -7   0   9   66.84    2.14
  -7   0   9   60.68    1.73
  -7   0   9   60.12    1.67
  -7   0   8    0.83    0.42
   7   0  -8    0.30    0.40
  -7   0   8   -0.04    0.28
  -7   0   8    0.34    0.42
   7   0  -7   58.75    2.01
  -7   0   7   59.35    2.01
   7   0  -7   53.42    1.63
  -7   0   7   57.39    1.68
  -7   0   7   56.87    1.65
  -7   0   6    0.30    0.45
   7   0  -6   -0.68    0.58
  -7   0   6   -0.19    0.44
  -7   0   6    0.70    0.34
   7   0  -6   -0.07    0.40
  -7   0   5   76.98    2.25
   7   0  -5   76.60    2.33
  -7   0   5   78.45    2.06
   7   0  -5   77.09    2.02
   7   0  -4    0.21    0.55
  -7   0   4    0.04    0.37
   7   0  -4    0.24    0.45
   7   0  -3   35.56    1.55
  -7   0   3   38.17    1.45
   7   0  -3   36.57    1.43
   7   0  -2    1.38    0.63
  -7   0   2   -0.27    0.41
   7   0  -2    1.15    0.55
  -7   0   1   59.59    1.94
   7   0  -1   60.03    1.94
  -7   0   0    0.17    0.48
   7   0   0    0.23    0.55
  -7   0  -1   74.91    2.38
   7   0   1   83.07    2.41
  -7   0  -2    0.75    0.22
   7   0   2   -0.14    0.52
  -7   0  -2    0.17    0.49
  -7   0  -3   47.73    1.05
  -7   0  -3   52.13    1.94
   7   0   3   54.52    2.02
  -7   0  -4    0.67    0.24
   7   0   4   -0.14    0.55
  -7   0  -4   -0.21    0.48
  -7   0  -5   31.96    1.61
   7   0   5   34.89    1.69
  -7   0  -6    0.17    0.46
   7   0   6    0.21    0.59
   7   0   7   11.34    1.08
  -7   0  -7   11.33    1.05
   7   0   7   11.26    0.65
  -7   0  -8   -0.19    0.43
   7   0   8   -0.31    0.53
   7   0   8    0.27    0.29
   7   0   9    0.25    0.53
  -7   0  -9    0.24    0.44
   7   0   9    0.28    0.27
  -7   0 -10    0.34    0.44
   7   0  10    0.37    0.55
   7   0  10    0.53    0.35
  -7   0 -11    1.35    0.54
   7   0  11    2.99    0.75
   7   0  11    2.45    0.44
  -7   0 -12   -0.45    0.55
   7   0  12   -0.46    0.60
   7   0  12   -0.32    0.37
  -7   0 -12   -0.71    0.59
   7   0  13   48.57    1.83
  -7   0 -13   51.97    2.45
   7   0  13   50.04    2.40
   7   0  14    0.62    0.41
   7   0  14    0.40    0.57
   7   0  15   -0.48    0.48
   7   0  15   -0.24    0.60
   7   0  16    0.50    0.39
   7   0  16    0.55    0.61
   7   0  17   41.83    1.95
   7   0  17   37.53    2.24
   7   0  18   -0.22    0.53
   7   0  18    0.46    0.61
   7   0  19    8.86    1.01
   7   0  19    6.64    1.10
   7   0  20   -0.18    0.56
   7   0  20    0.15    0.62
   7   0  21   25.46    1.73
   7   0  21   24.68    2.00
   7   0  22   -0.74    0.54
   7   0  22    0.00    0.68
   7   0  23   24.47    1.81
   7   0  23   24.13    2.07
   7   0  24    0.10    0.65
   7   0  24    0.70    0.79
   7   0  25    2.38    0.84
   7   0  25    1.14    0.71
   7   0  26   -0.57    0.79
   7   0  26   -0.12    0.89
   7   0  27    1.99    0.74
   7   0  27    2.95    0.99
   7   0  28    0.71    0.74
   7   0  28   -1.05    0.87
   7   0  29    8.99    1.38
   7   0  30    0.04    0.81
  -7  -1  33   41.14    3.14
  -7   1  33   34.44    2.93
  -7   1  32    6.16    1.09
  -7   1  32    7.57    1.41
  -7  -1  32    5.81    1.34
  -7   1  31   12.55    1.32
  -7  -1  31   16.60    1.95
  -7   1  31   13.49    1.86
  -7   1  31   13.83    1.58
  -7  -1  30   11.44    1.68
  -7   1  30   12.06    1.45
  -7  -1  29    5.67    1.26
  -7   1  29    4.76    1.06
  -7  -1  28    2.44    0.95
  -7   1  28    1.11    0.66
  -7  -1  27   41.22    2.79
  -7   1  27   48.25    2.56
  -7  -1  26   13.75    1.63
   7   1 -26   16.54    1.16
  -7   1  26   14.43    1.43
  -7  -1  26   16.13    0.64
  -7  -1  25   31.92    2.35
   7   1 -25   33.18    1.58
  -7   1  25   32.73    2.05
  -7  -1  25   32.30    0.90
  -7  -1  25   33.69    0.90
  -7  -1  24    1.94    0.92
  -7  -1  24    1.19    0.60
   7   1 -24    1.63    0.46
  -7   1  24    1.28    0.71
  -7  -1  24    1.60    0.26
  -7  -1  24    1.22    0.22
  -7  -1  23   73.38    2.85
  -7  -1  23   74.82    3.37
   7   1 -23   69.79    2.21
  -7   1  23   71.73    2.88
   7  -1 -23   76.48    2.96
  -7  -1  23   69.67    1.35
  -7  -1  23   67.63    1.32
  -7  -1  22   26.68    1.69
  -7  -1  22   27.16    2.01
   7   1 -22   26.45    1.28
  -7   1  22   27.73    1.72
   7  -1 -22   28.56    1.77
  -7  -1  22   23.90    0.67
  -7  -1  22   25.96    0.70
  -7  -1  21   30.47    1.73
  -7  -1  21   30.14    2.07
  -7   1  21   28.70    1.73
   7  -1 -21   30.45    1.77
   7   1 -21   29.93    1.30
  -7  -1  21   27.95    0.68
  -7  -1  20    5.70    0.84
  -7  -1  20    5.92    0.97
   7  -1 -20    5.66    0.83
  -7   1  20    4.73    0.79
   7   1 -20    5.76    0.59
  -7  -1  19   30.05    1.87
   7  -1 -19   26.78    1.60
   7   1 -19   27.93    1.15
  -7  -1  19   26.19    1.15
  -7   1  19   25.67    1.59
  -7  -1  19   28.42    1.62
  -7  -1  19   28.02    1.89
  -7  -1  18   63.95    2.67
  -7   1  18   61.20    2.40
   7  -1 -18   62.47    2.40
   7   1 -18   60.31    1.69
  -7  -1  18   61.78    1.72
  -7  -1  18   60.70    2.68
  -7  -1  18   64.17    2.40
  -7  -1  17   10.63    1.12
   7  -1 -17   12.18    1.05
   7   1 -17    9.41    0.62
  -7  -1  17   10.79    0.67
  -7   1  17   12.48    1.08
  -7  -1  17   10.06    1.16
  -7  -1  17    9.31    0.92
  -7  -1  16   19.86    1.46
  -7  -1  16   20.67    1.53
  -7  -1  16   20.67    1.33
   7   1 -16   21.38    0.88
  -7   1  16   22.17    1.37
  -7  -1  16   20.08    0.87
   7  -1 -16   20.87    1.32
  -7  -1  15   16.94    1.35
  -7  -1  15   15.19    1.11
  -7  -1  15   16.95    1.38
  -7   1  15   17.15    1.20
  -7  -1  15   15.16    0.70
   7  -1 -15   15.88    1.13
   7   1 -15   13.90    0.68
  -7  -1  14   42.19    1.99
  -7  -1  14   38.72    1.91
  -7  -1  14   42.48    1.82
   7  -1 -14   38.88    1.73
  -7   1  14   37.89    1.76
  -7  -1  14   39.58    1.10
   7   1 -14   38.50    1.10
  -7  -1  13   12.84    0.43
  -7  -1  13   13.52    1.17
  -7  -1  13   13.35    1.16
  -7  -1  13   12.67    1.01
   7  -1 -13   11.39    0.96
  -7   1  13   10.32    0.97
  -7  -1  13   13.59    0.61
  -7  -1  12   11.72    1.09
  -7  -1  12   10.61    0.43
  -7  -1  12   10.47    0.99
  -7  -1  12   10.24    0.93
  -7  -1  12    9.21    0.46
  -7   1  12    9.96    0.92
   7  -1 -12   10.58    0.93
  -7  -1  11   90.00    1.60
  -7  -1  11   90.77    2.79
  -7  -1  11   90.11    2.69
  -7  -1  11   91.01    2.62
  -7   1  11   81.33    2.48
  -7  -1  11   83.47    1.60
   7  -1 -11   82.80    2.49
  -7  -1  10  154.39    3.70
  -7  -1  10  153.18    2.46
   7   1 -10  150.62    3.47
  -7  -1  10  151.62    3.52
  -7  -1  10  142.16    2.37
  -7   1  10  152.21    3.49
   7  -1 -10  154.75    3.49
  -7   1  10  153.91    3.37
   7   1 -10  145.60    2.42
  -7  -1   9   31.85    1.54
  -7  -1   9   30.52    0.94
   7   1  -9   28.65    1.41
  -7  -1   9   31.56    1.43
  -7   1   9   30.48    1.47
  -7  -1   9   27.85    0.84
  -7   1   9   32.37    1.42
   7   1  -9   27.08    0.89
   7  -1  -9   31.51    1.46
  -7  -1   8   55.69    1.39
  -7  -1   8   60.76    2.04
  -7  -1   8   58.88    1.85
   7   1  -8   56.68    1.99
  -7   1   8   56.03    1.94
  -7   1   8   55.89    1.89
   7  -1  -8   57.51    1.94
  -7  -1   8   52.39    1.26
   7   1  -8   53.69    1.37
  -7   1   7    3.69    0.60
  -7  -1   7    3.65    0.51
   7   1  -7    2.64    0.57
  -7  -1   7    3.64    0.43
  -7  -1   7    4.41    0.66
  -7   1   7    3.91    0.58
   7  -1  -7    3.42    0.57
   7   1  -7    3.42    0.42
  -7   1   7    3.52    0.69
  -7  -1   6   35.46    1.30
  -7   1   6   36.17    1.51
   7   1  -6   35.03    1.54
  -7  -1   6   37.45    1.50
  -7  -1   6   37.91    1.22
  -7   1   6   35.62    1.48
   7   1  -6   35.56    1.20
  -7   1   6   33.08    1.54
  -7  -1   5    7.28    0.61
  -7   1   5    6.97    0.75
  -7  -1   5    7.60    0.74
   7   1  -5    7.47    0.64
  -7  -1   5    7.73    0.65
  -7   1   5    7.19    0.79
  -7   1   5    6.61    0.72
  -7   1   4   72.79    2.18
  -7  -1   4   75.05    1.77
  -7  -1   4   78.79    2.11
  -7  -1   4   79.03    2.00
   7  -1  -4   75.29    2.24
   7   1  -4   74.88    1.99
  -7   1   4   74.67    2.24
  -7   1   4   74.25    2.26
  -7   1   3    9.01    0.75
  -7  -1   3   10.40    0.60
  -7  -1   3   10.72    0.78
  -7  -1   3   11.04    0.80
   7  -1  -3    8.98    0.87
   7   1  -3   10.29    0.83
  -7   1   3   10.88    0.89
   7  -1  -2    9.04    0.79
  -7  -1   2    8.32    0.49
  -7   1   2    8.23    0.75
  -7  -1   2    7.96    0.73
   7   1  -2    8.67    0.78
  -7  -1   2    9.32    0.71
   7  -1  -2    7.02    0.78
  -7   1   2    8.50    0.77
   7  -1  -1   27.81    1.24
  -7  -1   1   27.82    1.08
   7   1  -1   26.97    1.34
  -7  -1   1   27.58    1.31
   7  -1  -1   27.86    1.39
  -7   1   1   25.76    1.35
   7  -1   0    1.70    0.44
  -7  -1   0    2.10    0.51
  -7  -1   0    1.52    0.35
   7   1   0    1.38    0.49
  -7   1   0    1.92    0.57
   7  -1   0    1.90    0.64
   7  -1   1   22.10    1.08
  -7  -1  -1   20.34    0.83
   7   1   1   21.22    1.25
  -7  -1  -1   19.10    1.17
  -7   1  -1   23.27    1.33
   7  -1   1   20.34    1.27
   7  -1   2   30.39    1.24
  -7  -1  -2   32.12    1.51
  -7  -1  -2   28.12    0.92
   7   1   2   31.32    1.53
  -7   1  -2   30.90    1.48
   7  -1   2   32.37    1.56
   7  -1   3    8.33    0.72
  -7  -1  -3    5.73    0.75
  -7   1  -3    7.62    0.81
   7   1   3    6.54    0.84
   7  -1   3    7.76    0.92
   7   1   4   25.78    1.50
  -7   1  -4   23.68    1.11
  -7  -1  -4   25.36    1.39
   7  -1   4   25.69    1.44
  -7   1  -4   25.59    1.43
  -7   1  -5    5.29    0.76
   7   1   5    5.11    0.78
   7   1   5    4.39    0.28
  -7   1  -5    4.56    0.55
  -7  -1  -5    5.71    0.78
   7  -1   5    6.39    0.83
  -7   1  -6    3.98    0.74
   7   1   6    4.38    0.84
  -7   1  -6    3.71    0.51
   7   1   6    4.35    0.32
  -7  -1  -6    5.79    0.80
   7  -1   6    5.49    0.77
  -7   1  -7    3.35    0.65
   7   1   7    4.06    0.76
  -7   1  -7    3.68    0.55
   7   1   7    3.49    0.35
  -7  -1  -7    3.27    0.65
   7  -1   7    4.35    0.76
  -7   1  -8   29.16    1.63
   7   1   8   29.33    1.68
  -7   1  -8   26.71    1.30
   7   1   8   30.24    0.99
  -7  -1  -8   28.72    1.65
   7  -1   8   27.55    1.60
  -7   1  -9    4.88    0.80
   7   1   9    5.91    0.97
  -7   1  -9    4.89    0.51
  -7   1  -9    4.85    0.63
   7   1   9    4.67    0.45
  -7  -1  -9    5.69    0.87
   7  -1   9    5.38    0.82
  -7   1 -10   54.48    2.32
   7   1  10   52.31    2.38
  -7   1 -10   50.03    1.53
  -7   1 -10   52.01    1.91
   7   1  10   54.05    1.56
  -7  -1 -10   54.34    2.40
   7  -1  10   49.58    2.23
  -7   1 -11    2.90    0.40
   7   1  11    2.59    0.76
  -7   1 -11    3.78    0.77
  -7   1 -11    3.79    0.63
   7   1  11    3.50    0.47
  -7  -1 -11    3.50    0.82
   7  -1  11    2.64    0.70
   7   1  12   15.49    1.40
  -7   1 -12   12.99    1.25
  -7   1 -12   14.64    0.82
  -7   1 -12   16.09    1.15
   7   1  12   16.54    0.95
   7  -1  12   14.52    1.09
  -7  -1 -12   17.70    1.47
   7  -1  12   15.61    1.34
   7  -1  13   -0.24    0.46
   7   1  13    0.76    0.35
  -7   1 -13   -0.52    0.52
  -7   1 -13    0.12    0.30
   7   1  13    0.85    0.64
   7  -1  13   -0.03    0.54
   7  -1  14    5.18    0.75
   7   1  14    6.52    0.70
  -7   1 -14    5.62    0.56
  -7   1 -14    6.40    0.91
   7   1  14    5.81    0.93
   7  -1  14    5.65    0.89
   7   1  15    3.10    0.60
   7  -1  15    3.15    0.69
  -7   1 -15    3.08    0.84
  -7   1 -15    2.89    0.45
   7   1  15    3.10    0.81
   7  -1  15    2.69    0.82
   7   1  16   50.60    1.99
   7  -1  16   50.41    2.25
  -7   1 -16   48.07    1.62
   7   1  16   48.36    2.56
   7  -1  16   49.09    2.44
   7   1  17    1.49    0.50
   7  -1  17    2.37    0.76
   7   1  17    3.59    0.89
   7  -1  17    3.16    0.83
   7   1  18   26.36    1.54
   7  -1  18   25.08    1.68
   7   1  18   26.11    2.02
   7  -1  18   24.78    1.82
   7  -1  19    0.57    0.62
   7   1  19    0.97    0.53
   7   1  19    0.54    0.68
   7  -1  19    0.59    0.58
   7   1  20    0.03    0.47
   7  -1  20    0.99    0.61
   7   1  20    0.40    0.77
   7  -1  20    0.40    0.60
   7   1  21    0.31    0.55
   7  -1  21   -0.75    0.66
   7   1  21   -1.64    0.86
   7  -1  21   -0.62    0.68
   7   1  22   10.68    1.19
   7  -1  22    9.81    1.18
   7   1  22   10.23    1.41
   7  -1  22    7.46    1.19
   7   1  23    0.80    0.53
   7  -1  23    1.43    0.77
   7   1  23    0.17    0.75
   7  -1  23    0.06    0.65
   7  -1  24   22.47    1.89
   7   1  24   23.21    1.74
   7  -1  24   20.66    1.87
   7   1  24   22.23    2.09
   7   1  25    6.71    1.04
   7  -1  25    7.29    1.28
   7   1  25    7.97    1.43
   7  -1  25    7.02    1.23
   7   1  26    1.07    0.72
   7  -1  26    0.60    0.84
   7   1  26    1.23    0.89
   7  -1  26    0.93    1.01
   7  -1  27    2.25    0.85
   7   1  27    3.15    1.11
   7  -1  27    1.30    0.83
   7  -1  28    1.75    0.93
   7   1  28    2.83    1.06
   7  -1  28    0.86    0.78
   7  -1  29    4.14    1.12
   7   1  29    2.32    0.92
   7  -1  29    0.87    0.75
   7   1  30    0.85    0.91
  -7   2  35   -0.64    0.87
  -7   2  34    6.41    1.39
  -7   2  33   52.85    3.26
  -7   2  32   12.49    1.74
  -7  -2  31    3.62    1.16
  -7   2  31    1.18    0.91
  -7  -2  30   34.15    2.75
  -7   2  30   40.22    2.70
  -7  -2  29    5.21    1.34
  -7   2  29    4.07    1.08
  -7  -2  28   22.29    2.14
  -7   2  28   21.82    1.96
  -7  -2  27    1.76    0.95
  -7   2  27    2.31    0.85
  -7  -2  26    7.45    1.33
  -7  -2  26    6.17    0.99
  -7   2  26    5.35    1.07
  -7  -2  25  167.81    4.50
  -7  -2  25  181.27    5.80
  -7   2  25  172.67    5.24
  -7  -2  24   23.25    2.10
  -7  -2  24   23.23    1.57
   7   2 -24   21.85    0.94
  -7   2  24   22.61    1.84
  -7  -2  23    3.31    1.00
  -7  -2  23    2.50    0.65
  -7   2  23    2.06    0.79
   7   2 -23    2.90    0.34
  -7  -2  22    9.43    1.34
  -7  -2  22    9.40    1.01
  -7   2  22   10.24    1.29
   7   2 -22    9.51    0.53
  -7  -2  21    5.08    1.12
  -7  -2  21    4.53    0.78
  -7   2  21    3.59    0.87
   7   2 -21    3.71    0.31
  -7  -2  20  104.61    3.84
  -7   2  20  106.89    3.65
  -7  -2  19   44.43    2.47
  -7   2  19   49.53    2.43
  -7  -2  18   50.17    2.54
  -7   2  18   48.89    2.39
   7  -2 -18   50.79    2.43
   7   2 -17    5.34    1.00
  -7  -2  17    6.52    1.04
  -7   2  17    6.27    0.91
   7  -2 -17    7.56    1.06
  -7  -2  16    4.04    0.88
   7   2 -16    4.51    0.92
  -7  -2  16    4.28    0.92
  -7   2  16    2.55    0.70
   7  -2 -16    3.36    0.75
   7   2 -15   22.64    1.67
  -7  -2  15   22.10    1.58
   7  -2 -15   23.46    1.56
  -7   2  15   24.23    1.61
  -7  -2  15   22.46    1.61
   7   2 -14   30.14    1.79
  -7  -2  14   27.16    1.71
  -7   2  14   27.69    1.69
   7  -2 -14   29.15    1.72
  -7  -2  14   29.00    1.75
   7   2 -13   42.11    2.09
  -7  -2  13   41.27    2.04
   7   2 -13   40.53    1.74
  -7  -2  13   42.03    2.04
   7  -2 -13   44.12    2.05
  -7   2  13   41.52    1.97
  -7  -2  12  109.27    3.35
   7   2 -12  101.96    3.23
   7   2 -12  102.31    2.86
  -7  -2  12  106.63    3.22
  -7   2  12  100.07    3.19
   7  -2 -12  104.61    3.25
   7   2 -11   51.81    2.24
  -7  -2  11   55.90    2.27
   7   2 -11   49.32    1.94
   7   2 -11   53.95    2.16
  -7  -2  11   52.20    2.13
  -7   2  11   52.02    2.22
   7  -2 -11   59.22    2.33
   7   2 -11   48.23    1.02
  -7  -2  10    5.29    0.81
   7   2 -10    4.90    0.85
   7   2 -10    3.73    0.34
  -7  -2  10    4.41    0.72
   7   2 -10    3.72    0.63
   7   2 -10    4.25    0.72
  -7   2  10    3.09    0.66
   7  -2 -10    4.91    0.77
   7   2  -9   27.46    1.56
  -7  -2   9   25.50    1.50
   7   2  -9   24.57    1.39
  -7  -2   9   24.93    1.40
   7   2  -9   23.05    1.34
  -7   2   9   26.51    1.56
   7  -2  -9   26.67    1.56
   7   2  -9   23.41    0.86
   7   2  -8   25.84    1.46
   7   2  -8   25.27    0.95
  -7  -2   8   27.16    1.51
   7   2  -8   22.78    1.35
  -7  -2   8   23.55    1.31
   7   2  -8   25.34    1.37
  -7   2   8   23.04    1.47
  -7  -2   8   24.03    0.64
   7  -2  -8   25.52    1.49
   7   2  -7    9.09    0.95
  -7  -2   7    9.08    0.89
   7   2  -7    7.97    0.59
   7   2  -7    9.80    0.84
  -7  -2   7    8.46    0.82
  -7  -2   7    8.62    0.46
  -7   2   7    9.07    0.97
  -7   2   7    8.78    0.89
   7  -2  -7    9.71    0.96
  -7  -2   6   59.36    2.12
   7   2  -6   55.75    2.10
   7   2  -6   58.98    1.70
   7   2  -6   58.12    1.91
  -7  -2   6   59.63    1.96
  -7   2   6   64.95    2.34
  -7  -2   6   56.77    1.37
  -7   2   6   58.20    2.17
   7  -2  -6   62.16    2.32
   7   2  -5   30.88    1.25
  -7  -2   5   29.40    1.47
   7   2  -5   30.94    1.53
   7   2  -5   28.92    1.29
  -7  -2   5   33.27    1.41
  -7   2   5   33.03    1.68
  -7  -2   5   29.62    1.03
  -7   2   5   31.76    1.61
  -7  -2   4   38.33    1.63
   7   2  -4   38.74    1.64
   7   2  -4   37.04    1.46
   7   2  -4   37.15    1.41
  -7  -2   4   37.76    1.26
  -7   2   4   35.13    1.70
  -7   2   4   36.25    1.74
   7   2  -3   24.41    1.28
   7   2  -3   25.80    1.27
  -7  -2   3   24.50    1.28
  -7   2   3   27.11    1.29
   7   2  -3   24.58    1.10
  -7  -2   3   25.72    1.11
  -7   2   3   28.39    1.52
  -7   2   3   26.02    1.53
   7   2  -2    2.06    0.53
   7   2  -2    3.36    0.63
   7   2  -2    2.07    0.36
  -7   2   2    2.91    0.47
  -7  -2   2    3.00    0.49
  -7   2   2    2.40    0.63
  -7   2   2    2.80    0.73
   7   2  -1   32.68    1.39
   7   2  -1   32.02    1.50
  -7   2   1   30.79    1.33
   7   2  -1   30.38    1.14
  -7  -2   1   32.88    1.37
  -7   2   1   31.27    1.64
  -7   2   1   31.95    1.62
   7   2   0    9.40    0.93
   7   2   0    9.54    0.77
   7   2   0    8.78    0.61
  -7   2   0    9.55    0.73
  -7  -2   0    9.65    0.82
  -7   2   0    9.34    0.91
  -7   2   0    9.34    1.01
   7  -2   0    9.85    1.01
   7   2   1   38.14    1.41
   7   2   1   38.00    1.76
   7   2   1   36.42    1.18
  -7   2  -1   37.05    1.37
  -7  -2  -1   37.91    1.60
   7  -2   1   38.93    1.80
  -7   2  -1   39.20    1.83
   7   2   2   10.95    0.75
   7   2   2   11.70    1.04
  -7  -2  -2   12.08    0.99
   7  -2   2   11.75    1.09
  -7   2  -2   11.61    1.02
   7   2   3  113.30    2.48
   7   2   3  111.66    3.22
  -7  -2  -3  111.42    3.08
  -7   2  -3  115.02    3.30
   7  -2   3  114.20    3.26
   7   2   4    2.23    0.67
   7   2   4    0.96    0.34
  -7  -2  -4    0.68    0.54
   7  -2   4    1.51    0.62
  -7   2  -4    0.99    0.53
   7   2   5   29.23    1.06
   7   2   5   27.72    1.64
  -7   2  -5   29.88    1.54
  -7  -2  -5   30.00    1.62
   7  -2   5   27.56    1.63
  -7   2  -5   29.69    1.67
   7   2   6    1.53    0.59
   7   2   6    1.64    0.35
   7  -2   6    1.31    0.33
  -7   2  -6    2.02    0.56
  -7  -2  -6    1.83    0.55
  -7   2  -6    1.34    0.53
   7  -2   6    1.27    0.63
  -7   2  -7    7.04    0.86
   7   2   7    7.29    0.99
   7   2   7    7.52    0.51
   7  -2   7    6.58    0.52
  -7   2  -7    6.90    0.87
  -7  -2  -7    6.91    0.90
   7  -2   7    6.20    0.88
   7   2   8    9.30    1.11
   7   2   8   10.09    0.55
  -7   2  -8    9.19    0.99
  -7   2  -8    8.67    0.92
   7  -2   8    9.34    0.62
  -7  -2  -8    8.38    0.96
   7  -2   8   10.15    1.09
   7   2   9   35.62    1.00
   7   2   9   33.58    1.97
   7  -2   9   36.48    1.20
  -7   2  -9   33.75    1.76
  -7  -2  -9   35.20    1.96
   7  -2   9   37.54    1.92
  -7   2  -9   36.21    1.94
   7   2  10    8.32    1.11
   7   2  10    7.66    0.43
  -7   2 -10    7.48    0.96
  -7   2 -10    9.52    1.00
   7  -2  10    8.44    0.58
  -7  -2 -10    8.75    1.05
   7  -2  10    9.75    1.09
  -7   2 -11   42.51    2.05
   7  -2  11   45.02    1.35
   7   2  11   44.55    1.01
  -7   2 -11   43.10    1.80
   7   2  11   42.05    2.30
   7  -2  11   44.32    2.18
  -7   2 -11   44.01    2.19
   7  -2  12    2.31    0.38
  -7   2 -12    2.34    0.59
  -7   2 -12    1.35    0.45
   7   2  12    3.40    0.89
  -7   2 -12    1.79    0.66
   7   2  12    1.80    0.20
   7  -2  12    2.75    0.74
  -7   2 -13   10.52    1.11
   7   2  13   10.38    1.28
  -7   2 -13    8.25    1.06
  -7   2 -13    8.89    0.87
   7  -2  13    9.62    1.07
  -7   2 -14   13.96    1.26
   7   2  14   14.88    1.49
  -7   2 -14   13.79    1.06
  -7   2 -14   13.51    1.32
   7  -2  14   14.68    1.35
  -7   2 -15   22.46    1.63
  -7   2 -15   21.33    1.33
  -7   2 -15   22.35    1.72
   7   2  15   21.87    1.83
   7  -2  15   24.70    1.75
   7   2  16    0.54    0.62
  -7   2 -16    0.79    0.46
   7  -2  16    1.24    0.70
  -7   2 -17   20.90    1.34
   7   2  17   22.12    1.89
   7  -2  17   20.50    1.64
   7   2  18    4.33    0.71
   7   2  18    4.46    0.98
  -7   2 -18    4.87    0.74
   7  -2  18    4.12    0.88
   7   2  19    3.65    0.73
  -7   2 -19    3.87    0.66
   7   2  19    4.52    1.07
   7  -2  19    4.30    0.96
   7   2  20   11.99    1.20
  -7   2 -20   11.03    1.01
   7   2  20   11.67    1.54
   7  -2  20   12.17    1.37
   7   2  21    4.79    0.83
  -7   2 -21    5.93    0.82
   7   2  21    4.11    1.07
   7  -2  21    5.23    1.09
   7   2  22    5.02    0.87
   7   2  22    3.34    1.04
   7  -2  22    3.51    0.92
   7   2  23   12.07    1.25
   7   2  23   12.54    1.67
   7  -2  23   11.12    1.39
   7   2  24    0.09    0.55
   7   2  24   -0.32    0.80
   7  -2  24   -0.01    0.66
   7   2  25    0.23    0.89
   7  -2  25   -1.13    0.73
   7   2  26    2.94    1.03
   7  -2  26    2.42    0.89
   7   2  27    0.25    0.80
   7  -2  27   -1.12    0.83
  -7   3  32    6.98    1.53
  -7   3  31    5.44    1.29
  -7   3  30    1.49    1.00
  -7  -3  30    1.70    1.05
  -7   3  29    3.05    1.11
  -7  -3  29    1.91    1.10
  -7   3  28   13.02    1.69
  -7  -3  28    9.79    1.67
  -7   3  27   35.63    2.59
  -7  -3  27   35.29    2.74
  -7   3  26   79.39    3.81
  -7  -3  26   84.36    4.15
  -7   3  25    4.19    1.08
  -7  -3  25    4.08    1.15
  -7   3  24   60.82    3.24
  -7  -3  24   63.21    3.41
   7   3 -23    1.56    0.85
  -7   3  23    1.96    0.89
  -7  -3  23    3.24    1.10
   7   3 -22   16.87    1.78
  -7   3  22   12.06    1.48
  -7  -3  22   16.64    1.77
   7   3 -21    7.43    1.29
  -7   3  21    7.31    1.28
  -7  -3  21    5.40    1.22
   7   3 -20  180.90    5.44
  -7   3  20  184.91    5.46
  -7  -3  20  181.61    5.54
   7   3 -19   22.24    1.88
  -7   3  19   24.76    1.92
  -7  -3  19   24.79    1.99
   7   3 -18   54.38    2.77
  -7   3  18   56.71    2.81
  -7  -3  18   54.66    2.83
   7   3 -17    1.16    0.84
  -7   3  17    1.23    0.84
  -7  -3  17    3.65    1.04
   7   3 -16  102.39    3.76
  -7   3  16  104.90    3.74
  -7  -3  16  105.90    3.82
   7   3 -15    1.13    0.89
  -7   3  15    3.18    0.90
   7   3 -15    1.59    0.49
  -7  -3  15    2.81    0.90
   7   3 -14  165.99    4.82
  -7  -3  14  177.15    4.86
   7   3 -14  172.43    4.02
   7   3 -14  176.64    4.85
  -7   3  14  178.60    4.93
   7   3 -13   43.72    1.01
   7   3 -13   48.91    2.47
   7   3 -13   46.02    1.91
   7   3 -13   49.80    2.43
  -7  -3  13   48.06    2.38
  -7   3  13   50.89    2.46
   7   3 -13   43.44    1.01
   7   3 -12  248.48    3.87
  -7  -3  12  271.82    6.12
   7   3 -12  254.44    5.95
   7   3 -12  268.13    5.98
   7   3 -12  256.71    5.20
  -7  -3  12  255.25    5.84
  -7   3  12  249.19    5.93
   7  -3 -12  279.32    6.26
   7   3 -11   49.32    2.37
   7   3 -11   49.61    1.40
   7   3 -11   50.66    2.35
  -7  -3  11   53.24    2.37
  -7  -3  11   52.24    2.45
   7   3 -11   47.04    1.96
  -7   3  11   52.58    2.52
   7  -3 -11   55.46    2.54
   7   3 -10  153.19    4.26
   7   3 -10  146.67    2.90
   7   3 -10  144.82    3.64
   7   3 -10  155.04    4.16
  -7  -3  10  153.24    4.09
  -7   3  10  141.14    4.18
   7  -3 -10  156.24    4.36
   7   3  -9    1.02    0.34
   7   3  -9    1.15    0.72
   7   3  -9    1.69    0.59
  -7   3   9   -0.23    0.60
  -7  -3   9    0.57    0.19
   7  -3  -9    1.75    0.76
   7   3  -8   47.01    2.22
   7   3  -8   47.06    2.09
  -7   3   8   45.37    2.22
  -7  -3   8   44.68    1.17
   7  -3  -8   51.40    2.34
   7   3  -7    0.42    0.55
   7   3  -7    0.92    0.49
  -7  -3   7    0.72    0.29
  -7   3   7    0.60    0.77
   7  -3  -7    1.40    0.63
   7   3  -6  109.20    3.33
   7   3  -6  107.88    3.11
  -7   3   6  112.35    3.56
  -7  -3   6  105.07    2.32
  -7   3   6  119.52    3.62
   7  -3  -6  121.58    3.64
   7   3  -5   12.60    1.14
   7   3  -5   12.68    1.02
  -7   3   5   14.28    1.29
  -7  -3   5   12.69    0.79
   7  -3  -5   14.68    1.31
  -7   3   5   14.98    1.24
   7   3  -4   43.83    1.99
   7   3  -4   41.15    1.78
  -7   3   4   41.56    2.10
  -7  -3   4   42.62    1.50
  -7   3   4   44.48    2.16
   7   3  -3   36.82    1.80
   7   3  -3   35.00    1.61
  -7   3   3   36.22    1.92
  -7  -3   3   36.25    1.45
  -7   3   3   39.60    1.97
   7   3  -2    8.92    0.92
   7   3  -2    7.47    0.76
   7   3  -2    8.53    0.77
  -7  -3   2    7.87    0.76
  -7   3   2    8.05    1.07
  -7   3   2    9.59    1.08
   7   3  -1   10.28    0.97
   7   3  -1    9.54    0.84
  -7  -3   1   10.00    0.86
   7   3  -1   10.99    0.90
  -7   3   1   11.14    1.11
  -7   3   1   11.21    1.15
   7   3   0   20.06    1.28
  -7   3   0   20.45    1.08
   7   3   0   20.28    1.16
  -7  -3   0   20.40    1.23
   7   3   0   20.32    1.26
  -7   3   0   21.14    1.46
  -7   3   0   22.98    1.56
   7   3   1   19.18    1.21
  -7   3  -1   16.51    0.94
   7   3   1   17.84    1.08
  -7  -3  -1   18.49    1.21
   7   3   1   18.70    1.25
  -7   3  -1   17.34    1.35
  -7   3  -1   16.80    1.34
   7   3   2   19.95    1.21
  -7   3  -2   20.88    1.03
  -7  -3  -2   21.56    1.34
   7   3   2   20.57    1.36
  -7   3  -2   21.86    1.50
  -7   3  -2   21.97    1.54
   7   3   3    0.53    0.42
  -7   3  -3    1.55    0.35
  -7  -3  -3    0.90    0.46
   7   3   3    1.43    0.58
  -7   3  -3    1.44    0.58
  -7   3  -3    0.60    0.51
   7   3   4    0.39    0.42
  -7  -3  -4   -0.24    0.49
   7   3   4    0.46    0.54
  -7   3  -4    0.45    0.47
  -7   3  -4    0.42    0.58
   7   3   5    7.56    0.76
  -7   3  -5    7.96    1.01
   7   3   5    6.60    0.96
  -7  -3  -5    6.93    0.86
  -7   3  -5    8.33    0.97
  -7   3  -5    7.89    0.96
   7   3   6   -0.10    0.37
  -7   3  -6    0.49    0.55
   7   3   6   -0.09    0.64
  -7  -3  -6    0.55    0.52
  -7   3  -6    0.01    0.48
   7   3   7    4.55    0.63
  -7   3  -7    4.85    0.87
  -7  -3  -7    5.41    0.84
  -7   3  -7    3.33    0.70
   7  -3   7    5.85    0.89
   7   3   8    1.25    0.46
  -7   3  -8    0.45    0.52
   7   3   8    1.11    0.78
  -7   3  -8    0.87    0.54
   7  -3   8    1.45    0.61
  -7   3  -9    7.05    1.00
   7   3   9    6.72    1.09
   7   3   9    7.53    0.76
   7  -3   9    6.49    0.99
  -7   3  -9    7.52    1.01
  -7   3 -10    3.70    0.83
   7   3  10    3.97    0.59
   7   3  10    4.09    0.94
  -7   3 -10    2.82    0.70
   7  -3  10    3.91    0.81
   7   3  11    4.22    0.57
  -7   3 -11    3.95    0.85
   7   3  11    3.90    0.90
  -7   3 -11    3.00    0.75
   7  -3  11    3.93    0.82
   7   3  12   16.81    1.66
   7   3  12   16.51    0.95
  -7   3 -12   15.63    1.36
  -7   3 -12   15.64    1.40
   7  -3  12   16.19    1.42
  -7   3 -13   12.08    1.20
   7   3  13   10.75    1.38
   7  -3  13   12.96    1.31
   7   3  14    0.90    0.77
  -7   3 -14    0.60    0.58
   7  -3  14    1.34    0.69
   7   3  15   11.35    1.46
  -7   3 -15   12.48    1.24
   7  -3  15   12.47    1.32
   7   3  16    1.07    0.83
  -7   3 -16    0.01    0.62
   7  -3  16    0.39    0.55
   7   3  17   18.13    1.84
  -7   3 -17   15.68    1.40
   7  -3  17   16.76    1.54
   7   3  18    5.39    1.16
  -7   3 -18    4.28    0.79
   7  -3  18    3.61    0.86
   7   3  19    3.22    1.04
  -7   3 -19    1.43    0.62
   7  -3  19    3.00    0.86
   7   3  20   12.54    1.67
  -7   3 -20   12.04    1.27
   7  -3  20   12.18    1.41
   7   3  21    1.45    0.98
  -7   3 -21    2.62    0.81
   7  -3  21    1.64    0.77
   7   3  22    0.94    1.00
  -7   3 -22    0.44    0.59
   7  -3  22   -0.51    0.73
   7   3  23    1.20    0.95
   7  -3  23    1.29    0.85
   7   3  24    0.88    0.95
   7  -3  24   -0.50    0.72
   7   3  25    1.00    0.94
  -7   4  28   20.64    2.23
  -7   4  27    1.92    1.05
  -7  -4  27    0.71    0.99
   7   4 -26   25.55    2.40
  -7   4  26   28.42    2.51
  -7  -4  26   32.21    2.74
   7   4 -25   24.82    2.31
  -7   4  25   23.52    2.25
  -7  -4  25   26.54    2.46
   7   4 -24   42.10    2.92
  -7   4  24   42.36    2.92
  -7  -4  24   40.91    2.99
   7   4 -23   46.25    3.05
  -7   4  23   44.61    2.98
  -7  -4  23   47.82    3.14
   7   4 -22  192.80    6.18
  -7   4  22  192.57    6.18
  -7  -4  22  194.47    6.32
   7   4 -21   23.59    2.12
  -7   4  21   18.46    2.00
  -7  -4  21   24.19    2.21
   7   4 -20   22.70    2.00
  -7   4  20   20.00    1.96
  -7  -4  20   22.60    2.09
   7   4 -19    2.89    1.04
  -7   4  19    1.03    0.87
  -7  -4  19    0.14    0.78
   7   4 -18   34.81    2.45
  -7   4  18   39.26    2.58
  -7  -4  18   36.55    2.50
   7   4 -17   32.82    2.41
  -7   4  17   37.51    2.54
   7   4 -16  190.07    5.69
   7   4 -16  190.69    4.35
  -7   4  16  182.20    5.59
   7   4 -15   54.12    2.88
   7   4 -15   46.77    1.21
   7   4 -15   50.63    2.07
  -7   4  15   46.73    2.76
   7   4 -15   43.71    1.20
   7   4 -14  229.57    6.20
   7   4 -14  229.27    3.86
   7   4 -14  239.38    5.07
  -7   4  14  236.49    6.31
   7   4 -14  228.54    3.88
   7   4 -13   10.71    1.49
  -7   4  13   11.53    1.44
   7   4 -13   11.22    1.04
   7   4 -12  128.35    4.37
  -7   4  12  123.49    4.32
   7   4 -12  128.51    3.52
   7   4 -11   64.02    2.99
  -7   4  11   57.67    2.91
   7   4 -10  113.95    4.03
  -7   4  10  117.21    4.08
   7   4  -9   34.74    2.20
  -7   4   9   31.31    2.13
  -7  -4   9   32.85    1.14
   7   4  -8  113.94    3.91
   7   4  -8  117.51    3.83
  -7   4   8  116.10    4.00
   7   4  -8  118.30    2.53
  -7  -4   8  109.21    2.49
   7   4  -7   23.00    1.74
   7   4  -7   22.11    1.08
  -7   4   7   18.87    1.64
  -7  -4   7   20.19    1.06
   7   4  -7   20.45    1.54
   7   4  -6  116.58    3.85
  -7  -4   6  111.79    2.76
  -7   4   6  115.77    3.94
   7   4  -6  115.63    2.77
   7   4  -6  118.04    3.71
   7   4  -5    6.71    1.02
  -7   4   5    7.69    1.19
  -7  -4   5    5.77    0.69
   7   4  -5    5.80    0.69
   7   4  -5    5.44    0.90
   7   4  -4   67.92    2.82
   7   4  -4   69.59    2.71
  -7  -4   4   68.22    2.21
   7   4  -4   68.27    2.20
  -7   4   4   67.42    2.95
   7   4  -3   13.75    1.28
   7   4  -3   10.87    1.12
  -7  -4   3   11.37    0.98
   7   4  -3   13.07    1.03
  -7   4   3   13.41    1.44
   7   4  -2   71.93    2.84
  -7  -4   2   68.68    2.38
   7   4  -2   72.26    2.43
  -7   4   2   71.17    3.02
   7   4  -2   72.79    2.71
   7   4  -1   19.57    1.52
   7   4  -1   19.87    1.33
  -7   4   1   21.08    1.63
  -7  -4   1   18.74    1.30
   7   4  -1   18.95    1.39
   7   4   0   63.88    2.62
  -7   4   0   66.41    2.86
   7   4   0   63.05    2.40
  -7  -4   0   62.00    2.37
   7   4   0   63.45    2.47
   7   4   1   12.99    1.22
  -7   4  -1   16.28    1.50
   7   4   1   14.44    1.22
  -7  -4  -1   15.86    1.25
  -7   4  -1   14.62    0.98
   7   4   1   14.82    1.19
   7   4   2   24.01    1.57
  -7   4  -2   23.06    1.14
   7   4   2   24.05    1.56
  -7  -4  -2   21.34    1.49
  -7   4  -2   23.92    1.74
   7   4   3    7.68    0.96
  -7   4  -3    7.97    0.68
  -7  -4  -3    7.93    0.99
   7   4   3    9.01    1.11
  -7   4  -3    8.37    1.11
   7   4   4   12.34    1.16
  -7   4  -4   11.95    0.75
  -7  -4  -4   12.80    1.24
   7   4   4   13.18    1.29
  -7   4  -4   13.32    1.39
   7   4   5    4.23    0.77
   7   4   5    3.77    0.85
  -7   4  -5    3.51    0.84
   7   4   6    7.14    0.93
   7   4   6    7.66    1.08
  -7   4  -6    6.10    1.01
   7   4   7    2.93    0.68
   7   4   7    3.08    0.89
  -7   4  -7    2.15    0.71
   7   4   8    3.58    0.76
   7   4   8    2.13    0.83
  -7   4  -8    2.56    0.78
   7   4   9   13.63    1.12
   7   4   9   12.93    1.44
  -7   4  -9   13.15    1.37
   7   4  10    4.72    0.77
   7   4  10    5.01    1.10
  -7   4 -10    3.28    0.83
   7   4  11    3.67    0.78
   7   4  11    3.04    0.94
  -7   4 -11    2.57    0.81
  -7   4 -12    0.83    0.76
   7   4  12    0.40    0.78
  -7   4 -12    1.51    0.72
   7   4  13    2.67    0.93
  -7   4 -13    2.95    0.90
   7   4  13    3.44    0.96
  -7   4 -13    1.99    0.73
   7   4  14    1.16    0.77
  -7   4 -14    1.57    0.78
   7   4  15    0.44    0.75
  -7   4 -15   -0.19    0.73
   7   4  16    0.92    0.93
  -7   4 -16    0.97    0.71
  -7   4 -17   10.98    1.38
   7   4  17   13.37    1.73
  -7   4 -18    2.25    0.77
   7   4  18    5.89    1.33
   7   4  19    4.20    1.22
  -7   4 -19    3.02    0.99
   7   4  20    1.00    0.96
  -7   4 -20    0.94    0.81
   7   4  21    3.14    1.06
  -7   4 -21    3.79    1.01
  -7   4 -22    0.33    0.69
   7   5 -24    8.98    1.70
   7   5 -23   42.76    3.10
  -7   5  23   37.44    2.90
   7   5 -22   21.12    2.20
  -7   5  22   19.16    2.18
   7   5 -21    5.44    1.38
  -7   5  21    2.45    1.18
   7   5 -20    2.89    1.15
  -7   5  20    3.16    1.18
   7   5 -19   13.09    1.77
  -7   5  19   12.81    1.80
   7   5 -18   14.55    1.84
  -7   5  18   15.32    1.82
   7   5 -17   28.25    2.39
  -7   5  17   27.39    2.41
   7   5 -16   87.12    4.06
  -7   5  16   89.40    4.10
   7   5 -16   88.24    2.83
   7   5 -15   36.31    2.62
  -7   5  15   38.92    2.70
   7   5 -15   36.11    1.81
   7   5 -14   28.92    2.41
  -7   5  14   26.81    2.24
   7   5 -14   25.54    1.55
   7   5 -13   56.84    3.18
  -7   5  13   56.99    3.22
   7   5 -13   56.61    2.34
   7   5 -12   13.31    1.65
  -7   5  12   15.83    1.77
   7   5 -12   14.80    1.23
   7   5 -11   31.75    2.33
   7   5 -11   31.38    1.14
  -7   5  11   34.73    2.46
   7   5 -10   17.47    1.79
   7   5 -10   18.95    0.96
  -7   5  10   21.33    1.93
   7   5  -9   41.80    2.61
   7   5  -9   38.65    1.50
  -7   5   9   40.68    2.58
   7   5  -8   71.56    3.39
   7   5  -8   69.84    2.18
  -7   5   8   71.02    3.35
  -7  -5   8   63.69    2.10
   7   5  -7   11.01    1.49
   7   5  -7   11.21    0.93
  -7   5   7    9.61    1.44
  -7  -5   7   11.77    0.96
   7   5  -6   25.65    2.00
  -7   5   6   25.64    2.04
   7   5  -6   28.14    1.47
  -7  -5   6   26.58    1.45
   7   5  -5   19.93    1.78
  -7   5   5   19.69    1.82
   7   5  -5   20.77    1.31
  -7  -5   5   18.64    1.27
   7   5  -4   14.73    1.58
   7   5  -4   13.34    1.10
  -7   5   4   10.24    1.32
  -7  -5   4   13.04    1.14
   7   5  -3   41.99    2.49
  -7  -5   3   39.06    1.96
   7   5  -3   44.89    2.04
  -7   5   3   41.82    2.51
   7   5  -2   25.67    1.94
   7   5  -2   25.33    1.58
  -7   5   2   22.93    1.93
  -7  -5   2   25.38    1.61
   7   5  -1   10.52    1.30
  -7  -5   1    9.16    1.03
  -7   5   1   10.47    1.33
   7   5  -1   11.25    1.16
   7   5   0    2.34    0.86
  -7   5   0    2.15    0.84
  -7  -5   0    3.03    0.75
   7   5   0    3.07    0.75
   7   5   1    9.83    1.25
   7   5   1   10.27    1.17
  -7   5  -1   12.79    1.44
   7   5   2   -0.03    0.65
  -7   5  -2    1.85    0.46
   7   5   2    1.76    0.76
  -7   5  -2    2.18    0.88
  -7   5  -3    9.14    0.77
   7   5   3    8.05    1.18
   7   5   3    9.07    1.20
  -7   5  -3    9.85    1.30
   7   5   4    0.54    0.61
   7   5   4    0.05    0.66
  -7   5  -4   -0.25    0.65
   7   5   5    4.28    0.89
   7   5   5    3.62    0.91
  -7   5  -5    3.00    0.87
   7   5   6    1.50    0.67
   7   5   6    0.74    0.70
  -7   5  -6    1.44    0.76
   7   5   7    2.47    0.79
   7   5   7    2.16    0.82
  -7   5  -7    3.01    0.87
   7   5   8    2.61    0.73
   7   5   8    2.57    0.91
  -7   5  -8    0.54    0.69
   7   5   9    7.95    1.11
   7   5   9    6.74    1.20
  -7   5  -9    9.41    1.32
   7   5  10    2.10    0.70
   7   5  10    2.24    0.85
  -7   5 -10    2.08    0.82
   7   5  11    1.49    0.75
  -7   5 -11    2.25    0.99
   7   5  11    0.29    0.72
  -7   5 -11    1.68    0.76
  -7   5 -12    6.06    1.29
   7   5  12    6.18    0.95
   7   5  12    5.94    1.19
  -7   5 -12    6.40    1.14
  -7   5 -13   -0.11    0.78
   7   5  13    2.72    0.80
   7   5  13    0.33    0.84
  -7   5 -13    0.50    0.72
  -7   5 -14    8.08    1.38
   7   5  14   10.99    1.61
  -7   5 -14   10.35    1.38
  -7   5 -15   16.81    1.86
   7   5  15   19.95    2.10
  -7   5 -15   18.15    1.72
  -7   5 -16    7.72    1.42
   7   5  16    9.55    1.58
  -7   5 -16   10.16    1.35
   7   5  17    2.51    1.00
  -7   5 -17    0.04    0.84
  -7   5 -17    0.22    0.88
  -7   5 -18    1.76    0.84
  -7   5 -18    3.18    0.93
  -7   5 -19    0.55    0.89
  -7   5 -19    0.59    0.77
  -7   5 -20    5.02    1.23
  -7   5 -21    1.15    1.02
  -7   5 -22   21.27    2.14
   7   6 -17    0.54    1.10
  -7   6  17    0.98    0.99
   7   6 -16    8.34    1.61
  -7   6  16    7.01    1.57
   7   6 -15    0.71    1.00
  -7   6  15   -0.16    0.96
   7   6 -14    1.60    0.97
  -7   6  14    2.11    1.13
   7   6 -13   20.47    2.15
  -7   6  13   18.85    2.12
   7   6 -12   16.05    2.01
  -7   6  12   16.16    1.95
   7   6 -11    1.36    0.92
  -7   6  11    0.74    0.93
   7   6 -10    2.25    0.98
  -7   6  10    2.08    0.89
   7   6  -9    1.70    0.88
  -7   6   9    0.32    0.92
   7   6  -8    2.30    1.04
  -7   6   8   -1.46    1.03
   7   6  -7    2.52    1.00
  -7   6   7    2.59    1.02
   7   6  -6   -0.21    0.95
  -7   6   6    2.18    0.89
   7   6  -6    1.58    0.59
   7   6  -5    0.19    0.79
  -7   6   5    0.05    0.75
   7   6  -5    1.23    0.56
   7   6  -4    0.83    0.89
   7   6  -4    1.34    0.62
  -7   6   4    2.07    0.96
   7   6  -3   -0.17    0.79
  -7   6   3    1.46    0.93
   7   6  -3    0.11    0.53
   7   6  -2    0.55    0.78
  -7   6   2    2.15    0.90
   7   6  -2    1.43    0.61
   7   6  -1    1.24    0.82
  -7   6   1    1.76    0.97
   7   6  -1   -0.11    0.62
   7   6   0    0.07    0.84
  -7   6   0    0.35    0.81
   7   6   0   -0.79    0.68
   7   6   1    2.32    1.01
   7   6   1    0.43    0.62
  -7   6  -1    1.66    0.83
   7   6   2    1.10    0.85
  -7   6  -2   -0.33    0.73
   7   6   2    0.78    0.71
   7   6   3    1.09    0.75
   7   6   3    0.19    0.67
  -7   6  -3    1.63    1.00
   7   6   4    0.80    0.86
  -7   6  -4   -0.05    0.76
   7   6   4    2.55    0.94
   7   6   5    0.12    0.73
  -7   6  -5   -0.42    0.76
   7   6   5    1.22    0.78
   7   6   6    1.20    0.83
  -7   6  -6    0.91    0.75
   7   6   6    1.81    0.86
   7   6   7    0.66    0.82
   7   6   7   -0.15    0.75
  -7   6  -7    1.06    0.84
   7   6   8    0.16    0.78
   7   6   8    0.63    0.81
  -7   6  -8    1.51    0.88
   7   6   9   -0.02    0.73
   7   6   9   -0.21    0.77
  -7   6  -9    0.29    0.71
   7   6  10   -0.41    0.72
   7   6  10   -0.37    0.98
  -7   6 -10    0.14    0.73
  -7   6 -11   -0.30    0.91
   7   6  11    1.76    0.82
   7   6  11    1.03    0.82
  -7   6 -11    1.35    0.89
  -7   6 -12    1.35    1.07
   7   6  12   -1.33    0.93
  -7   6 -12   -0.66    0.92
  -7   6 -13    1.01    1.04
   7   6  13    1.89    1.06
  -7   6 -13    1.09    0.75
  -7   6 -14    3.68    1.24
   7   6  14    4.03    1.29
  -7   6 -14    4.14    1.06
  -7   6 -15    1.41    1.07
  -7   7   7   12.49    1.76
  -7   7   6   -2.61    1.21
   7   7  -5    4.06    1.21
  -7   7   5    2.08    0.93
   7   7  -4   -0.19    0.91
  -7   7   4   -0.35    0.95
   7   7  -3    5.92    1.36
  -7   7   3    7.53    1.45
   7   7  -2   -1.79    0.95
  -7   7   2    2.58    1.18
   7   7  -1   11.65    1.71
  -7   7   1   12.50    1.72
   7   7   0    0.55    0.93
  -7   7   0    0.25    0.76
   7   7   1    6.40    1.33
  -7   7  -1   10.23    1.55
   7   7   2   -0.75    0.80
   7   7   2    1.44    0.94
  -7   7  -2    0.75    0.77
   7   7   3    6.62    1.37
  -7   7  -3    4.24    1.09
   7   7   3    5.43    1.17
   7   7   4    2.01    1.00
  -7   7  -4    0.78    0.77
   7   7   4    1.70    0.90
   7   7   5    4.01    1.11
  -7   7  -5    5.40    1.22
   7   7   5    2.38    0.97
   7   7   6    0.49    0.79
  -7   7  -6    0.41    0.92
   7   7   6    2.25    1.05
   7   7   7    4.70    1.14
   7   7   7    3.42    1.10
  -7   7  -7    3.47    1.08
   7   7   8   -0.37    0.87
   7   7   8    1.53    0.96
  -7   7  -8   -0.56    0.79
   7   7   9    2.35    1.11
  -8   0  33   -0.33    1.05
  -8   0  32   13.25    1.83
  -8   0  31    0.72    0.94
  -8   0  30   10.04    1.60
  -8   0  29    0.15    0.56
  -8   0  29   -2.12    1.06
  -8   0  28    2.88    0.55
  -8   0  28    2.99    1.14
  -8   0  28    3.03    0.82
  -8   0  27   -0.17    0.43
  -8   0  27    0.31    0.80
  -8   0  27    0.03    0.52
   8   0 -27   -0.61    0.52
  -8   0  26  102.83    4.29
   8   0 -26  102.65    3.33
  -8   0  26  104.32    3.36
  -8   0  25   -0.76    0.74
  -8   0  25   -0.42    0.58
   8   0 -25    0.00    0.44
  -8   0  24  151.30    5.02
   8   0 -24  157.26    4.08
  -8   0  24  164.09    4.13
  -8   0  23    0.35    0.48
   8   0 -23   -0.26    0.42
   8   0 -22  165.05    4.02
  -8   0  22  170.25    4.04
  -8   0  21    0.02    0.47
   8   0 -21    0.07    0.35
   8   0 -20   61.50    2.17
  -8   0  20   60.79    2.15
  -8   0  19    0.54    0.55
  -8   0  19    0.11    0.53
  -8   0  19   -0.02    0.39
   8   0 -19    0.34    0.36
  -8   0  18  748.31   12.12
  -8   0  18  764.59   11.91
   8   0 -18  721.07   10.69
  -8   0  18  733.09   10.70
  -8   0  18  729.90   10.15
  -8   0  17    0.32    0.55
  -8   0  17    0.39    0.44
  -8   0  17   -0.06    0.38
  -8   0  17   -0.55    0.34
   8   0 -17   -0.24    0.39
  -8   0  16    5.66    0.85
  -8   0  16    6.09    0.81
  -8   0  16    5.85    0.68
   8   0 -16    5.41    0.60
  -8   0  16    5.24    0.51
  -8   0  15    0.14    0.40
  -8   0  15   -0.17    0.37
  -8   0  15   -0.08    0.23
   8   0 -15   -0.08    0.32
  -8   0  14   28.89    1.54
  -8   0  14   27.92    1.24
  -8   0  14   28.26    1.12
   8   0 -14   29.33    1.26
  -8   0  13    0.32    0.33
  -8   0  13    0.17    0.36
  -8   0  13   -0.26    0.27
   8   0 -13   -0.10    0.31
  -8   0  12 2526.57   31.23
  -8   0  12 2502.78   30.14
  -8   0  12 2395.18   29.84
   8   0 -12 2449.15   30.12
  -8   0  11    0.78    0.50
  -8   0  11    0.14    0.38
  -8   0  11    0.40    0.24
  -8   0  10   18.87    1.22
  -8   0  10   18.40    0.95
  -8   0  10   17.62    0.90
  -8   0   9    0.17    0.40
  -8   0   9    0.01    0.35
  -8   0   9   -0.08    0.30
   8   0  -8  384.80    6.60
  -8   0   8  379.06    6.55
   8   0  -8  384.28    5.96
  -8   0   8  385.28    5.94
  -8   0   8  373.47    5.93
   8   0  -7    0.47    0.53
  -8   0   7    1.17    0.50
   8   0  -7    0.76    0.42
  -8   0   7    0.53    0.43
  -8   0   7    0.19    0.32
  -8   0   6  115.36    2.92
   8   0  -6  116.08    2.96
   8   0  -6  112.02    2.63
  -8   0   6  109.61    2.61
   8   0  -5    0.26    0.51
   8   0  -5    0.49    0.46
  -8   0   5   -0.11    0.36
   8   0  -4  728.74   10.82
  -8   0   4  754.04   10.54
   8   0  -4  763.02   10.58
   8   0  -3    0.42    0.51
  -8   0   3    0.76    0.46
   8   0  -3    0.95    0.53
   8   0  -2 1056.38   14.26
  -8   0   2 1049.03   14.27
   8   0  -2 1041.73   14.19
  -8   0   1    0.92    0.53
   8   0  -1    0.06    0.52
   8   0   0  334.78    5.87
  -8   0   0  324.28    5.88
  -8   0  -1    0.07    0.43
   8   0   1    1.05    0.59
  -8   0  -2 1138.05   13.68
  -8   0  -2 1158.00   15.75
   8   0   2 1129.33   15.68
  -8   0  -3    0.75    0.21
   8   0   3    0.89    0.55
  -8   0  -3    0.70    0.57
  -8   0  -4 1247.55   15.18
  -8   0  -4 1281.95   17.37
   8   0   4 1270.15   17.33
   8   0   5    1.89    0.64
  -8   0  -5    0.49    0.56
  -8   0  -6  485.65    8.29
   8   0   6  472.59    8.28
  -8   0  -7    0.93    0.55
   8   0   7   -0.15    0.55
  -8   0  -8  281.22    5.89
   8   0   8  273.73    5.88
   8   0   9    0.29    0.30
  -8   0  -9   -0.08    0.48
   8   0   9    0.68    0.59
   8   0  10  238.47    4.19
  -8   0 -10  233.37    5.55
   8   0  10  238.26    5.53
   8   0  11    0.67    0.34
  -8   0 -11    0.92    0.58
   8   0  11    1.92    0.83
   8   0  12  725.14   10.30
  -8   0 -12  725.58   11.94
   8   0  12  697.07   11.91
   8   0  13    0.70    0.45
  -8   0 -13    0.48    0.65
   8   0  13    2.69    0.93
   8   0  14  195.64    4.16
   8   0  14  190.14    5.20
   8   0  15    0.51    0.47
   8   0  15    2.16    0.82
   8   0  16  102.40    3.01
   8   0  16  108.03    3.86
   8   0  17    0.99    0.57
   8   0  17    1.09    0.77
   8   0  18  220.09    4.99
   8   0  18  212.43    5.91
   8   0  19    0.13    0.51
   8   0  19   -0.09    0.70
   8   0  20    9.47    1.10
   8   0  20    9.41    1.28
   8   0  21   -0.11    0.52
   8   0  21    0.13    0.68
   8   0  22    1.68    0.71
   8   0  22    1.11    0.79
   8   0  23   -0.12    0.61
   8   0  23   -0.99    0.83
   8   0  24   81.00    3.31
   8   0  24   78.46    3.79
   8   0  25   -0.82    0.67
   8   0  25   -0.57    0.79
   8   0  26   37.38    2.34
   8   0  26   37.49    2.72
   8   0  27    1.92    1.14
   8   0  28    5.85    1.21
   8   0  29   -0.10    0.93
   8   0  30    2.04    0.91
  -8   1  33    3.34    1.33
  -8   1  33    3.03    0.99
  -8  -1  32    7.55    1.50
  -8   1  32    7.70    1.51
  -8   1  32    7.12    1.24
  -8  -1  31    4.65    1.38
  -8   1  31    3.98    1.00
  -8  -1  30   -0.30    0.83
  -8   1  30   -0.17    0.74
  -8  -1  29   24.69    2.33
  -8   1  29   22.13    1.81
  -8  -1  28    0.82    0.87
  -8   1  28   -0.05    0.66
  -8  -1  27   30.90    2.46
  -8   1  27   28.38    1.96
  -8  -1  26   21.20    2.44
   8   1 -26   20.59    1.25
  -8   1  26   22.50    1.70
  -8  -1  25   74.26    3.52
   8   1 -25   78.17    2.41
  -8   1  25   76.29    3.08
  -8  -1  24    6.47    1.21
  -8   1  24    6.53    0.96
   8   1 -24    5.36    0.67
  -8  -1  23    0.82    0.72
  -8  -1  23    0.39    0.57
  -8   1  23   -0.02    0.55
   8  -1 -23   -0.05    0.48
   8   1 -23    0.70    0.36
  -8  -1  22    0.19    0.68
  -8  -1  22    1.46    0.65
  -8   1  22   -0.22    0.53
   8   1 -22   -0.08    0.32
   8  -1 -22    0.18    0.45
  -8  -1  21   47.71    2.56
  -8  -1  21   45.29    2.17
  -8  -1  21   46.63    1.59
   8  -1 -21   40.86    2.05
   8   1 -21   44.52    1.55
  -8   1  21   41.34    2.05
  -8  -1  20    1.71    0.58
  -8  -1  20    1.82    0.88
  -8   1  20    0.40    0.59
  -8  -1  20    1.18    0.39
   8   1 -20    1.20    0.32
   8  -1 -20    0.84    0.44
  -8  -1  19  100.77    3.60
  -8  -1  19  104.63    3.31
  -8   1  19   98.47    3.15
  -8  -1  19  102.48    2.34
   8  -1 -19   97.05    3.15
   8   1 -19  103.65    2.34
  -8  -1  18   41.29    2.18
  -8  -1  18   39.29    2.15
  -8  -1  18   40.62    1.93
  -8   1  18   39.53    1.90
   8  -1 -18   41.33    1.93
  -8  -1  18   37.63    1.27
   8   1 -18   39.07    1.27
  -8  -1  17   20.87    1.52
  -8  -1  17   21.24    1.38
  -8  -1  17   19.09    1.49
  -8   1  17   18.26    1.29
  -8  -1  17   20.36    0.87
   8  -1 -17   19.37    1.31
   8   1 -17   19.89    0.85
  -8  -1  16   38.11    1.99
  -8  -1  16   37.25    1.99
  -8  -1  16   39.45    1.84
   8  -1 -16   34.73    1.70
  -8  -1  16   37.02    1.15
  -8   1  16   33.59    1.68
  -8  -1  16   34.96    0.76
   8   1 -16   36.66    1.14
  -8  -1  15   66.50    2.60
  -8  -1  15   66.14    2.38
  -8  -1  15   64.16    2.54
  -8   1  15   62.45    2.27
  -8  -1  15   64.50    1.50
   8  -1 -15   63.94    2.28
  -8  -1  15   61.73    1.18
  -8  -1  14   26.41    1.61
  -8  -1  14   27.66    1.63
  -8  -1  14   27.14    1.47
  -8  -1  14   26.92    0.90
  -8   1  14   22.19    1.33
  -8  -1  14   25.55    0.73
   8  -1 -14   22.77    1.34
  -8  -1  13  188.62    4.48
  -8  -1  13  178.29    2.80
  -8  -1  13  182.20    4.33
  -8  -1  13  190.84    4.24
  -8   1  13  183.04    4.09
  -8  -1  13  184.74    2.95
  -8   1  13  181.99    3.92
   8  -1 -13  181.09    4.09
  -8  -1  12    0.81    0.56
  -8  -1  12    0.94    0.29
  -8  -1  12    1.51    0.60
  -8  -1  12    0.45    0.38
  -8  -1  12   -0.77    0.32
  -8   1  12    0.57    0.51
  -8   1  12    0.98    0.45
   8  -1 -12    1.09    0.50
  -8  -1  11  358.27    5.11
  -8  -1  11  358.69    6.63
   8   1 -11  370.86    6.52
  -8  -1  11  354.20    6.38
  -8  -1  11  364.69    5.07
  -8   1  11  356.28    6.31
   8   1 -11  368.36    5.13
   8  -1 -11  353.61    6.31
  -8   1  11  348.77    6.12
  -8  -1  10  232.52    3.75
  -8  -1  10  234.21    4.93
  -8   1  10  248.08    5.02
   8   1 -10  253.21    5.04
  -8  -1  10  235.40    4.67
  -8   1  10  243.25    4.77
  -8  -1  10  239.66    3.65
  -8   1  10  235.66    4.60
   8   1 -10  238.09    3.76
   8  -1 -10  238.80    4.75
  -8   1   9    1.25    0.54
  -8  -1   9    1.50    0.41
   8   1  -9    1.03    0.50
  -8  -1   9    1.11    0.49
  -8  -1   9    0.84    0.21
  -8   1   9    1.07    0.38
  -8   1   9    0.61    0.49
  -8  -1   9    1.19    0.30
   8   1  -9    0.55    0.28
   8  -1  -9    1.02    0.45
  -8  -1   8  287.67    5.44
  -8  -1   8  287.32    4.59
  -8   1   8  293.09    5.51
   8   1  -8  294.37    5.53
  -8  -1   8  287.53    5.09
  -8   1   8  297.83    5.40
  -8   1   8  287.05    5.26
   8   1  -8  297.24    4.60
  -8  -1   7   72.57    2.01
  -8   1   7   73.39    2.32
   8   1  -7   75.13    2.37
  -8  -1   7   76.47    2.31
  -8  -1   7   68.57    1.82
  -8   1   7   72.41    2.28
   8   1  -7   72.01    1.85
  -8   1   7   73.62    2.24
  -8  -1   6  295.83    4.78
  -8   1   6  285.91    5.34
   8   1  -6  298.97    5.48
  -8  -1   6  289.29    4.77
  -8  -1   6  288.96    5.21
  -8   1   6  279.66    5.23
  -8   1   6  285.73    5.29
   8   1  -6  292.75    4.79
  -8  -1   5  292.19    4.65
  -8   1   5  299.59    5.39
  -8  -1   5  291.14    5.17
  -8  -1   5  291.39    4.91
   8  -1  -5  294.19    5.40
  -8   1   5  297.10    5.37
   8   1  -5  293.99    4.93
  -8   1   5  294.51    5.41
  -8   1   4   43.79    1.70
  -8  -1   4   40.69    1.23
  -8  -1   4   39.95    1.51
  -8  -1   4   40.59    1.50
   8  -1  -4   44.81    1.78
  -8   1   4   46.16    1.77
   8   1  -4   39.60    1.49
  -8   1   4   45.98    1.79
   8  -1  -3   48.24    1.75
  -8  -1   3   46.48    1.22
  -8   1   3   45.95    1.73
  -8  -1   3   46.62    1.57
  -8  -1   3   46.95    1.66
   8  -1  -3   46.80    1.83
  -8   1   3   46.45    1.81
   8   1  -3   47.75    1.71
   8  -1  -2   97.40    2.54
  -8  -1   2   93.68    1.75
  -8  -1   2   93.18    2.25
  -8  -1   2   91.96    2.53
   8  -1  -2   98.24    2.75
   8   1  -2   99.21    2.61
  -8   1   2   99.40    2.76
   8  -1  -1  148.33    3.25
  -8  -1   1  145.29    3.35
  -8  -1   1  144.48    2.88
  -8   1   1  147.23    3.53
   8  -1  -1  146.92    3.53
   8   1  -1  148.92    3.43
   8  -1   0  146.75    3.24
  -8  -1   0  145.69    2.79
  -8  -1   0  149.57    3.45
   8   1   0  143.26    3.48
  -8   1   0  145.64    3.57
   8  -1   0  143.01    3.52
   8  -1   1  421.98    6.60
  -8  -1  -1  400.58    5.88
   8   1   1  416.45    7.08
  -8  -1  -1  415.06    7.03
  -8   1  -1  420.91    7.18
   8  -1   1  414.52    7.12
   8  -1   2  128.73    2.90
  -8  -1  -2  114.94    2.23
   8   1   2  119.70    3.23
  -8  -1  -2  120.00    3.19
   8  -1   2  129.51    3.35
  -8   1  -2  128.41    3.35
   8  -1   3  416.55    6.55
   8   1   3  417.95    7.26
  -8  -1  -3  406.29    5.58
  -8  -1  -3  408.88    7.22
  -8   1  -3  422.72    7.35
   8  -1   3  404.66    7.23
  -8   1  -4   11.32    0.77
  -8  -1  -4    9.37    0.96
  -8   1  -4   11.06    1.01
   8   1   4   10.60    1.03
   8  -1   4   11.85    1.07
   8   1   5   12.66    1.12
  -8   1  -5   14.10    0.85
  -8  -1  -5   14.44    1.15
   8  -1   5   13.37    1.12
  -8   1  -5   15.94    1.22
  -8   1  -6    1.82    0.55
   8   1   6    2.81    0.74
   8   1   6    2.29    0.20
  -8   1  -6    2.07    0.43
  -8  -1  -6    3.52    0.72
   8  -1   6    1.61    0.58
  -8   1  -7  175.63    4.38
   8   1   7  173.33    4.40
   8   1   7  169.38    2.63
  -8   1  -7  171.72    3.55
  -8  -1  -7  178.52    4.38
   8  -1   7  170.40    4.31
  -8   1  -8   23.93    1.59
   8   1   8   21.57    1.54
  -8   1  -8   23.42    1.20
   8   1   8   23.10    0.79
  -8  -1  -8   22.79    1.52
   8  -1   8   22.10    1.48
  -8   1  -9  116.16    2.44
  -8   1  -9  106.16    3.45
   8   1   9  109.41    3.53
   8   1   9  108.60    2.18
  -8   1  -9  109.40    2.81
  -8  -1  -9  113.24    3.55
   8  -1   9  108.17    3.43
  -8   1 -10   57.53    1.61
   8   1  10   52.13    2.44
  -8   1 -10   57.25    2.47
   8   1  10   54.10    1.50
  -8   1 -10   57.83    2.01
  -8  -1 -10   55.59    2.49
   8  -1  10   51.84    2.36
  -8   1 -11    1.47    0.32
   8   1  11    2.49    0.85
  -8   1 -11    2.51    0.65
   8   1  11    1.84    0.36
  -8   1 -11    1.73    0.47
  -8  -1 -11    1.24    0.71
   8  -1  11    1.79    0.68
   8   1  12   23.98    1.11
  -8   1 -12   23.75    1.37
  -8   1 -12   24.10    1.01
  -8   1 -12   24.93    1.74
   8   1  12   22.75    1.69
   8  -1  12   24.72    1.72
   8   1  13  156.72    3.38
   8   1  13  159.03    4.70
  -8   1 -13  165.71    3.15
  -8   1 -13  166.19    4.66
   8  -1  13  158.02    4.54
   8   1  14    3.29    0.57
  -8   1 -14    2.76    0.43
   8   1  14    2.77    0.94
   8  -1  14    3.23    0.88
   8   1  15  277.87    5.24
   8  -1  15  287.89    5.89
  -8   1 -15  284.32    4.68
   8   1  15  284.45    6.81
   8  -1  15  276.88    6.55
   8   1  16   12.80    1.00
   8  -1  16   13.26    1.21
  -8   1 -16   11.01    0.74
   8   1  16   11.47    1.36
   8  -1  16   14.01    1.46
   8   1  17   13.34    1.05
   8  -1  17   11.70    1.15
   8   1  17   11.87    1.49
   8  -1  17   13.04    1.42
   8   1  18   26.73    1.51
   8  -1  18   26.75    1.72
   8   1  18   27.02    2.05
   8  -1  18   27.05    1.97
   8  -1  19    5.29    0.90
   8   1  19    7.97    0.93
   8   1  19    9.17    1.30
   8  -1  19    5.33    1.00
   8   1  20    0.05    0.43
   8  -1  20    1.02    0.64
   8   1  20   -0.58    0.78
   8  -1  20    0.25    0.71
   8  -1  21   43.77    2.37
   8   1  21   46.13    2.19
   8  -1  21   41.44    2.56
   8   1  21   44.45    2.79
   8   1  22    0.39    0.53
   8  -1  22    0.96    0.69
   8   1  22   -0.45    0.75
   8  -1  22    0.35    0.66
   8  -1  23   25.58    1.92
   8   1  23   24.93    1.68
   8  -1  23   24.70    2.05
   8   1  23   25.68    2.23
   8   1  24    0.62    0.60
   8  -1  24    0.01    0.72
   8  -1  24   -1.05    0.85
   8  -1  25    1.84    0.84
   8   1  25    2.76    1.09
   8  -1  25    2.34    0.85
   8  -1  26    9.46    1.35
   8   1  26    9.27    1.58
   8  -1  26    8.12    1.37
   8  -1  27   16.27    1.71
   8   1  27   14.82    1.91
   8  -1  27   15.70    1.83
   8   1  28   -0.56    0.83
   8  -1  28    2.64    1.14
   8  -1  29    7.15    1.46
  -8   2  36    0.53    0.88
  -8   2  35   -0.72    0.96
  -8   2  34   -1.18    1.03
  -8   2  33    1.53    0.89
  -8   2  32    9.13    1.44
  -8  -2  31    0.47    0.89
  -8   2  31   -1.14    0.85
  -8  -2  30    3.10    1.19
  -8   2  30    1.71    0.85
  -8  -2  29   35.06    2.73
  -8   2  29   34.75    2.45
  -8  -2  28   13.45    1.74
  -8   2  28   15.09    1.61
  -8  -2  27    1.00    0.87
  -8   2  27   -0.53    0.75
  -8  -2  26    0.16    0.84
  -8   2  26    1.12    0.76
  -8  -2  25    7.09    1.27
  -8  -2  25    7.37    1.00
  -8   2  25    3.77    0.90
  -8  -2  24  131.44    4.81
  -8  -2  24  128.43    3.89
  -8   2  24  131.16    4.38
  -8  -2  23   69.66    2.70
  -8  -2  23   68.17    3.33
  -8   2  23   70.30    3.08
  -8   2  22    3.92    0.82
  -8  -2  22    5.73    1.11
  -8   2  21  107.57    3.76
  -8  -2  21  107.67    4.04
  -8   2  20    5.18    0.90
  -8  -2  20    6.35    1.10
  -8   2  19   -0.08    0.70
  -8  -2  19    2.09    0.78
  -8   2  18  100.08    3.45
   8  -2 -18  101.29    3.46
  -8  -2  18   97.10    3.57
  -8   2  17   65.12    2.72
   8  -2 -17   65.57    2.73
  -8  -2  17   68.69    2.88
  -8   2  16  103.10    3.41
   8  -2 -16  100.47    3.37
  -8  -2  16  100.68    3.50
   8   2 -15  246.17    5.82
  -8  -2  15  262.88    5.97
  -8  -2  15  244.33    5.71
   8  -2 -15  276.33    5.94
  -8   2  15  259.78    5.76
   8   2 -14   90.88    3.19
  -8  -2  14   95.81    3.26
  -8  -2  14   93.50    3.17
  -8   2  14   88.62    3.05
   8  -2 -14   97.35    3.20
   8   2 -13  252.26    5.69
  -8  -2  13  258.55    5.73
   8   2 -13  253.88    5.20
  -8  -2  13  246.59    5.47
  -8   2  13  249.58    5.54
   8  -2 -13  263.69    5.67
   8   2 -12  179.15    4.52
  -8  -2  12  185.94    4.58
   8   2 -12  179.64    4.14
  -8  -2  12  178.88    4.36
  -8   2  12  175.11    4.42
   8  -2 -12  182.77    4.49
   8   2 -12  174.83    2.58
   8   2 -11   55.10    2.31
  -8  -2  11   57.33    2.32
   8   2 -11   53.96    2.12
  -8  -2  11   54.65    2.18
  -8   2  11   50.69    2.21
   8   2 -11   54.43    1.26
   8  -2 -11   51.02    2.23
   8   2 -10  195.76    4.58
  -8  -2  10  186.23    4.51
  -8  -2  10  192.13    4.34
   8   2 -10  197.88    4.37
  -8   2  10  192.17    4.59
   8  -2 -10  193.63    4.59
   8   2 -10  190.57    3.20
  -8   2  10  192.94    4.49
   8   2  -9   31.70    1.69
  -8  -2   9   30.88    1.63
   8   2  -9   31.99    1.55
  -8  -2   9   30.21    1.53
   8   2  -9   29.32    1.56
  -8   2   9   32.70    1.80
  -8  -2   9   30.48    0.75
  -8   2   9   37.70    1.81
   8   2  -9   30.62    1.10
   8  -2  -9   37.37    1.86
   8   2  -8  190.18    4.37
  -8  -2   8  192.76    4.37
   8   2  -8  184.30    4.20
   8   2  -8  191.17    4.07
  -8  -2   8  186.28    4.05
  -8   2   8  184.82    4.42
  -8  -2   8  183.10    2.88
  -8   2   8  192.31    4.41
   8   2  -8  193.02    3.46
   8  -2  -8  194.03    4.54
   8   2  -7  368.22    5.75
   8   2  -7  368.01    6.64
  -8  -2   7  366.26    6.64
   8   2  -7  362.88    6.21
  -8  -2   7  361.08    6.21
  -8   2   7  366.73    6.83
  -8  -2   7  362.41    5.20
  -8   2   7  380.96    6.84
   8  -2  -7  384.09    6.98
   8   2  -6   49.37    1.94
   8   2  -6   49.34    1.62
  -8  -2   6   48.61    1.95
   8   2  -6   47.05    1.70
  -8  -2   6   49.35    1.74
  -8  -2   6   47.79    1.35
  -8   2   6   46.97    2.05
  -8   2   6   49.48    2.04
   8   2  -5   -0.04    0.52
  -8  -2   5   -0.06    0.42
   8   2  -5    0.03    0.35
  -8   2   5    0.47    0.43
  -8  -2   5    0.18    0.36
   8   2  -5    0.32    0.33
  -8  -2   5    0.39    0.32
  -8   2   5    0.60    0.44
  -8   2   5    0.51    0.61
  -8  -2   4  539.40    8.51
   8   2  -4  551.30    8.52
   8   2  -4  551.88    8.27
  -8   2   4  545.36    8.47
   8   2  -4  535.76    7.90
  -8  -2   4  532.36    7.77
  -8   2   4  544.96    8.98
  -8   2   4  559.46    9.05
   8   2  -3  202.32    4.10
  -8  -2   3  198.91    4.10
   8   2  -3  198.96    4.07
   8   2  -3  191.48    3.58
  -8   2   3  187.42    3.99
  -8  -2   3  198.29    3.76
  -8   2   3  192.84    4.46
  -8   2   3  188.01    4.44
  -8  -2   2  140.07    3.22
   8   2  -2  140.04    3.22
   8   2  -2  137.06    3.35
   8   2  -2  135.72    2.73
  -8   2   2  135.24    3.19
  -8  -2   2  142.82    3.12
  -8   2   2  136.83    3.64
  -8   2   2  133.18    3.60
   8   2  -1  542.33    8.21
   8   2  -1  547.99    8.69
  -8   2   1  558.58    8.33
   8   2  -1  530.14    7.56
  -8  -2   1  525.82    8.28
   8  -2  -1  576.83    9.20
  -8   2   1  578.77    9.21
  -8   2   1  568.73    9.17
   8   2   0    3.81    0.92
   8   2   0    3.67    0.72
   8   2   0    1.66    0.29
  -8   2   0    3.26    0.54
  -8  -2   0    4.25    0.77
   8  -2   0    1.29    0.60
  -8   2   0    3.16    0.72
   8   2   1  986.44   13.08
   8   2   1  991.48   14.12
   8   2   1  962.82   12.40
  -8  -2  -1  973.44   13.75
   8  -2   1  990.53   14.34
  -8   2  -1 1014.33   14.44
   8   2   2 1788.23   22.18
   8   2   2 1806.56   23.59
   8   2   2 1761.07   21.53
  -8  -2  -2 1788.37   23.22
   8  -2   2 1752.66   23.65
  -8   2  -2 1816.39   23.80
   8   2   3  345.63    5.36
   8   2   3  351.91    6.68
   8   2   3  334.00    4.87
  -8  -2  -3  342.75    6.39
  -8   2  -3  346.96    6.68
   8  -2   3  334.06    6.58
   8   2   4   43.76    1.37
   8   2   4   44.21    2.09
  -8  -2  -4   44.14    1.97
   8  -2   4   39.06    1.97
  -8   2  -4   41.40    1.99
   8   2   5   18.06    0.82
   8   2   5   16.71    1.36
   8  -2   5   20.91    1.02
  -8   2  -5   20.50    1.28
  -8  -2  -5   18.69    1.34
   8  -2   5   21.08    1.48
  -8   2  -5   21.64    1.44
   8   2   6    4.09    0.87
   8   2   6    2.26    0.36
   8  -2   6    1.81    0.41
  -8   2  -6    1.94    0.56
  -8  -2  -6    2.14    0.67
  -8   2  -6    2.40    0.65
   8  -2   6    0.94    0.67
   8   2   7  311.52    4.58
   8   2   7  314.01    6.65
   8  -2   7  315.74    5.11
  -8   2  -7  323.02    6.13
  -8  -2  -7  321.66    6.58
  -8   2  -7  320.21    6.58
   8  -2   7  317.72    6.52
   8   2   8  172.10    4.65
   8   2   8  170.94    2.72
   8  -2   8  166.32    3.27
  -8   2  -8  173.27    4.18
  -8  -2  -8  175.57    4.61
   8  -2   8  165.45    4.42
  -8   2  -8  174.56    4.57
   8   2   9    9.56    1.25
   8   2   9    5.64    0.34
  -8   2  -9    4.71    0.78
   8  -2   9    5.28    0.54
  -8   2  -9    5.50    0.79
  -8  -2  -9    5.82    0.91
   8  -2   9    5.70    0.90
   8  -2  10  144.45    2.95
  -8   2 -10  143.11    3.88
   8   2  10  146.44    4.42
   8  -2  10  137.77    4.08
  -8   2 -10  147.37    4.24
  -8   2 -11   41.40    2.01
   8  -2  11   39.29    1.39
   8   2  11   41.36    2.34
  -8   2 -11   41.40    1.76
   8  -2  11   39.67    2.12
  -8   2 -11   41.98    2.20
  -8   2 -12   16.93    1.36
   8  -2  12   16.67    0.92
  -8   2 -12   17.06    1.15
  -8   2 -12   15.44    1.38
   8   2  12   17.80    1.59
   8  -2  12   16.40    1.43
  -8   2 -13   25.12    1.63
   8   2  13   23.42    1.83
  -8   2 -13   23.00    1.33
   8  -2  13   22.54    1.67
  -8   2 -14  176.73    4.67
  -8   2 -14  168.10    3.95
   8   2  14  178.21    5.24
   8  -2  14  165.62    4.75
  -8   2 -15  113.71    3.73
   8   2  15  109.97    2.93
  -8   2 -15  107.75    3.06
   8   2  15  106.08    4.07
   8  -2  15  106.77    3.76
   8   2  16   86.36    2.62
   8   2  16   88.59    3.75
  -8   2 -16   84.12    2.67
   8  -2  16   77.01    3.23
   8   2  17   17.10    1.18
  -8   2 -17   17.56    1.22
   8   2  17   15.88    1.67
   8  -2  17   13.89    1.44
   8   2  18   13.47    1.11
  -8   2 -18   15.02    1.13
   8   2  18   16.05    1.71
   8  -2  18   13.34    1.42
   8   2  19   13.48    1.16
  -8   2 -19   13.71    1.10
   8   2  19   14.10    1.64
   8  -2  19   12.31    1.38
   8   2  20   14.49    1.23
  -8   2 -20   14.51    1.14
   8   2  20   15.06    1.78
   8  -2  20   14.24    1.50
   8   2  21    1.30    0.52
   8   2  21   -0.40    0.80
   8  -2  21    0.71    0.76
   8   2  22   52.12    2.40
   8   2  22   55.42    3.31
   8  -2  22   50.25    2.82
   8   2  23    5.37    1.20
   8  -2  23    6.30    1.26
   8   2  24    9.54    1.54
   8  -2  24    8.21    1.24
   8   2  25    1.73    1.01
   8  -2  25    4.87    1.16
   8   2  26   34.66    2.82
   8  -2  26   35.91    2.52
   8  -2  27    8.54    1.43
  -8   3  32   17.33    2.01
  -8   3  31    2.72    1.14
  -8   3  30    1.55    1.04
  -8  -3  30    5.29    1.44
  -8   3  29    1.41    0.88
  -8  -3  29    2.07    1.01
  -8   3  28    1.10    0.88
  -8  -3  28    1.06    0.89
  -8   3  27   -0.64    0.96
  -8  -3  27    0.10    0.84
  -8   3  26   82.96    3.86
  -8  -3  26   86.59    4.17
  -8   3  25   35.64    2.50
  -8  -3  25   36.58    2.62
  -8   3  24   43.50    2.74
  -8  -3  24   47.05    2.97
  -8   3  23   43.78    2.71
  -8  -3  23   50.61    3.01
   8   3 -22    8.35    1.35
  -8   3  22    7.14    1.23
  -8  -3  22    9.36    1.43
   8   3 -21   23.21    2.01
  -8   3  21   26.08    2.04
  -8  -3  21   25.56    2.08
   8   3 -20    9.76    1.33
  -8   3  20   11.02    1.35
  -8  -3  20   13.77    1.59
   8   3 -19   46.20    2.66
  -8   3  19   47.56    2.61
  -8  -3  19   50.18    2.73
   8   3 -18   85.41    3.54
  -8   3  18   83.75    3.45
  -8  -3  18   91.21    3.64
   8   3 -17   43.26    2.48
  -8   3  17   37.06    2.29
  -8  -3  17   43.16    2.43
   8   3 -16    7.03    1.16
  -8   3  16    5.67    1.07
  -8  -3  16    6.73    1.06
   8   3 -15    7.71    1.11
  -8   3  15    5.34    0.96
   8   3 -15    6.07    0.80
  -8  -3  15    6.01    0.99
   8   3 -14    1.87    0.83
   8   3 -14    0.72    0.50
  -8  -3  14    0.60    0.62
   8   3 -14    0.70    0.64
  -8   3  14    0.29    0.73
   8   3 -13  141.56    4.32
   8   3 -13  143.54    3.77
   8   3 -13  144.72    4.23
  -8  -3  13  143.51    4.23
  -8   3  13  144.33    4.36
   8   3 -13  142.22    2.38
   8   3 -12  233.25    3.76
   8   3 -12  243.98    5.80
   8   3 -12  236.02    5.11
  -8  -3  12  242.10    5.61
   8   3 -12  249.67    5.69
  -8   3  12  234.10    5.75
  -8  -3  11  216.24    5.26
   8   3 -11  203.50    5.15
   8   3 -11  194.83    3.51
   8   3 -11  195.93    4.58
   8   3 -11  203.79    4.96
  -8  -3  11  205.65    4.98
  -8   3  11  196.33    5.18
   8  -3 -11  202.19    5.21
   8   3 -10  107.52    2.45
   8   3 -10  105.45    3.52
  -8  -3  10  116.49    3.65
   8   3 -10  104.71    3.16
   8   3 -10  111.93    3.41
  -8  -3  10  108.57    3.39
  -8   3  10  102.69    3.56
   8  -3 -10  103.40    3.53
   8   3  -9   29.27    1.79
   8   3  -9   28.30    1.22
   8   3  -9   29.15    1.67
  -8  -3   9   29.27    1.78
  -8  -3   9   26.48    0.79
  -8   3   9   23.16    1.66
   8  -3  -9   27.77    1.80
   8   3  -8    1.02    0.38
   8   3  -8    0.96    0.68
   8   3  -8    0.58    0.45
  -8   3   8    0.03    0.65
  -8  -3   8    0.29    0.23
  -8   3   8    0.06    0.56
   8  -3  -8   -0.10    0.50
   8   3  -7    1.81    0.45
   8   3  -7    1.87    0.68
   8   3  -7    1.67    0.50
  -8  -3   7    1.73    0.34
  -8   3   7    1.67    0.69
  -8   3   7    1.96    0.64
   8  -3  -7    1.25    0.66
   8   3  -6   13.30    1.24
   8   3  -6   13.83    0.98
   8   3  -6   10.73    0.99
  -8  -3   6   11.40    0.73
  -8   3   6    9.83    1.13
  -8   3   6   11.83    1.26
   8   3  -5  457.90    8.14
   8   3  -5  467.91    7.55
   8   3  -5  449.04    7.68
  -8   3   5  450.75    8.45
  -8  -3   5  442.78    6.86
  -8   3   5  494.08    8.66
   8   3  -4   33.44    1.60
   8   3  -4   33.44    1.77
   8   3  -4   33.10    1.57
  -8   3   4   37.86    2.07
  -8  -3   4   32.85    1.37
  -8   3   4   37.55    1.98
   8   3  -3  137.87    3.66
   8   3  -3  139.26    3.52
   8   3  -3  133.97    3.32
  -8  -3   3  136.83    3.16
  -8   3   3  128.87    3.89
  -8   3   3  137.21    3.96
   8   3  -2  369.18    6.75
   8   3  -2  370.55    6.76
  -8   3   2  358.00    6.33
   8   3  -2  359.55    6.29
  -8  -3   2  370.67    6.30
  -8   3   2  383.53    7.44
  -8   3   2  364.63    7.26
   8   3  -1   15.05    1.16
   8   3  -1   17.51    1.30
  -8   3   1   14.58    1.00
   8   3  -1   13.31    0.94
  -8  -3   1   16.26    1.12
  -8   3   1   14.91    1.31
  -8   3   1   14.94    1.38
   8   3   0    8.53    1.02
   8   3   0    6.38    0.86
   8   3   0    5.83    0.69
  -8   3   0    5.47    0.65
  -8  -3   0    5.96    0.82
  -8   3   0    6.73    0.99
  -8   3   0    6.89    1.05
   8   3   1  509.77    8.22
   8   3   1  508.85    8.83
   8   3   1  502.50    7.79
  -8   3  -1  490.68    7.74
  -8  -3  -1  513.71    8.48
  -8   3  -1  501.04    9.06
  -8   3  -1  524.64    9.19
   8   3   2   17.04    1.16
   8   3   2   19.76    1.50
   8   3   2   14.88    0.94
  -8   3  -2   12.20    0.84
  -8  -3  -2   17.43    1.27
  -8   3  -2   13.01    1.29
  -8   3  -2   11.79    1.23
   8   3   3  223.45    4.47
   8   3   3  208.57    5.14
  -8  -3  -3  218.24    4.98
  -8   3  -3  211.79    5.23
  -8   3  -3  212.89    5.26
   8   3   4  356.54    6.11
   8   3   4  338.07    7.07
  -8  -3  -4  348.13    6.90
  -8   3  -4  366.00    7.32
  -8   3  -4  348.28    7.15
   8   3   5    9.40    1.22
   8   3   5   10.23    0.87
  -8   3  -5    6.62    0.98
  -8  -3  -5    8.21    1.00
  -8   3  -5    7.24    0.99
  -8   3  -5    7.46    1.07
   8   3   6   11.14    1.22
   8   3   6   13.29    0.93
  -8   3  -6   10.89    1.11
  -8  -3  -6   11.76    1.19
   8  -3   6   11.91    1.21
  -8   3  -6   12.25    1.25
  -8   3  -7    5.59    0.90
   8   3   7    4.60    0.89
   8   3   7    4.93    0.60
   8  -3   7    5.16    0.88
  -8   3  -7    4.32    0.85
  -8   3  -8   -0.50    0.55
   8   3   8    0.78    0.63
   8   3   8    0.17    0.38
  -8   3  -8    0.32    0.54
   8  -3   8    0.77    0.58
  -8   3  -9   30.17    1.92
   8   3   9   30.46    1.30
   8   3   9   30.96    2.05
   8  -3   9   28.85    1.87
   8   3  10    2.05    0.48
   8   3  10    2.02    0.96
   8  -3  10    1.74    0.77
   8   3  11  378.63    5.83
   8   3  11  363.03    8.20
   8  -3  11  354.36    7.65
   8   3  12  491.09    7.06
   8   3  12  481.75    9.89
  -8   3 -12  464.35    8.69
   8  -3  12  483.63    9.30
   8   3  13   21.13    0.95
  -8   3 -13   20.64    1.53
   8   3  13   21.10    1.94
   8  -3  13   23.28    1.79
   8   3  14    5.98    1.14
   8   3  14    7.31    0.56
  -8   3 -14    7.53    0.95
   8  -3  14    6.07    1.01
   8   3  15   68.59    1.58
  -8   3 -15   66.04    2.72
   8   3  15   68.19    3.43
   8  -3  15   64.67    2.97
  -8   3 -16    5.13    0.90
   8   3  16    6.78    1.30
   8  -3  16    6.46    1.10
  -8   3 -17   84.14    3.15
   8   3  17   92.53    4.09
   8  -3  17   85.28    3.49
  -8   3 -18  105.32    3.60
   8   3  18  103.32    4.46
   8  -3  18  106.36    3.99
   8   3  19    7.70    1.43
  -8   3 -19    6.99    1.01
   8  -3  19    6.49    1.14
   8   3  20   15.32    1.89
  -8   3 -20   13.95    1.32
   8  -3  20   11.74    1.40
   8   3  21    4.08    1.12
  -8   3 -21    2.74    0.74
   8  -3  21    2.93    1.06
   8   3  22   -0.25    0.83
   8  -3  22    0.63    0.69
   8   3  23   12.27    1.75
   8  -3  23   13.19    1.51
   8  -3  24    1.30    0.80
  -8   4  28    2.01    0.91
  -8   4  27    1.72    0.98
  -8  -4  27    4.86    1.36
   8   4 -26    4.79    1.33
  -8   4  26    5.90    1.25
  -8  -4  26    6.34    1.40
   8   4 -25   15.45    1.96
  -8   4  25   15.50    1.92
  -8  -4  25   14.27    1.90
   8   4 -24    0.75    0.83
  -8   4  24    1.87    1.00
  -8  -4  24    2.91    1.14
   8   4 -23   19.66    2.02
  -8   4  23   19.03    2.03
  -8  -4  23   19.31    2.07
   8   4 -22   13.11    1.70
  -8   4  22   10.04    1.54
  -8  -4  22   13.72    1.79
   8   4 -21   52.60    3.11
  -8   4  21   48.38    2.97
  -8  -4  21   52.95    3.13
   8   4 -20    6.95    1.36
  -8   4  20    6.89    1.29
  -8  -4  20    8.95    1.45
   8   4 -19   20.26    1.95
  -8   4  19   21.84    2.01
  -8  -4  19   20.04    1.97
   8   4 -18   -0.40    0.75
  -8   4  18   -0.68    0.80
  -8  -4  18    1.30    0.95
   8   4 -17    2.71    0.89
  -8   4  17    4.16    0.98
   8   4 -16   42.81    2.64
   8   4 -16   41.76    1.97
  -8   4  16   40.58    2.55
   8   4 -15   88.06    1.77
   8   4 -15   93.80    3.83
   8   4 -15   97.07    3.07
  -8   4  15   96.16    3.87
   8   4 -15   87.61    1.79
   8   4 -14   79.31    3.50
   8   4 -14   75.61    1.84
   8   4 -14   81.85    2.84
  -8   4  14   78.41    3.52
   8   4 -14   72.53    1.82
   8   4 -13    0.69    0.35
   8   4 -13   -0.32    0.65
  -8   4  13    1.27    0.87
   8   4 -13    0.24    0.43
   8   4 -12  166.56    5.08
   8   4 -12  170.83    3.46
  -8   4  12  158.66    4.97
   8   4 -12  160.28    4.23
   8   4 -11   54.10    2.76
   8   4 -11   48.30    1.76
  -8   4  11   52.47    2.82
   8   4 -10   25.12    1.30
   8   4 -10   24.86    1.87
  -8   4  10   23.37    1.90
   8   4  -9    9.15    1.25
   8   4  -9    8.62    1.11
  -8   4   9    9.21    1.25
  -8  -4   9    7.59    0.55
   8   4  -8  111.96    3.85
   8   4  -8  110.82    3.67
  -8   4   8  112.08    4.01
  -8  -4   8  107.75    2.49
   8   4  -7    1.93    0.77
   8   4  -7    3.41    0.77
  -8   4   7    2.17    0.81
  -8  -4   7    3.24    0.48
   8   4  -6  192.26    5.10
  -8  -4   6  181.89    3.78
  -8   4   6  179.65    5.20
   8   4  -6  189.34    4.82
   8   4  -5   28.49    1.84
  -8  -4   5   26.88    1.34
  -8   4   5   25.78    1.92
   8   4  -5   27.49    1.71
   8   4  -4   85.20    3.18
   8   4  -4   86.39    3.04
  -8  -4   4   86.06    2.57
  -8   4   4   85.85    3.38
   8   4  -3    3.27    0.77
   8   4  -3    3.05    0.68
   8   4  -3    3.62    0.65
  -8  -4   3    3.82    0.65
  -8   4   3    3.81    0.97
   8   4  -2   46.60    2.27
   8   4  -2   45.20    2.12
  -8   4   2   50.75    2.59
   8   4  -2   50.78    2.03
  -8  -4   2   46.55    1.96
   8   4  -1    5.36    0.96
  -8   4   1    6.21    0.75
   8   4  -1    5.72    0.88
  -8  -4   1    5.96    0.83
   8   4  -1    6.60    0.88
  -8   4   1    6.25    1.04
   8   4   0  389.63    7.45
  -8   4   0  365.13    6.52
   8   4   0  379.71    7.12
  -8   4   0  375.84    7.92
   8   4   0  390.94    7.18
  -8  -4   0  376.25    7.12
   8   4   1   36.22    1.94
  -8   4  -1   35.55    1.55
   8   4   1   34.50    1.78
   8   4   1   39.04    2.00
  -8  -4  -1   37.27    1.93
  -8   4  -1   38.19    2.23
   8   4   2  110.54    3.39
  -8   4  -2   96.21    2.62
   8   4   2  105.79    3.17
   8   4   2  107.13    3.40
  -8  -4  -2  109.01    3.46
  -8   4  -2   97.12    3.61
   8   4   3  110.49    3.37
  -8   4  -3  101.68    2.58
  -8  -4  -3  110.56    3.58
   8   4   3  105.12    3.48
  -8   4  -3  103.19    3.71
   8   4   4    2.76    0.76
   8   4   4    2.00    0.85
  -8   4  -4    0.87    0.76
   8   4   5   17.69    1.33
   8   4   5   16.90    1.50
  -8   4  -5   16.86    1.51
   8   4   6   30.26    1.66
   8   4   6   27.19    1.86
  -8   4  -6   32.85    2.10
   8   4   7    6.13    0.88
   8   4   7    5.64    1.25
  -8   4  -7    5.18    1.12
   8   4   8  229.22    4.97
  -8   4  -8  224.56    5.89
   8   4   9  146.11    4.96
   8   4   9  156.13    3.90
  -8   4  -9  152.98    4.74
   8   4  10    0.05    0.70
   8   4  10    1.31    0.61
  -8   4 -10    0.77    0.73
   8   4  11    5.95    1.19
   8   4  11    7.83    0.89
  -8   4 -11    6.98    1.17
   8   4  12   14.39    1.64
  -8   4 -12   16.49    1.63
   8   4  12   16.09    1.17
  -8   4 -12   15.26    1.52
  -8   4 -13    8.76    1.25
   8   4  13    7.17    0.80
   8   4  13    6.58    1.27
  -8   4 -13    8.64    1.19
   8   4  14   24.31    1.34
  -8   4 -14   26.27    1.95
   8   4  14   23.82    2.17
  -8   4 -15   25.01    1.94
   8   4  15   26.51    2.34
  -8   4 -16   28.27    2.08
   8   4  16   32.84    2.61
  -8   4 -17   56.97    2.91
   8   4  17   61.17    3.57
   8   4  18    0.54    0.82
  -8   4 -18    0.12    0.68
   8   4  19    1.68    1.09
  -8   4 -19    1.17    0.76
   8   4  20    1.02    1.12
  -8   4 -20   -0.75    0.80
  -8   4 -21   13.45    1.53
   8   5 -23    1.88    1.05
  -8   5  23    0.77    0.90
   8   5 -22   44.15    3.15
  -8   5  22   39.60    2.95
   8   5 -21   -1.84    0.85
  -8   5  21   -1.07    1.07
   8   5 -20    0.16    0.93
  -8   5  20    1.22    0.96
   8   5 -19    5.59    1.26
  -8   5  19    9.30    1.66
   8   5 -18   28.94    2.42
  -8   5  18   25.62    2.31
   8   5 -17   28.59    2.37
  -8   5  17   24.45    2.30
   8   5 -17   31.27    1.74
   8   5 -16   52.58    3.20
  -8   5  16   49.05    3.07
   8   5 -16   49.28    2.21
   8   5 -15    3.28    1.04
  -8   5  15    2.27    0.97
   8   5 -15    2.36    0.64
   8   5 -14   52.91    3.12
   8   5 -14   50.64    1.83
  -8   5  14   55.35    3.16
   8   5 -14   55.25    2.41
   8   5 -13    2.27    0.99
  -8   5  13    0.27    0.80
   8   5 -13    1.75    0.62
   8   5 -12   52.10    3.08
  -8   5  12   47.36    2.92
   8   5 -12   49.14    2.33
   8   5 -11  103.85    4.27
  -8   5  11   95.22    4.08
   8   5 -10  153.20    5.19
  -8   5  10  155.99    5.29
   8   5  -9   19.49    1.84
  -8   5   9   14.09    1.68
   8   5  -8   74.16    3.45
  -8   5   8   70.75    3.42
  -8  -5   8   64.90    2.11
   8   5  -7   38.66    2.50
  -8   5   7   39.97    2.60
   8   5  -7   40.65    1.70
  -8  -5   7   37.91    1.67
   8   5  -6   15.03    1.59
   8   5  -6   16.81    1.17
  -8   5   6   17.50    1.75
  -8  -5   6   15.61    1.18
   8   5  -5   11.49    1.40
   8   5  -5   12.54    1.03
  -8  -5   5   12.60    1.07
  -8   5   5   12.19    1.49
   8   5  -4   16.93    1.63
  -8  -5   4   15.92    1.26
   8   5  -4   17.90    1.28
  -8   5   4   17.87    1.75
   8   5  -3  127.05    4.38
   8   5  -3  127.54    3.63
  -8   5   3  126.05    4.52
  -8  -5   3  121.29    3.61
   8   5  -2  242.38    6.21
   8   5  -2  240.88    5.42
  -8  -5   2  226.09    5.34
  -8   5   2  238.35    6.45
   8   5  -1    2.86    0.94
   8   5  -1    3.84    0.88
  -8  -5   1    3.06    0.80
  -8   5   1    3.53    1.08
   8   5   0    8.47    1.16
  -8   5   0    8.62    0.89
  -8  -5   0    8.51    1.10
   8   5   0    9.04    1.06
  -8   5   0    9.58    1.30
   8   5   1    7.88    1.15
  -8   5  -1    6.27    0.75
   8   5   1    8.36    1.06
  -8   5  -1    7.03    1.30
   8   5   2   60.97    2.81
  -8   5  -2   56.08    2.02
   8   5   2   54.14    2.61
  -8   5  -2   59.35    3.02
   8   5   3   15.25    1.47
   8   5   3   15.60    1.46
  -8   5  -3   16.27    1.69
   8   5   4   25.73    1.80
   8   5   4   23.32    1.81
  -8   5  -4   25.51    2.00
   8   5   5    0.39    0.67
   8   5   5    1.36    0.81
  -8   5  -5    0.84    0.78
   8   5   6    4.28    0.90
   8   5   6    2.56    0.98
  -8   5  -6    1.95    0.81
   8   5   7    9.29    1.15
   8   5   7    7.87    1.24
  -8   5  -7    9.84    1.32
   8   5   8    9.17    1.13
   8   5   8   10.40    1.43
  -8   5  -8    7.72    1.29
   8   5   9    9.29    1.13
   8   5   9   10.07    1.41
  -8   5  -9    7.89    1.27
   8   5  10    1.29    0.68
   8   5  10    0.06    0.78
  -8   5 -10    3.03    0.90
   8   5  11    5.94    0.93
  -8   5 -11    3.23    1.05
   8   5  11    5.33    1.25
  -8   5 -11    3.12    0.95
  -8   5 -12   22.70    2.03
   8   5  12   27.70    1.74
   8   5  12   23.69    2.22
  -8   5 -12   25.27    2.06
  -8   5 -13    2.31    0.99
   8   5  13    3.84    1.19
  -8   5 -13    0.46    0.75
  -8   5 -14   22.69    2.10
   8   5  14   28.46    2.51
  -8   5 -14   23.44    2.03
   8   5  15    1.04    1.06
  -8   5 -15    0.89    0.79
  -8   5 -15    0.68    0.82
   8   5  16    0.93    0.87
  -8   5 -16    0.88    0.83
  -8   5 -16    2.61    0.94
  -8   5 -17    0.67    0.90
  -8   5 -17    2.00    1.04
  -8   5 -18   -0.04    0.82
  -8   5 -18    0.34    0.85
  -8   5 -19    7.20    1.36
  -8   5 -19    8.12    1.37
  -8   5 -20   12.12    1.69
   8   6 -16    0.42    0.88
  -8   6  16    0.86    0.85
   8   6 -15   19.53    2.22
  -8   6  15   16.99    2.06
   8   6 -14    2.80    1.06
  -8   6  14   -1.03    0.96
   8   6 -13   25.24    2.39
  -8   6  13   25.70    2.40
   8   6 -12   38.89    2.92
  -8   6  12   41.24    2.90
   8   6 -11   97.78    4.52
  -8   6  11   95.75    4.42
   8   6 -10   19.10    2.13
  -8   6  10   18.07    2.02
   8   6  -9   37.01    2.75
  -8   6   9   34.15    2.65
   8   6  -8   17.89    2.01
  -8   6   8   18.03    1.97
   8   6  -7   18.53    1.93
  -8   6   7   15.94    1.84
   8   6  -6   16.46    1.84
  -8   6   6   14.65    1.78
   8   6  -5   30.57    2.40
   8   6  -5   31.01    1.81
  -8   6   5   34.03    2.61
   8   6  -4   35.15    2.54
  -8   6   4   34.46    2.58
   8   6  -4   33.73    1.92
   8   6  -3   21.80    2.05
  -8   6   3   22.64    2.14
   8   6  -3   22.22    1.59
   8   6  -2   18.80    1.92
   8   6  -2   18.04    1.51
  -8   6   2   17.77    1.90
   8   6  -1   96.02    4.07
  -8   6   1   97.76    4.21
   8   6  -1   94.96    3.53
   8   6   0   17.50    1.80
  -8   6   0   17.35    1.86
   8   6   0   15.66    1.52
   8   6   1   13.91    1.64
  -8   6  -1   13.18    1.66
   8   6   1   12.13    1.37
   8   6   2   32.35    2.36
   8   6   2   27.52    2.03
  -8   6  -2   30.68    2.45
   8   6   3   54.92    2.98
   8   6   3   54.42    2.87
  -8   6  -3   60.87    3.30
   8   6   4   14.23    1.67
   8   6   4   14.87    1.79
  -8   6  -4   11.16    1.56
   8   6   5   27.94    2.12
  -8   6  -5   24.81    2.17
   8   6   5   24.58    2.06
   8   6   6   21.23    1.91
   8   6   6   17.51    1.79
  -8   6  -6   19.91    1.93
   8   6   7    7.83    1.25
   8   6   7    7.86    1.37
  -8   6  -7    8.06    1.38
   8   6   8   39.19    2.46
   8   6   8   38.02    2.69
  -8   6  -8   36.85    2.60
   8   6   9    8.01    1.31
   8   6   9    7.46    1.34
  -8   6  -9    9.50    1.50
   8   6  10   40.36    2.47
   8   6  10   33.26    2.65
  -8   6 -10   34.36    2.53
  -8   6 -10   35.03    2.77
  -8   6 -11   37.30    2.82
  -8   6 -11   35.88    2.58
   8   6  11   38.71    2.84
  -8   6 -12   10.05    1.74
   8   6  12   10.93    1.64
  -8   6 -12    8.54    1.42
  -8   6 -13   27.67    2.55
  -8   6 -13   28.69    2.32
  -8   6 -14   10.70    1.67
  -8   6 -14   12.77    1.65
  -8   7   6    5.49    1.28
   8   7  -5    0.64    0.94
  -8   7   5   -2.32    1.10
   8   7  -4   -0.45    0.83
  -8   7   4   -1.27    0.99
   8   7  -3    0.33    0.87
  -8   7   3    1.98    1.05
   8   7  -2    6.28    1.40
  -8   7   2   10.05    1.61
   8   7  -1   18.24    2.10
  -8   7   1   21.94    2.20
   8   7   0   18.13    2.04
  -8   7   0   19.63    2.07
   8   7   1   -0.98    1.16
  -8   7  -1    0.85    0.92
   8   7   2   35.61    2.70
  -8   7  -2   36.09    2.75
   8   7   3   -0.35    0.80
   8   7   3    0.11    0.81
   8   7   4    3.67    1.10
  -8   7  -4    3.35    1.00
   8   7   4    1.74    0.94
   8   7   5    2.48    1.05
   8   7   5    2.63    1.03
  -8   7  -5    0.54    0.84
   8   7   6    4.29    1.14
   8   7   6    7.15    1.35
  -8   7  -6    5.92    1.35
   8   7   7   13.31    1.74
  -8   7  -7   14.51    1.86
   8   7   7   11.71    1.73
   8   7   8   31.98    2.67
  -8   7  -8   35.83    2.73
  -9   0  33    1.12    0.82
  -9   0  32    1.09    0.82
  -9   0  31  161.12    6.02
  -9   0  30    1.02    0.72
  -9   0  30    2.05    1.06
  -9   0  29   14.64    1.32
  -9   0  29   14.77    1.80
  -9   0  28    0.36    0.38
  -9   0  28    1.51    0.92
  -9   0  28    0.69    0.65
  -9   0  27    4.02    1.05
  -9   0  27    5.24    0.84
   9   0 -27    4.04    0.75
  -9   0  26    2.72    1.02
  -9   0  26    1.54    0.65
   9   0 -26    0.56    0.48
  -9   0  25   63.86    3.27
   9   0 -25   63.21    2.50
  -9   0  25   66.00    2.54
  -9   0  25   63.64    2.05
  -9   0  24    0.71    0.50
   9   0 -24    0.76    0.46
  -9   0  24    0.22    0.31
   9   0 -23  247.47    5.30
  -9   0  23  259.36    5.38
  -9   0  23  252.89    4.68
  -9   0  22   -0.41    0.43
  -9   0  22   -0.58    0.37
   9   0 -22    0.52    0.46
   9   0 -21   39.14    1.77
  -9   0  21   40.61    1.79
  -9   0  21   41.65    1.54
  -9   0  20    0.44    0.55
  -9   0  20   -0.32    0.43
  -9   0  20   -0.44    0.38
   9   0 -20    0.33    0.39
  -9   0  19   18.86    1.43
  -9   0  19   16.34    1.10
  -9   0  19   16.15    0.93
   9   0 -19   16.08    1.09
  -9   0  18    1.93    0.74
  -9   0  18    2.10    0.66
  -9   0  18    0.63    0.45
  -9   0  18    0.66    0.32
   9   0 -18    0.88    0.46
  -9   0  17  228.20    5.45
  -9   0  17  229.57    5.26
  -9   0  17  219.66    4.37
   9   0 -17  209.65    4.31
  -9   0  17  211.86    4.00
  -9   0  16   -0.21    0.38
  -9   0  16    0.02    0.37
  -9   0  16    0.10    0.29
   9   0 -16   -0.07    0.34
  -9   0  15   63.51    2.47
  -9   0  15   59.49    1.95
  -9   0  15   59.41    1.79
   9   0 -15   58.96    1.95
  -9   0  14    0.40    0.39
  -9   0  14    0.13    0.36
  -9   0  14    0.39    0.27
   9   0 -14    0.76    0.43
  -9   0  13   15.43    1.20
  -9   0  13   15.89    1.01
  -9   0  13   14.35    0.84
  -9   0  12    3.02    0.86
  -9   0  12    1.63    0.55
  -9   0  12    2.94    0.54
  -9   0  11  252.94    5.26
  -9   0  11  238.06    4.42
  -9   0  11  241.71    4.38
  -9   0  10    0.27    0.51
  -9   0  10    0.41    0.39
  -9   0  10   -0.33    0.32
  -9   0   9   30.38    1.56
   9   0  -9   27.01    1.26
  -9   0   9   27.91    1.27
  -9   0   9   27.27    1.27
   9   0  -8    0.68    0.57
  -9   0   8   -0.33    0.44
   9   0  -8   -0.23    0.40
  -9   0   8    0.50    0.41
  -9   0   8    0.59    0.42
   9   0  -7  102.61    2.91
  -9   0   7   96.47    2.51
   9   0  -7   98.36    2.56
  -9   0   7   99.39    2.57
   9   0  -6    0.35    0.49
  -9   0   6    0.51    0.41
   9   0  -6    0.46    0.49
   9   0  -5   40.37    1.78
  -9   0   5   38.72    1.60
   9   0  -5   36.77    1.58
   9   0  -4    0.26    0.53
  -9   0   4   -0.04    0.42
   9   0  -4    0.80    0.52
   9   0  -3   83.37    2.56
   9   0  -3   82.18    2.48
  -9   0   3   85.02    2.51
   9   0  -2    0.55    0.57
  -9   0   2    0.44    0.44
   9   0  -2    0.32    0.62
   9   0  -1   70.36    2.34
  -9   0   1   65.43    2.36
  -9   0   0    0.03    0.46
   9   0   0    0.08    0.52
  -9   0  -1   58.52    2.25
   9   0   1   60.92    2.26
  -9   0  -2    0.10    0.17
  -9   0  -2    0.02    0.43
   9   0   2   -0.37    0.56
  -9   0  -3   40.63    0.95
  -9   0  -3   43.12    1.99
   9   0   3   46.32    2.04
  -9   0  -4    0.33    0.21
  -9   0  -4   -0.02    0.53
   9   0   4    0.46    0.56
   9   0   5    8.75    1.03
  -9   0  -5    7.20    0.91
  -9   0  -6   -0.04    0.46
   9   0   6    0.00    0.52
  -9   0  -7    6.29    0.94
   9   0   7    6.15    0.90
  -9   0  -8    0.33    0.55
   9   0   8   -0.23    0.54
  -9   0  -9    0.58    0.54
   9   0   9    0.77    0.59
  -9   0 -10    0.23    0.49
   9   0  10   -0.11    0.57
   9   0  11    1.47    0.38
  -9   0 -11    1.77    0.65
   9   0  11    2.00    0.68
   9   0  12    0.48    0.31
   9   0  12   -0.45    0.58
   9   0  13   -0.17    0.35
   9   0  13   -0.12    0.65
   9   0  14   -0.17    0.35
   9   0  14   -0.10    0.65
   9   0  15    2.10    0.54
   9   0  15    1.62    0.81
   9   0  16    0.41    0.39
   9   0  16   -0.70    0.76
   9   0  17   11.37    1.02
   9   0  17   12.45    1.45
   9   0  18    0.06    0.41
   9   0  18   -0.06    0.66
   9   0  19    0.58    0.46
   9   0  19    0.54    0.68
   9   0  20    0.56    0.50
   9   0  20    1.67    0.86
   9   0  21   -0.32    0.56
   9   0  21   -0.82    0.84
   9   0  22    0.11    0.52
   9   0  22   -0.63    0.76
   9   0  23    6.12    0.94
   9   0  23    6.26    1.26
   9   0  24   -1.00    0.66
   9   0  24   -1.09    0.84
   9   0  25    0.90    0.89
   9   0  26   -0.18    0.87
   9   0  27    0.59    0.88
   9   0  28   -2.13    1.03
   9   0  29    1.45    1.06
  -9   1  34   79.21    3.68
  -9   1  33   31.61    2.29
  -9   1  32    4.87    1.44
  -9  -1  32    2.09    1.07
  -9   1  32    4.12    1.09
  -9  -1  31    5.51    1.31
  -9   1  31    5.54    1.12
  -9  -1  30    1.30    0.83
  -9   1  30    1.31    0.68
  -9  -1  29    4.06    1.16
  -9   1  29    6.36    1.04
  -9  -1  28   86.84    4.13
  -9   1  28   84.94    3.43
  -9  -1  27    3.73    1.10
  -9   1  27    5.90    0.99
  -9  -1  26   74.10    3.62
  -9   1  26   66.03    2.95
  -9  -1  25   14.53    1.75
   9   1 -25   16.78    1.07
  -9   1  25   17.18    1.53
  -9  -1  24   45.48    2.74
  -9   1  24   38.52    2.14
   9  -1 -24   41.89    2.26
   9   1 -24   44.79    1.69
  -9  -1  23   15.85    1.66
   9  -1 -23   15.34    1.32
  -9   1  23   13.94    1.32
   9   1 -23   15.99    0.98
  -9  -1  22   13.80    1.32
  -9  -1  22   14.19    1.54
   9  -1 -22   13.91    1.27
  -9   1  22   12.85    1.22
  -9  -1  22   12.49    0.86
   9   1 -22   13.96    0.89
  -9  -1  21   15.27    1.53
  -9  -1  21   19.27    1.47
  -9   1  21   16.79    1.37
  -9  -1  21   15.84    0.93
   9  -1 -21   14.95    1.29
   9   1 -21   16.09    0.91
  -9  -1  20  177.68    5.14
  -9  -1  20  190.41    4.83
  -9   1  20  178.54    4.55
   9  -1 -20  181.64    4.60
  -9  -1  20  182.49    3.49
   9   1 -20  177.55    3.43
  -9  -1  19   14.46    1.51
  -9  -1  19   13.09    1.25
  -9  -1  19   10.23    0.72
  -9   1  19    8.84    1.03
   9  -1 -19    8.46    1.00
   9   1 -19   10.35    0.73
  -9  -1  18   23.54    1.54
  -9  -1  18   23.73    1.72
  -9   1  18   21.54    1.44
  -9  -1  18   24.34    1.00
  -9  -1  18   22.10    0.62
   9   1 -18   22.76    0.96
   9  -1 -18   23.60    1.49
  -9  -1  17    1.79    0.70
  -9  -1  17    0.68    0.21
  -9  -1  17    1.02    0.62
  -9  -1  17    0.71    0.47
  -9  -1  17    0.31    0.25
  -9   1  17    0.08    0.49
   9  -1 -17   -0.04    0.44
  -9  -1  16   67.33    2.74
  -9  -1  16   66.42    2.69
  -9  -1  16   69.10    2.59
  -9   1  16   61.92    2.37
  -9  -1  16   66.94    1.64
  -9   1  16   66.06    2.29
  -9  -1  16   66.88    1.37
   9  -1 -16   67.15    2.44
  -9  -1  15    6.82    0.98
  -9  -1  15    6.31    0.85
  -9  -1  15    6.60    0.93
  -9  -1  15    6.00    0.48
  -9   1  15    5.92    0.83
  -9   1  15    5.23    0.69
   9  -1 -15    5.29    0.74
  -9  -1  15    6.95    0.46
  -9  -1  14  166.83    2.79
  -9  -1  14  171.25    4.45
  -9  -1  14  170.32    4.28
  -9  -1  14  171.07    4.21
  -9   1  14  168.60    4.03
  -9  -1  14  158.46    2.85
  -9   1  14  166.18    3.82
   9  -1 -14  169.86    4.01
  -9  -1  13    3.83    0.84
  -9  -1  13    5.11    0.53
  -9   1  13    3.87    0.82
  -9  -1  13    2.84    0.83
  -9  -1  13    6.98    1.01
  -9   1  13    1.31    0.64
  -9   1  13    2.12    0.56
   9  -1 -13    1.89    0.61
  -9  -1  12  288.48    4.47
  -9  -1  12  290.69    5.97
   9   1 -12  290.95    5.80
  -9   1  12  309.12    6.08
  -9  -1  12  289.89    5.73
  -9  -1  12  286.01    4.41
  -9   1  12  287.84    5.61
  -9   1  12  292.67    5.47
   9  -1 -12  291.96    5.64
  -9  -1  11   10.57    1.06
  -9  -1  11    9.67    0.68
  -9   1  11    9.05    1.06
   9   1 -11    6.57    0.85
  -9  -1  11   10.82    1.05
  -9  -1  11    6.08    0.54
   9   1 -11    6.15    0.54
  -9   1  11    9.59    0.94
  -9   1  11    8.77    0.97
   9  -1 -11    9.01    0.91
  -9  -1  10  282.85    5.60
  -9  -1  10  278.09    4.49
  -9   1  10  291.33    5.68
   9   1 -10  276.10    5.54
  -9  -1  10  283.29    5.27
  -9   1  10  275.55    5.36
  -9   1  10  279.85    5.29
   9   1 -10  267.50    4.45
  -9  -1  10  268.01    4.29
  -9  -1   9   13.92    1.12
  -9  -1   9   12.20    0.78
   9   1  -9   12.10    1.09
  -9   1   9   15.43    1.22
  -9  -1   9   15.40    1.06
  -9   1   9   14.27    1.13
  -9   1   9   14.97    1.11
   9   1  -9   12.62    0.77
  -9  -1   9   12.04    0.73
  -9  -1   8  294.77    5.16
  -9   1   8  303.15    5.73
   9   1  -8  295.06    5.73
  -9  -1   8  296.29    5.62
  -9  -1   8  293.93    4.87
  -9   1   8  289.13    5.43
  -9   1   8  282.62    5.50
   9   1  -8  285.77    4.84
  -9   1   7    5.66    0.80
   9   1  -7    5.45    0.91
  -9  -1   7    8.15    0.77
  -9  -1   7    9.39    0.98
  -9  -1   7    8.46    0.76
  -9   1   7    5.58    0.80
   9   1  -7    6.19    0.65
  -9   1   7    4.86    0.81
  -9  -1   6  388.62    5.97
  -9   1   6  395.86    6.80
   9   1  -6  380.54    6.89
  -9  -1   6  388.78    6.21
  -9  -1   6  394.49    6.57
   9  -1  -6  379.12    6.68
  -9   1   6  379.23    6.69
  -9   1   6  384.18    6.67
   9   1  -6  381.01    6.19
  -9  -1   5   15.74    0.86
  -9   1   5   11.62    1.02
  -9  -1   5   19.75    1.20
  -9  -1   5   17.27    1.09
   9  -1  -5   11.98    1.10
  -9   1   5   12.09    1.13
   9   1  -5   14.70    1.03
  -9   1   5   14.37    1.14
  -9   1   4  523.07    8.36
  -9  -1   4  514.28    7.19
  -9  -1   4  526.44    7.98
  -9  -1   4  533.03    8.09
   9  -1  -4  520.65    8.41
   9   1  -4  521.62    8.06
  -9   1   4  533.59    8.54
   9  -1  -3   10.84    0.95
  -9  -1   3    7.55    0.52
   9   1  -3    9.23    0.90
  -9  -1   3    9.89    0.86
  -9  -1   3    9.63    0.95
  -9   1   3   11.69    1.02
   9  -1  -3    9.00    1.02
   9  -1  -2  525.08    8.19
  -9  -1   2  490.88    6.66
  -9  -1   2  525.87    7.67
  -9  -1   2  539.75    8.31
   9   1  -2  537.84    8.33
  -9   1   2  541.28    8.58
   9  -1  -2  533.88    8.55
   9  -1  -1   29.19    1.46
  -9  -1   1   27.01    1.17
  -9  -1   1   26.57    1.48
  -9   1   1   29.39    1.63
   9  -1  -1   30.54    1.65
   9   1  -1   27.62    1.54
   9  -1   0  475.60    7.62
  -9  -1   0  480.61    7.95
  -9  -1   0  461.20    6.86
  -9   1   0  484.99    8.11
   9  -1   0  472.93    8.08
   9   1   0  487.07    8.02
   9  -1   1    9.67    0.95
  -9  -1  -1    6.81    0.57
   9   1   1    9.84    1.04
  -9  -1  -1    9.49    1.01
   9  -1   1   10.19    1.06
  -9   1  -1    9.40    1.07
   9  -1   2  513.67    8.01
  -9  -1  -2  493.69    6.98
  -9  -1  -2  519.25    8.63
  -9   1  -2  527.92    8.73
   9  -1   2  519.12    8.70
   9   1   2  530.29    8.73
  -9   1  -3    1.79    0.49
   9  -1   3    2.13    0.59
  -9  -1  -3    2.16    0.71
  -9   1  -3    2.51    0.69
  -9  -1  -3    1.20    0.32
   9   1   3    5.00    0.97
   9  -1   3    3.15    0.81
   9  -1   4  406.16    6.67
  -9   1  -4  391.09    6.27
   9   1   4  409.21    7.50
  -9  -1  -4  396.40    7.42
  -9   1  -4  410.80    7.66
   9  -1   4  403.31    7.47
  -9   1  -5    3.29    0.54
  -9  -1  -5    5.90    0.90
  -9   1  -5    3.08    0.82
   9   1   5    6.80    1.11
   9  -1   5    6.38    1.00
   9   1   6  226.66    5.26
  -9   1  -6  209.67    4.11
  -9  -1  -6  232.76    5.21
  -9   1  -6  217.55    5.26
   9  -1   6  220.68    5.16
  -9   1  -7    2.43    0.70
   9   1   7    4.61    0.94
  -9   1  -7    3.44    0.55
  -9  -1  -7    3.20    0.75
   9  -1   7    4.22    0.89
   9   1   8  131.25    3.97
  -9   1  -8  130.40    3.90
  -9   1  -8  119.69    2.97
   9   1   8  128.01    2.12
  -9  -1  -8  128.66    3.87
   9  -1   8  128.45    3.87
   9   1   9    7.35    1.09
  -9   1  -9    7.55    1.07
  -9   1  -9    6.09    0.70
   9   1   9    7.24    0.48
  -9  -1  -9    7.61    1.02
   9  -1   9    7.90    1.06
  -9   1 -10   72.31    2.31
   9   1  10   76.50    1.75
  -9   1 -10   71.64    1.87
   9   1  10   78.26    3.12
  -9   1 -10   73.66    2.99
   9  -1  10   77.46    3.05
   9   1  11    1.82    0.36
  -9   1 -11    2.07    0.55
  -9   1 -11    1.24    0.33
   9   1  11    3.29    0.90
  -9   1 -11    1.30    0.63
   9  -1  11    1.35    0.68
  -9   1 -12  104.46    3.00
   9   1  12  109.63    2.46
  -9   1 -12  103.81    2.31
   9   1  12  108.68    3.88
   9  -1  12  104.51    3.70
   9   1  13    6.18    0.61
  -9   1 -13    4.80    0.50
   9   1  13    4.99    1.08
   9  -1  13    4.42    0.93
   9   1  14   52.20    1.78
  -9   1 -14   47.56    1.47
   9   1  14   52.32    2.78
   9  -1  14   51.67    2.60
   9   1  15   10.47    0.85
  -9   1 -15   10.65    0.67
   9   1  15   11.34    1.44
   9  -1  15   10.58    1.31
   9   1  16    3.56    0.55
   9   1  16    3.88    1.13
   9  -1  16    1.90    0.68
   9   1  17    1.22    0.38
   9   1  17    1.44    0.80
   9  -1  17    1.58    0.68
   9   1  18   16.97    1.19
   9   1  18   16.58    1.71
   9  -1  18   15.86    1.61
   9   1  19    9.37    0.98
   9   1  19    8.14    1.35
   9  -1  19    5.69    1.08
   9   1  20   32.65    1.75
   9  -1  20   28.26    2.18
   9   1  20   31.67    2.39
   9   1  21    1.63    0.61
   9  -1  21    2.06    0.84
   9   1  21    0.33    0.79
   9  -1  21    1.27    0.69
   9   1  22    0.64    0.48
   9  -1  22    1.75    0.67
   9   1  22    1.90    0.90
   9  -1  22    0.55    0.74
   9  -1  23    5.50    1.08
   9   1  23    5.40    1.28
   9  -1  23    6.62    1.24
   9  -1  24   -0.33    0.61
   9   1  24    0.86    0.91
   9  -1  24    0.51    0.71
   9  -1  25    1.57    0.84
   9   1  25    0.56    0.83
   9  -1  25   -0.39    0.82
   9   1  26    3.79    1.14
   9  -1  26    3.89    1.08
   9   1  27    2.02    1.07
   9  -1  27   -0.87    0.85
   9  -1  28    3.00    1.02
  -9   2  35   -0.68    0.97
  -9   2  34    7.94    1.40
  -9   2  33    5.68    1.22
  -9   2  32    3.98    1.14
  -9  -2  31    3.35    1.36
  -9   2  31    5.48    1.11
  -9  -2  30    7.78    1.54
  -9   2  30    4.40    1.09
  -9  -2  29    0.09    0.94
  -9   2  29    3.06    0.99
  -9  -2  28   61.65    3.55
  -9   2  28   62.64    3.22
  -9  -2  27   49.46    3.09
  -9   2  27   48.04    2.75
  -9  -2  26   11.60    1.60
  -9   2  26   10.70    1.40
  -9  -2  25    7.62    1.31
  -9   2  25    5.00    1.03
  -9  -2  24   75.94    3.63
  -9   2  24   73.80    3.26
  -9  -2  23   17.47    1.77
  -9   2  23   20.68    1.74
  -9  -2  22   44.87    2.65
  -9   2  22   46.28    2.50
  -9  -2  21   58.67    2.98
  -9   2  21   55.68    2.70
  -9  -2  20   60.08    2.93
  -9   2  20   59.43    2.74
  -9  -2  19    5.84    1.07
  -9   2  19    6.71    1.02
  -9  -2  18   -0.32    0.66
  -9   2  18    0.79    0.65
   9  -2 -18    0.22    0.52
  -9  -2  17   41.91    2.28
  -9   2  17   45.20    2.28
   9  -2 -17   46.23    2.31
  -9  -2  16   18.21    1.52
  -9   2  16   15.91    1.37
   9  -2 -16   14.60    1.30
  -9  -2  15   74.48    2.91
  -9   2  15   71.55    2.82
   9  -2 -15   79.43    2.95
  -9  -2  14  114.61    3.68
   9   2 -14  111.22    3.34
  -9  -2  14  115.52    3.57
  -9   2  14  112.16    3.54
   9  -2 -14  119.85    3.66
   9   2 -13   63.21    2.69
  -9  -2  13   69.42    2.76
   9   2 -13   63.79    2.43
  -9  -2  13   69.22    2.62
  -9   2  13   60.15    2.55
  -9   2  13   66.94    2.57
   9   2 -13   61.26    1.24
   9  -2 -13   64.60    2.62
   9   2 -12  255.50    5.73
  -9  -2  12  264.93    5.82
   9   2 -12  255.47    5.42
  -9  -2  12  256.58    5.48
  -9   2  12  251.24    5.60
  -9   2  12  268.58    5.62
   9  -2 -12  275.42    5.85
   9   2 -12  250.35    3.84
   9   2 -11   40.68    2.05
  -9  -2  11   40.78    2.02
   9   2 -11   39.35    1.93
  -9  -2  11   37.63    1.83
  -9   2  11   34.85    1.92
  -9   2  11   36.42    1.88
   9   2 -11   38.38    1.18
   9  -2 -11   34.53    1.86
   9   2 -10   59.48    2.42
  -9  -2  10   59.96    2.38
   9   2 -10   57.31    2.27
  -9  -2  10   62.16    2.26
  -9   2  10   57.73    2.44
  -9  -2  10   59.26    1.18
  -9   2  10   63.52    2.43
   9   2 -10   57.14    1.59
  -9  -2  10   55.52    1.16
   9  -2 -10   63.56    2.52
   9   2  -9   54.92    2.29
  -9  -2   9   56.96    2.30
  -9  -2   9   54.78    2.05
   9   2  -9   52.04    2.19
  -9  -2   9   53.69    1.26
  -9   2   9   49.53    2.21
  -9   2   9   53.47    2.24
   9  -2  -9   52.05    2.25
   9   2  -9   52.95    1.61
   9   2  -8   61.22    2.36
  -9  -2   8   59.96    2.29
  -9   2   8   62.90    2.33
   9   2  -8   59.32    2.29
  -9  -2   8   56.47    2.02
  -9   2   8   58.81    2.39
  -9  -2   8   59.16    1.46
  -9   2   8   63.48    2.41
   9   2  -8   57.59    1.77
   9   2  -7   93.35    2.90
  -9  -2   7   96.93    2.94
  -9   2   7   92.66    2.87
  -9  -2   7   93.29    2.57
   9   2  -7   95.08    2.58
  -9   2   7   89.19    3.02
  -9  -2   7   94.20    2.08
  -9   2   7   95.80    3.05
   9   2  -7   96.08    2.46
   9   2  -6  196.34    4.39
   9   2  -6  197.55    3.97
  -9  -2   6  196.00    4.39
  -9   2   6  203.93    4.46
  -9  -2   6  192.60    3.90
   9   2  -6  195.28    3.92
  -9  -2   6  198.78    3.57
  -9   2   6  210.46    4.77
  -9   2   6  202.10    4.75
   9   2  -5   35.72    1.68
   9   2  -5   33.50    1.47
  -9  -2   5   33.72    1.61
   9   2  -5   33.65    1.34
  -9   2   5   30.49    1.55
  -9  -2   5   29.42    1.25
  -9  -2   5   35.12    1.32
  -9   2   5   30.71    1.70
  -9   2   5   29.92    1.70
  -9  -2   4  172.87    3.92
   9   2  -4  172.29    3.91
   9   2  -4  178.10    3.87
  -9   2   4  176.29    4.00
   9   2  -4  170.55    3.39
  -9  -2   4  176.12    3.52
  -9   2   4  181.68    4.37
  -9   2   4  178.15    4.38
   9   2  -3   55.43    2.01
  -9  -2   3   53.11    1.94
   9   2  -3   55.09    2.04
   9   2  -3   51.58    1.57
  -9   2   3   47.99    1.91
  -9  -2   3   55.33    1.84
  -9   2   3   51.51    2.23
  -9   2   3   50.67    2.22
   9   2  -2  195.13    4.02
   9   2  -2  193.65    4.27
  -9  -2   2  189.05    3.97
   9   2  -2  188.31    3.38
  -9   2   2  188.87    4.06
  -9  -2   2  187.21    3.94
   9  -2  -2  195.17    4.59
  -9   2   2  195.59    4.61
  -9   2   2  191.16    4.59
  -9  -2   1   89.62    2.48
   9   2  -1   92.58    2.51
   9   2  -1   95.46    2.87
   9   2  -1   90.87    1.99
  -9   2   1   87.95    2.58
  -9  -2   1   95.46    2.68
   9  -2  -1   91.97    3.03
  -9   2   1   94.83    3.06
  -9   2   1   88.90    3.01
   9   2   0  251.48    4.59
   9   2   0  253.16    5.27
   9   2   0  247.50    3.88
  -9  -2   0  251.46    5.00
   9  -2   0  253.38    5.55
  -9   2   0  267.70    5.68
   9   2   1  107.38    3.20
   9   2   1  103.38    2.52
   9   2   1   99.12    1.96
  -9  -2  -1  102.89    2.98
   9  -2   1  104.37    3.29
  -9   2  -1  106.60    3.31
   9   2   2  118.00    2.65
   9   2   2  120.65    3.49
   9   2   2  115.64    2.08
  -9  -2  -2  118.08    3.32
  -9   2  -2  124.44    3.70
   9  -2   2  123.26    3.61
   9   2   3   91.33    2.17
   9   2   3   93.46    3.09
   9   2   3   86.82    1.67
  -9  -2  -3   91.63    2.95
   9  -2   3   85.49    3.04
  -9   2  -3   92.34    3.12
   9   2   4   82.33    1.96
   9   2   4   79.71    2.92
   9  -2   4   82.26    2.29
   9   2   4   77.65    1.54
  -9   2  -4   82.25    2.66
  -9  -2  -4   83.67    2.87
   9  -2   4   85.01    3.01
  -9   2  -4   87.60    3.07
   9   2   5   62.73    1.60
   9   2   5   65.68    2.66
   9  -2   5   62.21    1.94
  -9   2  -5   61.15    2.27
  -9  -2  -5   62.81    2.54
   9  -2   5   64.08    2.61
  -9   2  -5   63.69    2.62
   9   2   6   55.14    1.40
   9   2   6   53.91    2.48
   9  -2   6   54.60    1.79
  -9   2  -6   53.45    2.15
  -9  -2  -6   57.19    2.47
  -9   2  -6   58.48    2.54
   9  -2   6   57.49    2.51
   9   2   7   51.71    1.24
   9   2   7   54.36    2.54
   9  -2   7   48.80    1.68
  -9   2  -7   48.41    2.07
  -9  -2  -7   51.50    2.39
   9  -2   7   50.57    2.41
  -9   2  -7   51.64    2.43
   9   2   8   21.64    1.69
   9  -2   8   19.80    1.06
  -9   2  -8   21.04    1.41
  -9  -2  -8   20.92    1.58
  -9   2  -8   20.20    1.58
   9  -2   8   21.88    1.62
   9  -2   9   23.60    1.14
  -9   2  -9   21.52    1.46
   9   2   9   21.60    1.71
  -9   2  -9   21.59    1.64
   9  -2   9   22.22    1.65
   9  -2  10   15.57    0.94
  -9   2 -10   15.26    1.26
   9   2  10   13.72    1.44
   9  -2  10   14.67    1.37
  -9   2 -11   28.50    1.71
   9  -2  11   31.07    1.33
  -9   2 -11   33.09    1.59
   9   2  11   33.93    2.18
   9  -2  11   29.49    1.93
  -9   2 -12    6.87    0.78
  -9   2 -12    7.37    0.92
   9   2  12    6.94    0.63
   9  -2  12    7.72    0.71
   9   2  12    5.96    1.04
   9  -2  12    8.16    1.15
   9   2  13   32.54    1.35
  -9   2 -13   34.71    1.94
   9  -2  13   35.66    1.43
   9   2  13   32.93    2.24
  -9   2 -13   32.49    1.57
   9  -2  13   34.97    2.14
  -9   2 -14   28.95    1.81
   9   2  14   31.14    1.38
   9   2  14   30.18    2.19
  -9   2 -14   28.65    1.47
   9  -2  14   31.40    2.07
   9   2  15   18.82    1.12
  -9   2 -15   21.25    1.61
  -9   2 -15   17.94    1.18
   9   2  15   17.75    1.72
   9  -2  15   19.94    1.72
   9   2  16    4.68    0.62
  -9   2 -16    4.69    0.70
   9   2  16    3.27    0.88
   9  -2  16    4.42    0.94
   9   2  17    9.07    0.89
  -9   2 -17    8.76    0.92
   9   2  17    8.90    1.40
   9  -2  17    8.87    1.24
   9   2  18    0.29    0.38
  -9   2 -18    0.90    0.40
   9   2  18    1.17    0.98
   9  -2  18    0.99    0.73
   9   2  19    3.32    0.60
   9   2  19    3.79    1.11
  -9   2 -19    3.37    0.63
   9  -2  19    4.07    1.03
   9   2  20   10.36    1.04
   9   2  20   11.00    1.55
   9  -2  20   10.01    1.37
   9   2  21    4.79    1.13
   9  -2  21    5.54    1.09
   9   2  22    0.58    0.83
   9  -2  22    0.28    0.74
   9   2  23    0.00    0.84
   9  -2  23    0.27    0.68
   9   2  24    0.50    0.84
   9  -2  24    0.62    0.81
   9   2  25    0.40    0.88
   9  -2  25    3.59    1.11
   9  -2  26    1.01    0.74
  -9   3  32   31.73    2.72
  -9   3  31   21.15    2.21
  -9   3  30    9.03    1.44
  -9   3  29    1.08    0.83
  -9  -3  29    2.94    1.14
  -9   3  28   14.86    1.78
  -9  -3  28   12.94    1.85
  -9   3  27    3.09    1.09
  -9  -3  27    2.41    1.03
  -9   3  26   27.26    2.25
  -9  -3  26   27.53    2.42
  -9   3  25   34.00    2.46
  -9  -3  25   35.08    2.66
  -9   3  24   81.06    3.72
  -9  -3  24   76.94    3.80
  -9   3  23   67.60    3.36
  -9  -3  23   60.76    3.35
  -9   3  22   51.45    2.92
  -9  -3  22   61.23    3.29
   9   3 -21    1.88    0.97
  -9   3  21   -0.61    0.72
  -9  -3  21    2.18    1.01
   9   3 -20    0.63    0.84
  -9   3  20    1.09    0.74
  -9  -3  20    1.40    0.81
   9   3 -19    1.68    0.77
  -9   3  19    1.76    0.82
  -9  -3  19    4.71    1.04
   9   3 -18   64.61    3.11
  -9   3  18   65.65    3.10
  -9  -3  18   64.61    3.07
   9   3 -17   45.61    2.59
  -9   3  17   52.37    2.73
  -9  -3  17   50.67    2.64
   9   3 -16   65.34    3.02
  -9   3  16   62.76    2.95
   9   3 -16   65.17    2.54
  -9  -3  16   66.14    2.96
   9   3 -15   52.63    2.69
   9   3 -15   53.81    2.30
  -9  -3  15   53.44    2.61
  -9   3  15   50.77    2.61
   9   3 -14    7.89    1.17
   9   3 -14    9.46    1.05
  -9  -3  14   11.15    1.28
   9   3 -14    8.64    1.05
  -9   3  14    8.50    1.19
   9   3 -14    7.86    0.37
   9   3 -13    1.93    0.30
   9   3 -13    1.92    0.74
   9   3 -13    2.59    0.65
  -9  -3  13    1.20    0.69
   9   3 -13    3.23    0.76
  -9   3  13    2.24    0.80
   9   3 -12   60.47    2.73
   9   3 -12   57.56    2.52
  -9  -3  12   58.43    2.53
   9   3 -12   58.21    2.39
  -9   3  12   58.29    2.72
   9   3 -12   57.69    1.57
   9   3 -11  110.44    2.48
   9   3 -11  107.65    3.64
  -9   3  11  104.52    3.68
   9   3 -11  111.14    3.50
   9   3 -11  110.77    3.39
  -9  -3  11  111.00    3.50
   9   3 -10   10.71    1.20
  -9  -3  10   13.77    1.30
   9   3 -10   10.55    0.77
   9   3 -10    8.67    1.02
  -9  -3  10   10.29    1.08
   9   3 -10   10.48    1.01
  -9  -3  10    9.29    0.38
  -9   3  10    9.26    1.16
  -9  -3   9   35.98    1.94
   9   3  -9   34.44    1.96
   9   3  -9   35.40    1.44
   9   3  -9   36.14    1.84
  -9  -3   9   34.06    1.00
  -9   3   9   31.01    1.95
  -9   3   9   35.07    2.04
   9  -3  -9   36.40    2.10
   9   3  -8    8.00    0.74
   9   3  -8    8.69    1.07
  -9  -3   8    7.37    0.92
   9   3  -8    7.99    0.93
  -9  -3   8    7.95    0.54
  -9   3   8    7.80    1.02
  -9   3   8    8.63    1.09
   9  -3  -8    7.88    1.01
   9   3  -7    7.56    0.75
   9   3  -7    7.76    0.97
   9   3  -7    7.53    0.83
  -9  -3   7    6.99    0.59
  -9   3   7    5.83    0.97
  -9   3   7    7.61    1.03
   9   3  -6   25.66    1.61
   9   3  -6   24.84    1.33
   9   3  -6   22.49    1.35
  -9   3   6   22.92    1.67
  -9  -3   6   22.32    1.05
  -9   3   6   26.24    1.72
   9   3  -5    2.22    0.55
   9   3  -5    2.35    0.64
   9   3  -5    1.50    0.45
  -9  -3   5    1.75    0.41
  -9   3   5    1.25    0.69
  -9   3   5    1.78    0.59
   9   3  -4    4.45    0.69
   9   3  -4    4.00    0.77
  -9   3   4    2.93    0.60
   9   3  -4    3.38    0.55
  -9  -3   4    2.82    0.50
  -9   3   4    3.32    0.75
  -9   3   4    2.56    0.77
   9   3  -3   32.38    1.72
   9   3  -3   31.41    1.66
  -9   3   3   30.32    1.55
   9   3  -3   30.91    1.46
  -9  -3   3   31.06    1.45
  -9   3   3   31.42    1.89
  -9   3   3   31.72    1.93
   9   3  -2   16.86    1.25
   9   3  -2   16.24    1.27
  -9   3   2   15.02    1.07
   9   3  -2   14.32    0.96
  -9  -3   2   16.84    1.11
  -9   3   2   16.28    1.45
  -9   3   2   16.63    1.42
   9   3  -1   59.39    2.39
   9   3  -1   59.31    2.24
  -9   3   1   54.65    2.01
   9   3  -1   58.42    1.94
  -9  -3   1   55.51    2.11
  -9   3   1   63.35    2.69
  -9   3   1   59.01    2.61
   9   3   0   18.51    1.41
   9   3   0   15.75    1.17
  -9   3   0   16.82    1.07
   9   3   0   16.75    0.99
  -9  -3   0   16.61    1.17
  -9   3   0   17.56    1.51
  -9   3   0   15.93    1.34
   9   3   1   20.02    1.46
   9   3   1   19.40    1.21
   9   3   1   17.83    1.02
  -9   3  -1   19.08    1.12
  -9  -3  -1   19.40    1.33
  -9   3  -1   18.86    1.51
  -9   3  -1   19.69    1.53
   9   3   2    1.89    0.61
   9   3   2    3.00    0.58
   9   3   2    2.24    0.43
  -9  -3  -2    2.63    0.61
  -9   3  -2    2.57    0.69
  -9   3  -2    1.80    0.76
   9   3   3    9.94    0.85
   9   3   3    9.50    1.15
   9   3   3    8.80    0.71
  -9  -3  -3   10.90    1.09
  -9   3  -3   11.16    1.17
  -9   3  -3   11.42    1.26
   9   3   4    5.12    0.65
   9   3   4    4.58    0.93
  -9  -3  -4    4.12    0.79
   9  -3   4    5.15    0.86
  -9   3  -4    3.48    0.84
   9   3   5    1.31    0.43
   9   3   5    0.94    0.65
  -9   3  -5    1.09    0.53
  -9  -3  -5    0.95    0.57
   9  -3   5    2.42    0.73
  -9   3  -6    7.23    0.96
   9   3   6    5.40    0.60
   9   3   6    5.75    1.02
   9  -3   6    5.57    0.98
  -9   3  -7    2.87    0.76
   9   3   7    2.68    0.86
   9   3   7    1.90    0.46
   9  -3   7    1.91    0.76
  -9   3  -8    0.95    0.52
   9   3   8    1.55    0.36
   9   3   8    1.90    0.74
   9  -3   8    1.15    0.65
   9   3   9    6.36    0.59
   9   3   9    6.48    1.10
   9  -3   9    7.85    1.13
   9   3  10   -0.11    0.65
   9   3  10   -0.59    0.39
   9  -3  10   -0.10    0.62
   9   3  11   11.88    1.48
   9   3  11    9.12    0.62
   9  -3  11   10.49    1.34
  -9   3 -12    2.68    0.82
   9   3  12    3.62    0.94
   9   3  12    3.60    0.41
   9  -3  12    3.02    0.84
  -9   3 -13    2.72    0.73
   9   3  13    1.77    0.77
   9   3  13    1.60    0.27
   9  -3  13    1.99    0.83
   9   3  14    9.98    1.43
  -9   3 -14    8.18    0.99
   9  -3  14    7.73    1.15
  -9   3 -15    1.31    0.54
   9   3  15    0.68    0.81
   9  -3  15    3.01    0.91
   9   3  16    1.75    0.78
  -9   3 -16    1.26    0.58
   9  -3  16    0.58    0.64
   9   3  17   11.60    1.61
  -9   3 -17   12.71    1.21
   9  -3  17   12.87    1.48
   9   3  18    0.27    0.82
  -9   3 -18    0.57    0.65
   9  -3  18    0.12    0.64
   9   3  19    2.61    1.07
  -9   3 -19    2.48    0.80
   9  -3  19    1.09    0.65
   9   3  20    0.72    0.82
   9  -3  20   -0.18    0.76
   9   3  21    0.63    0.83
   9  -3  21    4.32    1.58
   9   3  22    0.11    1.05
   9  -3  22    0.22    0.77
   9  -3  23    2.54    0.89
   9  -3  24    5.27    1.07
  -9   4  28    0.62    0.92
  -9   4  27   23.50    2.30
  -9  -4  27   27.77    2.58
  -9   4  26    7.43    1.53
  -9  -4  26    6.66    1.50
   9   4 -25   -1.51    1.07
  -9   4  25   -0.73    0.92
  -9  -4  25    2.42    1.32
   9   4 -24   15.69    1.94
  -9   4  24   15.20    1.81
  -9  -4  24   13.77    1.87
   9   4 -23    4.39    1.22
  -9   4  23    4.69    1.22
  -9  -4  23    6.15    1.28
   9   4 -22    7.56    1.38
  -9   4  22    5.98    1.35
  -9  -4  22    6.68    1.31
   9   4 -21   33.95    2.56
  -9   4  21   32.96    2.50
  -9  -4  21   34.14    2.55
   9   4 -20   11.10    1.59
  -9   4  20   10.67    1.55
  -9  -4  20   11.79    1.63
   9   4 -19    9.79    1.51
  -9   4  19    5.56    1.17
  -9  -4  19    9.27    1.41
   9   4 -18    7.94    2.14
  -9   4  18    7.85    1.30
  -9  -4  18   10.89    1.46
   9   4 -17    0.68    0.75
  -9   4  17    2.90    0.97
   9   4 -17    3.08    0.71
  -9  -4  17    1.59    0.85
   9   4 -16    0.45    0.70
   9   4 -16   -0.29    0.47
  -9   4  16    0.27    0.76
   9   4 -15    9.77    1.45
   9   4 -15   12.22    1.17
  -9   4  15   11.02    1.47
   9   4 -15    9.87    0.54
   9   4 -15   10.27    0.56
   9   4 -14   30.99    1.13
   9   4 -14   33.72    2.28
  -9   4  14   31.78    2.25
   9   4 -14   33.28    1.87
   9   4 -13    2.47    0.95
   9   4 -13    2.18    0.40
  -9   4  13    0.63    0.70
   9   4 -13    1.99    0.66
   9   4 -12   19.52    1.80
   9   4 -12   21.42    1.11
  -9   4  12   17.67    1.74
   9   4 -12   19.99    1.50
   9   4 -11   91.63    3.64
   9   4 -11   90.37    2.54
  -9   4  11   93.74    3.79
   9   4 -10    0.28    0.39
   9   4 -10    1.77    0.82
  -9   4  10   -0.06    0.72
  -9  -4  10   -0.09    0.23
   9   4  -9    0.35    0.36
   9   4  -9    1.22    0.81
   9   4  -9    1.08    0.58
  -9   4   9    0.51    0.73
  -9  -4   9    0.97    0.33
   9   4  -8   36.70    2.18
   9   4  -8   36.22    1.73
  -9  -4   8   38.20    1.39
  -9   4   8   36.84    2.34
   9   4  -8   36.88    2.05
   9   4  -7    2.66    0.61
   9   4  -7    3.53    0.92
  -9   4   7    4.95    1.01
  -9  -4   7    2.46    0.46
   9   4  -7    3.41    0.71
   9   4  -6   39.24    2.22
   9   4  -6   37.97    1.87
   9   4  -6   37.89    2.00
  -9   4   6   36.11    2.27
  -9  -4   6   38.53    1.56
   9   4  -5    6.74    0.88
   9   4  -5    6.32    0.98
   9   4  -5    7.54    0.95
  -9  -4   5    8.22    0.81
  -9   4   5    8.71    1.38
   9   4  -4   21.85    1.47
   9   4  -4   22.22    1.67
   9   4  -4   20.66    1.44
  -9   4   4   18.64    1.64
  -9  -4   4   20.42    1.22
   9   4  -3    0.27    0.59
   9   4  -3    1.79    0.65
   9   4  -3    0.60    0.45
  -9   4   3    1.78    0.49
  -9  -4   3    1.51    0.52
  -9   4   3   -0.02    0.63
   9   4  -2   19.96    1.52
   9   4  -2   23.86    1.65
  -9   4   2   21.78    1.37
   9   4  -2   23.04    1.47
  -9   4   2   23.66    1.83
  -9  -4   2   24.11    1.46
   9   4  -1    8.58    1.08
   9   4  -1    7.16    0.99
  -9   4   1    8.36    0.84
   9   4  -1    6.52    0.83
  -9  -4   1    8.91    0.95
  -9   4   1    8.65    1.22
   9   4   0   31.26    1.94
   9   4   0   30.96    1.83
  -9   4   0   27.63    1.46
   9   4   0   28.56    1.61
  -9  -4   0   28.75    1.71
  -9   4   0   31.08    2.08
   9   4   1   10.69    1.25
   9   4   1    8.84    1.07
  -9   4  -1    8.94    0.84
   9   4   1    8.73    0.93
  -9  -4  -1    7.79    0.98
  -9   4  -1    8.08    1.16
   9   4   2   16.62    1.49
   9   4   2   16.83    1.33
   9   4   2   17.03    1.22
  -9   4  -2   14.67    1.01
  -9  -4  -2   16.60    1.35
  -9   4  -2   15.47    1.56
   9   4   3    5.29    0.74
   9   4   3    7.24    0.96
   9   4   3    6.44    1.06
  -9   4  -3    7.62    1.21
   9   4   4   15.32    1.50
   9   4   4   17.24    1.31
  -9   4  -4   16.01    1.57
   9   4   5   11.64    1.42
   9   4   5   10.33    1.03
  -9   4  -5    9.16    1.26
   9   4   6   21.98    1.40
   9   4   6   20.50    1.79
  -9   4  -6   18.48    1.65
   9   4   7    3.37    0.91
   9   4   7    5.49    0.78
  -9   4  -7    4.23    0.95
   9   4   8    6.19    1.19
   9   4   8    4.90    0.75
  -9   4  -8    2.69    0.89
   9   4   9    0.69    0.80
   9   4   9    0.44    0.48
  -9   4  -9   -0.07    0.67
   9   4  10    3.46    1.00
   9   4  10    4.41    0.72
  -9   4 -10    5.28    1.07
   9   4  11    8.97    1.38
   9   4  11    9.05    0.88
  -9   4 -11   11.35    1.46
  -9   4 -12    1.11    0.80
   9   4  12   -0.26    0.85
   9   4  12    0.64    0.43
  -9   4 -12    1.17    0.73
   9   4  13    7.70    1.41
  -9   4 -13    9.47    1.31
   9   4  14    3.18    1.03
  -9   4 -14    4.29    0.96
   9   4  15    0.94    0.81
  -9   4 -15    0.93    0.70
  -9   4 -16   -0.03    0.65
   9   4  16    0.64    0.85
   9   4  17    2.75    1.19
  -9   4 -17    0.49    0.72
   9   4  18    0.62    0.90
  -9   4 -18    0.14    0.66
   9   4  19    3.46    1.09
  -9   4 -19    1.06    0.67
   9   5 -23   27.42    2.52
  -9   5  23   25.08    2.44
   9   5 -22   19.84    2.22
  -9   5  22   20.46    2.26
   9   5 -21   37.78    2.94
  -9   5  21   34.62    2.72
   9   5 -20    1.52    1.05
  -9   5  20    2.02    1.06
   9   5 -19    3.34    1.16
  -9   5  19    0.42    0.80
   9   5 -18    0.37    0.78
  -9   5  18    1.56    0.98
   9   5 -17   14.32    1.82
  -9   5  17   11.05    1.60
   9   5 -17   13.27    1.22
   9   5 -16   18.12    1.98
  -9   5  16   17.22    1.95
   9   5 -16   20.03    1.50
   9   5 -15   41.34    2.81
  -9   5  15   42.70    2.84
   9   5 -15   42.76    2.21
   9   5 -14   19.10    1.99
  -9   5  14   19.64    2.05
   9   5 -14   18.98    1.48
   9   5 -13   41.44    2.79
   9   5 -13   43.23    1.79
  -9   5  13   43.73    2.86
   9   5 -13   41.82    2.22
   9   5 -12   23.38    2.11
   9   5 -12   21.94    1.33
  -9   5  12   22.20    2.09
   9   5 -12   21.80    1.63
   9   5 -11    5.71    0.81
   9   5 -11    4.85    1.19
  -9   5  11    6.42    1.38
   9   5 -10   91.48    3.93
   9   5 -10   89.65    2.94
  -9   5  10   88.60    3.99
   9   5  -9   19.16    1.88
  -9   5   9   20.32    1.96
   9   5  -8   73.67    3.43
  -9   5   8   73.23    3.57
   9   5  -7   11.36    1.46
  -9   5   7   10.31    1.47
  -9  -5   7   10.00    0.90
   9   5  -6   44.18    2.61
  -9   5   6   41.03    2.65
  -9  -5   6   39.83    1.79
   9   5  -5    3.15    0.95
  -9   5   5    4.84    1.12
  -9  -5   5    2.60    0.68
   9   5  -4   70.48    3.23
  -9   5   4   74.05    3.50
  -9  -5   4   70.10    2.60
   9   5  -3    4.17    1.07
  -9  -5   3    2.57    0.68
  -9   5   3    5.48    1.21
   9   5  -2  127.28    4.34
  -9   5   2  124.41    3.65
  -9   5   2  135.30    4.78
  -9  -5   2  128.18    3.83
   9   5  -1   17.06    1.62
  -9   5   1   14.78    1.20
  -9  -5   1   14.59    1.33
  -9   5   1   15.94    1.73
   9   5   0  115.77    4.02
  -9   5   0  105.13    3.15
  -9   5   0  111.98    4.32
   9   5   1    6.47    1.09
   9   5   1    8.69    1.27
  -9   5  -1    8.46    1.42
   9   5   2  101.81    3.69
   9   5   2  103.22    3.57
  -9   5  -2  107.63    4.22
   9   5   3    5.76    1.12
  -9   5  -3    4.06    1.19
   9   5   4   92.70    3.44
  -9   5  -4   91.31    3.89
   9   5   5    3.81    0.94
  -9   5  -5    5.21    1.24
   9   5   6   84.50    3.24
  -9   5  -6   88.31    3.82
   9   5   7    3.78    0.91
   9   5   7    4.57    1.24
  -9   5  -7    5.46    1.23
   9   5   8   65.97    3.50
   9   5   8   74.09    2.92
  -9   5  -8   71.13    3.41
   9   5   9    2.59    0.81
   9   5   9    1.29    0.92
  -9   5  -9    4.25    1.08
   9   5  10   42.31    2.16
   9   5  10   43.76    2.93
  -9   5 -10   42.13    2.64
   9   5  11    7.86    1.03
   9   5  11    6.32    1.30
  -9   5 -11    7.41    1.22
  -9   5 -12   33.73    2.48
   9   5  12   36.47    2.77
  -9   5 -12   36.43    2.51
  -9   5 -13    2.39    1.06
   9   5  13    2.44    1.10
  -9   5 -13    3.96    1.07
  -9   5 -14   17.77    1.87
   9   5  14   21.67    2.32
  -9   5 -14   21.54    2.04
   9   5  15    0.41    0.97
  -9   5 -15    2.15    0.99
  -9   5 -15    0.47    0.76
  -9   5 -16   13.70    1.71
  -9   5 -16   14.68    1.77
  -9   5 -17    3.77    1.09
  -9   5 -17    3.15    1.02
  -9   5 -18   10.53    1.60
  -9   5 -18    9.98    1.49
  -9   5 -19    1.60    0.80
  -9   5 -19    1.94    0.91
   9   6 -16   25.17    2.44
  -9   6  16   28.71    2.59
   9   6 -15    1.51    0.98
  -9   6  15    1.43    0.95
   9   6 -14   20.29    2.20
  -9   6  14   21.72    2.22
   9   6 -13    2.29    1.08
  -9   6  13    4.28    1.30
   9   6 -12   19.60    2.09
  -9   6  12   22.04    2.21
   9   6 -12   18.13    1.60
   9   6 -11   16.55    1.99
  -9   6  11   14.70    1.90
   9   6 -10   42.44    2.97
  -9   6  10   45.60    3.07
   9   6  -9    1.13    0.90
  -9   6   9    2.67    1.14
   9   6  -8   13.78    1.74
  -9   6   8   15.96    1.94
   9   6  -7   -0.63    0.87
  -9   6   7    0.91    0.98
   9   6  -6   13.98    1.79
  -9   6   6   15.78    1.83
   9   6  -5    5.47    1.28
  -9   6   5    4.93    1.31
   9   6  -4   21.90    2.05
  -9   6   4   20.15    2.07
   9   6  -3    3.59    1.04
  -9   6   3    2.41    1.05
   9   6  -2   30.40    2.33
  -9   6   2   32.61    2.55
   9   6  -2   30.68    1.94
   9   6  -1    1.28    0.88
  -9   6   1    2.07    0.99
   9   6  -1    3.63    0.88
   9   6   0   26.46    2.15
   9   6   0   27.92    2.01
  -9   6   0   26.57    2.24
   9   6   1    0.85    0.85
  -9   6  -1    1.73    1.00
   9   6   1    1.32    0.68
   9   6   2   19.14    1.83
   9   6   2   20.43    1.77
  -9   6  -2   20.75    2.05
   9   6   3    1.58    0.81
   9   6   3    2.03    0.86
  -9   6  -3    1.82    0.94
   9   6   4   16.94    1.71
   9   6   4   15.46    1.68
  -9   6  -4   14.09    1.71
   9   6   5    1.92    0.89
  -9   6  -5   -0.10    0.84
   9   6   6   18.36    1.74
  -9   6  -6   18.09    1.91
   9   6   7   -1.12    0.78
  -9   6  -7    1.92    1.04
   9   6   8   15.63    1.56
  -9   6  -8   17.22    1.90
   9   6   9    2.31    1.07
  -9   6  -9   -0.58    0.80
  -9   6 -10   13.96    1.84
  -9   6 -10   12.11    1.56
  -9   6 -11    1.65    1.10
  -9   6 -11    0.86    0.79
  -9   6 -12    6.27    1.40
  -9   6 -12    3.89    1.18
  -9   6 -13    2.55    1.23
  -9   6 -13    1.35    0.98
  -9   6 -14    5.57    1.26
   9   7  -4    5.50    1.44
   9   7  -3    5.63    1.34
   9   7  -2   -0.96    0.90
  -9   7   2    0.52    0.90
   9   7  -1    4.47    1.30
  -9   7   1    5.31    1.36
   9   7   0    1.34    1.00
  -9   7   0    3.86    1.18
   9   7   1    7.00    1.46
  -9   7  -1   10.65    1.69
   9   7   2    1.15    0.93
  -9   7  -2   -0.89    0.97
   9   7   3    5.11    1.15
  -9   7  -3    5.79    1.29
   9   7   4   -0.92    0.92
  -9   7  -4   -0.76    0.91
   9   7   5    5.13    1.15
  -9   7  -5    4.75    1.20
  -9   7  -6    0.79    0.97
  -9   7  -7    3.53    1.18
 -10   0  32    1.19    1.02
 -10   0  31   -0.53    1.01
 -10   0  31    0.24    0.63
 -10   0  30   90.33    4.34
 -10   0  30   91.30    3.30
 -10   0  29   -0.51    0.79
 -10   0  29   -0.34    0.54
 -10   0  28  136.89    5.20
 -10   0  28  137.39    4.01
 -10   0  27    1.02    0.92
 -10   0  27    0.04    0.49
  10   0 -27    0.37    0.46
 -10   0  26   53.57    3.08
 -10   0  26   63.18    2.49
  10   0 -26   54.26    2.34
 -10   0  25   -1.29    0.92
 -10   0  25    0.08    0.47
 -10   0  25   -0.13    0.36
  10   0 -25   -0.64    0.55
 -10   0  24   21.21    1.40
 -10   0  24   19.11    1.07
  10   0 -24   17.92    1.25
 -10   0  23   -0.39    0.53
 -10   0  23    0.84    0.39
  10   0 -23   -0.08    0.39
 -10   0  22  362.97    6.56
 -10   0  22  356.37    5.95
  10   0 -22  351.01    6.53
 -10   0  21    0.11    0.42
 -10   0  21    0.09    0.29
  10   0 -21   -0.24    0.43
 -10   0  20  112.80    3.05
 -10   0  20  113.24    2.73
  10   0 -20  111.59    3.03
 -10   0  19   -0.27    0.49
 -10   0  19   -0.25    0.30
  10   0 -19   -0.29    0.37
 -10   0  18    1.17    0.49
 -10   0  18    1.22    0.44
  10   0 -18    1.34    0.41
 -10   0  18    0.86    0.35
 -10   0  17   -0.37    0.50
 -10   0  17   -0.65    0.50
 -10   0  17   -0.33    0.46
  10   0 -17   -0.63    0.43
 -10   0  17   -0.03    0.29
 -10   0  16  347.60    6.82
 -10   0  16  326.03    5.69
 -10   0  16  315.02    5.39
  10   0 -16  313.81    5.66
 -10   0  15    0.06    0.38
 -10   0  15   -0.19    0.40
 -10   0  15    0.02    0.27
 -10   0  14  635.33   10.36
 -10   0  14  622.44    9.18
 -10   0  14  602.11    8.94
 -10   0  13    0.40    0.45
 -10   0  13    0.33    0.42
 -10   0  13   -0.02    0.30
 -10   0  12  410.37    7.49
 -10   0  12  411.55    6.60
 -10   0  12  393.66    6.45
 -10   0  11    0.20    0.41
 -10   0  11    0.18    0.30
 -10   0  11    0.27    0.41
 -10   0  10   30.68    1.62
  10   0 -10   28.34    1.31
 -10   0  10   27.39    1.30
 -10   0  10   28.14    1.31
 -10   0   9    0.58    0.49
  10   0  -9    0.38    0.56
 -10   0   9    0.22    0.35
 -10   0   9    0.00    0.40
  10   0  -9   -0.10    0.47
  10   0  -8  584.93    9.35
  10   0  -8  580.21    8.71
 -10   0   8  554.01    8.66
 -10   0   8  573.76    8.63
  10   0  -7    0.43    0.54
 -10   0   7    0.73    0.38
  10   0  -7    0.60    0.45
  10   0  -6  880.65   12.99
 -10   0   6  885.90   12.50
  10   0  -6  883.55   12.48
  10   0  -5    0.48    0.56
 -10   0   5    0.12    0.40
  10   0  -5   -0.06    0.43
  10   0  -4   34.45    1.69
  10   0  -4   34.77    1.62
 -10   0   4   35.31    1.63
  10   0  -3    2.37    0.66
 -10   0   3    0.45    0.45
  10   0  -3    0.91    0.69
  10   0  -2  922.68   13.35
 -10   0   2  918.88   13.42
  10   0  -2  925.93   13.31
 -10   0   1    0.94    0.54
  10   0  -1    0.30    0.55
 -10   0   0  579.71    9.47
  10   0   0  571.57    9.39
 -10   0  -1    0.44    0.46
  10   0   1    0.12    0.54
 -10   0  -2  287.92    3.92
 -10   0  -2  300.22    5.98
  10   0   2  286.80    5.91
 -10   0  -3    0.20    0.16
 -10   0  -3    0.84    0.52
  10   0   3    1.11    0.63
 -10   0  -4  330.29    4.48
 -10   0  -4  351.57    6.83
  10   0   4  340.14    6.71
 -10   0  -5    0.68    0.56
  10   0   5    0.61    0.67
 -10   0  -6  392.93    7.57
  10   0   6  372.12    7.42
 -10   0  -7   -0.23    0.50
  10   0   7   -0.15    0.55
 -10   0  -7    0.12    0.11
 -10   0  -8   16.88    1.48
  10   0   8   18.00    1.47
 -10   0  -9   -0.04    0.50
  10   0   9    1.03    0.67
  10   0  10   17.45    1.52
  10   0  11    0.84    0.69
  10   0  12  118.72    4.09
  10   0  13   -0.21    0.62
  10   0  14   41.16    2.42
  10   0  15   -0.24    0.37
  10   0  15    0.03    0.78
  10   0  16   70.19    2.36
  10   0  16   61.97    3.13
  10   0  17    0.37    0.41
  10   0  17    1.12    0.82
  10   0  18    1.22    0.50
  10   0  18    1.01    0.71
  10   0  19   -0.20    0.46
  10   0  19    0.87    0.80
  10   0  20    0.27    0.49
  10   0  20   -0.29    0.76
  10   0  21    0.62    0.54
  10   0  21   -0.84    0.77
  10   0  22   -0.56    0.80
  10   0  23    0.31    0.80
  10   0  24    5.75    1.26
  10   0  25   -0.22    0.79
  10   0  26   17.91    2.08
  10   0  27   -0.11    0.88
 -10   1  34    4.70    1.06
 -10   1  33   29.75    2.22
 -10  -1  32   14.89    2.02
 -10   1  32   13.95    1.57
 -10  -1  31   -0.26    0.91
 -10   1  31    0.79    0.71
 -10  -1  30    7.73    1.49
 -10   1  30   10.09    1.27
 -10  -1  29    2.19    1.01
 -10   1  29    2.22    0.83
 -10  -1  28    1.64    0.98
 -10   1  28    1.37    0.72
 -10  -1  27   71.60    3.68
 -10   1  27   74.51    3.13
 -10  -1  26    0.88    0.81
 -10   1  26    0.97    0.59
 -10  -1  25  122.14    4.66
 -10   1  25  121.83    3.94
  10   1 -25  133.01    3.09
 -10  -1  24   23.03    2.01
 -10  -1  24   23.99    1.21
 -10   1  24   22.57    1.64
  10   1 -24   24.21    1.18
 -10  -1  23    6.35    1.15
 -10   1  23    6.50    0.93
 -10  -1  23    7.66    0.68
  10  -1 -23    6.02    0.84
  10   1 -23    7.79    0.68
 -10  -1  22   10.84    1.36
 -10  -1  22   11.32    0.78
 -10   1  22   11.35    1.21
  10   1 -22   11.37    0.78
  10  -1 -22   11.41    1.15
 -10  -1  21   16.80    1.64
 -10   1  21   16.43    1.38
 -10  -1  21   18.11    0.94
  10  -1 -21   16.11    1.34
  10   1 -21   18.36    0.94
 -10   1  21   17.39    1.26
 -10  -1  20   25.82    1.91
 -10  -1  20   25.32    1.68
 -10   1  20   23.74    1.53
 -10  -1  20   22.50    1.01
 -10   1  20   25.02    1.47
  10  -1 -20   25.36    1.60
 -10  -1  20   21.59    0.60
 -10  -1  19  451.87    8.93
 -10  -1  19  482.40    8.71
 -10   1  19  457.54    8.24
 -10  -1  19  473.18    6.74
  10  -1 -19  465.56    8.28
 -10  -1  19  446.53    5.92
 -10   1  19  458.84    7.88
 -10  -1  18   67.78    2.89
 -10  -1  18   70.24    2.74
 -10   1  18   64.16    2.49
 -10  -1  18   68.53    1.75
 -10   1  18   65.03    2.33
  10  -1 -18   64.97    2.47
 -10  -1  18   65.67    1.40
 -10  -1  17    0.50    0.24
 -10  -1  17    0.08    0.51
 -10  -1  17    2.42    0.74
 -10   1  17    0.67    0.50
 -10  -1  17    0.77    0.36
 -10   1  17   -0.28    0.45
  10  -1 -17   -0.12    0.52
 -10  -1  16    1.10    0.62
 -10  -1  16    0.80    0.25
 -10   1  16    0.64    0.57
 -10  -1  16   -0.02    0.47
 -10  -1  16    1.16    0.61
 -10  -1  16    0.44    0.25
 -10   1  16    0.04    0.52
 -10   1  16    0.09    0.36
  10  -1 -16    0.41    0.41
 -10  -1  15   20.40    0.83
 -10  -1  15   21.54    1.52
 -10  -1  15   20.72    1.42
 -10   1  15   22.15    1.54
 -10  -1  15   20.38    1.47
 -10   1  15   20.75    1.36
 -10  -1  15   18.78    0.81
 -10   1  15   20.44    1.26
  10  -1 -15   20.71    1.33
 -10  -1  14    0.77    0.51
 -10  -1  14    1.31    0.36
 -10   1  14    1.60    0.58
 -10  -1  14    1.41    0.57
 -10   1  14   -0.09    0.54
 -10  -1  14   -0.78    0.37
 -10   1  14   -0.09    0.37
  10  -1 -14   -0.49    0.47
 -10  -1  13  296.96    4.79
 -10  -1  13  307.58    6.37
 -10   1  13  322.66    6.46
 -10  -1  13  298.48    6.04
 -10  -1  13  317.78    4.81
 -10   1  13  311.73    5.99
 -10   1  13  300.13    5.77
  10  -1 -13  310.71    5.99
 -10  -1  12   81.90    2.00
 -10  -1  12   85.44    2.90
  10   1 -12   85.09    2.84
 -10   1  12   79.69    2.83
 -10  -1  12   80.70    2.63
 -10   1  12   74.49    2.58
 -10  -1  12   83.61    1.96
  10   1 -12   84.77    2.02
 -10   1  12   77.46    2.52
 -10  -1  11  177.52    3.39
 -10  -1  11  176.72    4.37
  10   1 -11  181.15    4.38
 -10   1  11  179.16    4.42
 -10  -1  11  178.10    4.07
 -10   1  11  177.27    4.13
  10   1 -11  184.47    3.43
 -10   1  11  175.55    4.04
 -10  -1  11  180.66    3.28
 -10  -1  10   20.92    1.38
 -10  -1  10   20.77    1.01
  10   1 -10   22.02    1.43
 -10   1  10   26.19    1.52
 -10  -1  10   23.42    1.30
 -10   1  10   24.22    1.41
  10   1 -10   22.04    1.05
 -10   1  10   22.96    1.33
 -10  -1  10   23.08    0.99
 -10  -1   9   17.37    1.09
 -10   1   9   15.74    1.19
  10   1  -9   16.59    1.28
 -10  -1   9   15.90    1.18
 -10  -1   9   17.71    0.97
 -10   1   9   14.80    1.07
 -10   1   9   16.17    1.19
  10   1  -9   17.45    0.96
 -10   1   8    0.24    0.42
  10   1  -8    0.16    0.54
 -10  -1   8    0.87    0.43
 -10  -1   8   -0.09    0.43
 -10  -1   8    0.47    0.36
 -10   1   8    0.38    0.44
  10   1  -8    0.25    0.37
 -10   1   8    0.24    0.54
 -10  -1   7   52.08    1.68
 -10   1   7   51.17    2.06
  10   1  -7   53.31    2.17
 -10  -1   7   49.88    1.99
 -10  -1   7   50.25    1.77
  10  -1  -7   51.98    2.06
  10   1  -7   52.13    1.77
 -10   1   7   53.58    2.07
 -10   1   7   53.61    2.05
 -10  -1   6   26.91    1.12
 -10   1   6   28.28    1.49
  10   1  -6   27.91    1.61
 -10  -1   6   26.28    1.38
 -10  -1   6   25.23    1.26
  10   1  -6   26.79    1.33
 -10   1   6   28.67    1.49
 -10   1   6   27.47    1.50
  10  -1  -6   27.10    1.48
 -10  -1   5   85.58    2.02
 -10   1   5   88.97    2.72
 -10  -1   5   86.70    2.49
 -10  -1   5   86.44    2.49
  10  -1  -5   87.78    2.76
  10   1  -5   88.42    2.51
 -10   1   5   88.44    2.76
 -10   1   5   89.47    2.76
  10  -1  -4  217.40    4.67
 -10  -1   4  226.58    3.64
 -10  -1   4  222.51    4.35
 -10  -1   4  226.44    4.54
 -10   1   4  219.62    4.80
  10  -1  -4  214.81    4.76
  10   1  -4  222.86    4.54
  10  -1  -3  176.01    4.05
 -10  -1   3  179.60    2.91
 -10  -1   3  174.34    3.64
 -10  -1   3  177.10    4.01
 -10   1   3  184.88    4.29
  10   1  -3  177.85    4.02
  10  -1  -3  176.75    4.20
  10  -1  -2   36.36    1.65
 -10  -1   2   33.81    0.88
 -10  -1   2   32.50    1.34
 -10  -1   2   36.13    1.65
  10  -1  -2   37.84    1.81
 -10   1   2   39.33    1.85
  10   1  -2   32.00    1.63
  10  -1  -1  131.51    3.33
 -10  -1   1  128.32    2.83
 -10  -1   1  132.81    3.51
  10  -1  -1  131.14    3.58
 -10   1   1  132.88    3.61
  10   1  -1  134.31    3.51
  10  -1   0  689.56   10.40
 -10  -1   0  697.81   10.73
 -10  -1   0  668.87    9.44
  10   1   0  683.76   10.73
  10  -1   0  683.82   10.86
 -10   1   0  714.48   10.99
  10  -1   1   32.37    1.56
 -10  -1  -1   30.88    1.15
 -10  -1  -1   30.92    1.71
 -10   1  -1   31.91    1.74
  10   1   1   32.54    1.78
  10  -1   1   34.06    1.81
  10  -1   2  464.93    7.64
 -10  -1  -2  455.96    6.54
 -10  -1  -2  482.24    8.28
 -10   1  -2  469.83    8.38
  10  -1   2  460.66    8.25
  10   1   2  461.32    8.24
 -10   1  -3  346.89    5.53
  10  -1   3  341.10    6.10
 -10  -1  -3  326.61    4.88
 -10  -1  -3  333.35    6.72
 -10   1  -3  363.23    6.94
  10   1   3  334.30    6.73
  10  -1   3  338.50    6.74
  10  -1   4    0.56    0.44
 -10   1  -4    0.46    0.33
 -10  -1  -4    0.94    0.50
 -10   1  -4    0.69    0.62
  10   1   4    0.58    0.68
  10  -1   4   -0.39    0.57
 -10   1  -5  104.37    2.56
 -10  -1  -5   99.03    3.43
 -10   1  -5  112.31    3.55
  10   1   5  109.52    3.49
  10  -1   5  104.61    3.42
 -10  -1  -6  152.86    4.24
 -10   1  -6  149.95    4.26
 -10   1  -6  143.82    3.17
 -10  -1  -6  151.30    4.18
  10   1   6  150.45    4.27
  10  -1   6  142.42    4.14
  10   1   7    0.73    0.65
 -10   1  -7    1.55    0.71
 -10   1  -7    1.39    0.41
 -10  -1  -7    1.12    0.58
  10  -1   7    0.93    0.56
  10   1   8   13.09    1.33
 -10   1  -8   11.93    1.22
 -10   1  -8   12.31    0.88
 -10  -1  -8   10.79    1.16
  10  -1   8   10.98    1.15
 -10   1  -9   26.04    1.31
  10  -1   9   24.75    1.73
  10   1   9   27.08    1.86
 -10   1 -10   42.13    1.71
  10   1  10   43.43    1.14
 -10   1 -10   42.41    1.36
  10  -1  10   39.88    2.24
  10   1  10   44.72    2.43
  10   1  11   78.32    1.78
 -10   1 -11   77.07    2.43
 -10   1 -11   79.23    1.91
  10   1  11   75.20    3.25
  10  -1  11   74.81    3.13
  10   1  12    5.25    0.49
 -10   1 -12    4.46    0.45
  10   1  12    5.67    1.06
  10  -1  12    3.33    0.84
  10   1  13   49.96    1.57
 -10   1 -13   50.24    1.43
  10   1  13   52.36    2.80
  10  -1  13   47.64    2.58
  10   1  14  111.44    2.62
 -10   1 -14  111.12    2.27
  10  -1  14  100.28    3.85
  10   1  14  105.56    4.09
  10   1  15   16.45    1.00
 -10   1 -15   17.04    0.77
  10   1  15   16.16    1.70
  10  -1  15   16.72    1.59
  10   1  16    7.77    0.76
  10   1  16    5.43    1.18
  10  -1  16    6.53    1.20
  10   1  17   95.64    2.69
  10   1  17   91.03    3.98
  10  -1  17   87.43    3.73
  10   1  18   29.36    1.51
  10   1  18   28.95    2.26
  10  -1  18   26.78    2.12
  10   1  19    8.67    0.89
  10   1  19   11.29    1.59
  10  -1  19    9.75    1.37
  10   1  20   12.04    1.05
  10   1  20   10.95    1.51
  10  -1  20   11.02    1.48
  10   1  21    3.20    1.16
  10  -1  21    2.17    0.97
  10   1  22    2.04    0.97
  10  -1  22    2.43    1.05
  10  -1  23   24.80    2.23
  10   1  23   23.00    2.28
  10   1  24    5.58    1.37
  10  -1  24    2.86    1.01
  10  -1  25   27.11    2.40
  10   1  25   23.72    2.36
  10   1  26    1.46    1.05
  10  -1  26   -0.30    0.88
  10  -1  27   30.77    2.61
  10  -1  28    1.26    1.05
 -10   2  35    4.51    1.18
 -10   2  34    3.03    1.08
 -10   2  33   14.17    1.78
 -10   2  32   26.18    2.30
 -10  -2  31    1.69    1.04
 -10   2  31    0.28    0.83
 -10  -2  30   12.18    1.81
 -10   2  30   10.28    1.47
 -10  -2  29    1.00    0.89
 -10   2  29    1.02    0.78
 -10  -2  28    8.51    1.51
 -10   2  28    5.64    1.16
 -10  -2  27   41.15    2.83
 -10   2  27   40.81    2.54
 -10  -2  26   84.74    4.00
 -10   2  26   88.73    3.68
 -10  -2  25   33.86    2.50
 -10   2  25   30.96    2.14
 -10  -2  24  120.64    4.60
 -10   2  24  125.20    4.31
 -10  -2  23   41.06    2.60
 -10   2  23   41.01    2.39
 -10  -2  22    0.94    0.80
 -10   2  22    0.81    0.66
 -10  -2  21   67.25    3.18
 -10   2  21   70.53    3.08
 -10  -2  20  226.86    6.04
 -10   2  20  231.03    5.77
 -10  -2  19   55.02    2.74
 -10   2  19   58.79    2.69
 -10  -2  18    6.11    1.02
 -10   2  18    5.94    0.96
 -10  -2  17    3.02    0.85
 -10   2  17    0.43    0.60
  10  -2 -17    1.50    0.61
 -10  -2  16  213.20    5.37
 -10   2  16  216.50    5.35
 -10   2  16  230.96    5.32
  10  -2 -16  225.98    5.45
  10   2 -15   41.42    2.03
 -10  -2  15   40.90    2.12
 -10   2  15   33.45    1.94
 -10   2  15   33.54    1.87
  10  -2 -15   35.07    2.00
 -10  -2  14  181.67    4.84
  10   2 -14  182.96    4.56
 -10  -2  14  173.52    4.53
 -10   2  14  175.60    4.65
 -10   2  14  183.04    4.60
  10  -2 -14  185.39    4.76
  10   2 -14  179.68    2.77
 -10  -2  13   62.93    2.65
  10   2 -13   60.05    2.45
 -10  -2  13   61.59    2.51
 -10   2  13   66.45    2.67
 -10   2  13   72.95    2.70
  10  -2 -13   69.71    2.72
  10   2 -13   63.86    1.50
 -10  -2  12  359.26    7.10
  10   2 -12  352.47    6.84
 -10  -2  12  348.04    6.64
 -10  -2  12  346.51    4.42
 -10  -2  12  334.16    4.39
 -10   2  12  353.70    7.02
 -10   2  12  357.37    6.88
  10   2 -12  348.93    5.19
  10  -2 -12  357.32    7.09
 -10  -2  11  362.07    7.07
  10   2 -11  351.06    6.88
 -10  -2  11  355.74    6.60
 -10   2  11  351.45    7.01
 -10  -2  11  350.66    4.77
  10   2 -11  351.45    5.45
 -10   2  11  372.57    7.01
 -10  -2  11  344.40    4.77
  10  -2 -11  373.52    7.17
  10   2 -10   95.54    3.18
 -10  -2  10  101.14    3.22
 -10   2  10   96.01    3.16
  10   2 -10   98.36    3.15
 -10  -2  10   95.15    2.86
 -10  -2  10   97.97    1.92
 -10   2  10   99.90    3.26
 -10   2  10   95.93    3.13
  10   2 -10   99.97    2.37
  10   2  -9    1.25    0.61
 -10  -2   9    0.58    0.56
  10   2  -9    0.42    0.33
 -10  -2   9   -0.31    0.50
 -10   2   9    1.91    0.61
  10   2  -9    1.03    0.60
 -10  -2   9    0.79    0.28
 -10   2   9    0.17    0.53
 -10   2   9    0.44    0.43
  10   2  -8   28.37    1.60
 -10  -2   8   26.61    1.56
  10   2  -8   29.66    1.72
 -10   2   8   31.16    1.66
 -10  -2   8   25.98    1.32
 -10  -2   8   28.80    1.08
 -10   2   8   28.54    1.73
  10   2  -8   27.18    1.26
 -10   2   8   29.85    1.69
  10   2  -7   50.19    2.10
 -10  -2   7   47.03    2.01
 -10   2   7   43.33    1.95
 -10  -2   7   46.45    1.72
 -10  -2   7   49.02    1.52
 -10   2   7   45.47    2.09
  10   2  -7   48.91    1.78
 -10   2   7   42.64    2.10
  10   2  -6  386.51    6.98
 -10  -2   6  384.85    6.96
 -10   2   6  386.18    7.05
 -10  -2   6  384.82    6.29
 -10  -2   6  383.18    6.07
 -10   2   6  400.30    7.40
 -10   2   6  386.71    7.37
  10   2  -6  398.51    6.62
  10   2  -5   59.23    2.21
 -10  -2   5   60.12    2.19
 -10   2   5   66.61    2.37
 -10  -2   5   53.63    1.73
 -10  -2   5   62.75    1.91
 -10   2   5   64.20    2.55
 -10   2   5   66.56    2.53
  10   2  -5   57.52    2.08
 -10  -2   4   38.56    1.71
  10   2  -4   42.17    1.78
  10   2  -4   40.85    1.77
 -10   2   4   36.45    1.74
 -10  -2   4   41.25    1.60
 -10   2   4   40.95    1.99
 -10   2   4   38.74    1.99
 -10  -2   3  219.66    4.53
  10   2  -3  222.73    4.55
  10   2  -3  225.93    4.78
 -10   2   3  226.10    4.73
 -10  -2   3  220.09    4.43
  10  -2  -3  222.98    5.16
 -10   2   3  224.99    5.20
 -10   2   3  233.82    5.28
  10   2  -2    6.24    0.70
  10   2  -2    6.66    0.84
 -10  -2   2    6.67    0.74
 -10   2   2    5.40    0.71
  10   2  -2    6.49    0.50
 -10  -2   2    6.69    0.75
 -10   2   2    7.62    0.91
  10  -2  -2    5.92    0.92
 -10   2   2    6.06    0.93
  10   2  -1    1.75    0.50
  10   2  -1    1.22    0.58
 -10  -2   1    1.33    0.49
  10   2  -1    0.48    0.21
 -10  -2   1    0.87    0.48
  10  -2  -1    1.75    0.68
 -10   2   1    1.51    0.59
  10   2   0  355.42    5.97
  10   2   0  361.92    6.86
  10   2   0  359.20    5.02
 -10  -2   0  358.40    6.57
 -10   2   0  373.88    7.23
  10  -2   0  357.29    7.11
  10   2   1   66.11    1.98
  10   2   1   65.99    2.57
  10   2   1   66.99    1.35
 -10  -2  -1   66.80    2.44
  10  -2   1   71.08    2.77
 -10   2  -1   72.50    2.77
  10   2   2   16.47    0.93
  10   2   2   15.62    1.34
  10   2   2   15.22    0.51
 -10  -2  -2   15.11    1.23
  10  -2   2   14.66    1.32
 -10   2  -2   15.15    1.32
  10   2   3   96.42    3.28
 -10  -2  -3   99.09    3.18
  10  -2   3   98.04    3.35
 -10   2  -3  102.99    3.42
  10   2   4  189.87    4.88
  10  -2   4  187.93    3.96
 -10   2  -4  187.59    4.33
 -10  -2  -4  190.44    4.72
  10  -2   4  182.36    4.85
 -10   2  -4  194.30    4.96
  10   2   5   16.37    1.45
  10  -2   5   16.75    1.06
 -10   2  -5   16.66    1.20
 -10  -2  -5   18.62    1.43
 -10   2  -5   19.26    1.53
  10  -2   5   17.25    1.45
 -10   2  -6    0.85    0.57
  10   2   6    1.93    0.78
  10  -2   6    1.30    0.44
 -10   2  -6    2.23    0.59
 -10  -2  -6    1.25    0.60
  10  -2   6    1.13    0.62
  10  -2   7    2.12    0.47
  10   2   7    1.38    0.18
 -10   2  -7    1.32    0.52
  10   2   7    1.28    0.64
  10  -2   7    1.37    0.62
 -10   2  -8    8.25    0.91
  10  -2   8    9.27    0.79
  10   2   8    9.24    0.44
  10   2   8    8.20    1.14
  10  -2   8    8.35    1.12
  10  -2   9    1.36    0.43
 -10   2  -9    0.30    0.45
  10   2   9    1.85    0.27
  10   2   9    1.89    0.72
  10  -2   9   -0.33    0.63
  10   2  10  106.94    2.07
  10  -2  10   97.28    2.66
 -10   2 -10   95.50    3.15
  10   2  10  102.51    3.86
  10  -2  10   97.05    3.62
 -10   2 -11  142.88    3.96
  10   2  11  140.39    2.68
  10  -2  11  143.10    3.28
 -10   2 -11  142.43    3.50
  10   2  11  138.17    4.63
  10  -2  11  138.96    4.42
 -10   2 -12    1.48    0.47
 -10   2 -12    0.34    0.48
  10   2  12    2.08    0.36
  10  -2  12    2.43    0.50
  10   2  12    3.26    0.95
  10  -2  12    2.22    0.81
  10  -2  13    2.22    0.54
  10   2  13    1.98    0.39
 -10   2 -13    1.46    0.54
 -10   2 -13    2.09    0.54
  10   2  13    3.08    0.94
  10  -2  13    2.07    0.80
  10   2  14   65.74    1.91
 -10   2 -14   64.41    2.72
  10  -2  14   66.73    2.13
 -10   2 -14   60.39    2.17
  10   2  14   64.61    3.25
  10  -2  14   62.34    2.99
  10   2  15   28.29    1.29
 -10   2 -15   24.99    1.76
  10  -2  15   26.63    1.34
 -10   2 -15   23.46    1.33
  10   2  15   31.66    2.33
  10  -2  15   28.68    2.09
  10   2  16   66.32    2.10
  10   2  16   63.18    3.32
 -10   2 -16   60.02    2.18
  10  -2  16   60.57    3.05
  10   2  17   36.03    1.59
  10   2  17   34.51    2.50
 -10   2 -17   37.90    1.69
  10  -2  17   35.10    2.34
 -10   2 -18    3.03    0.55
  10   2  18    4.50    1.07
  10  -2  18    2.45    0.82
  10   2  19    8.13    1.40
  10  -2  19    5.46    1.07
  10   2  20   12.08    1.70
  10  -2  20   13.81    1.63
  10   2  21    3.02    1.06
  10  -2  21    2.67    0.91
  10   2  22   16.71    2.03
  10  -2  22   14.90    1.72
  10   2  23    1.31    0.80
  10  -2  23    1.83    0.89
  10   2  24    6.80    1.54
  10  -2  24    6.38    1.33
  10  -2  25    7.22    1.41
  10  -2  26   14.65    1.80
 -10   3  32   -0.75    0.93
 -10   3  31   -0.91    0.98
 -10   3  30    3.16    1.17
 -10   3  29    1.29    1.03
 -10  -3  29    0.21    0.95
 -10   3  28    0.63    0.85
 -10  -3  28    0.82    0.92
 -10   3  27   -0.63    1.55
 -10  -3  27    0.65    0.83
 -10   3  26    3.92    1.11
 -10  -3  26    1.08    0.82
 -10   3  25   16.21    1.80
 -10  -3  25   21.01    2.09
 -10   3  24   -0.02    0.82
 -10  -3  24    1.08    0.96
 -10   3  23   22.04    1.96
 -10  -3  23   28.42    2.27
 -10   3  22   67.52    3.31
 -10  -3  22   69.07    3.48
 -10   3  21   11.49    1.47
 -10  -3  21   16.67    1.79
 -10   3  20   26.87    2.07
 -10  -3  20   21.49    1.91
  10   3 -19    8.21    1.21
 -10   3  19    8.17    1.24
 -10  -3  19    8.56    1.22
  10   3 -18   51.15    2.79
 -10   3  18   49.14    2.71
 -10  -3  18   52.29    2.75
  10   3 -17   69.58    3.24
 -10   3  17   68.52    3.11
 -10  -3  17   66.66    3.05
  10   3 -16   33.57    2.21
 -10   3  16   33.72    2.15
  10   3 -16   33.18    1.88
 -10  -3  16   34.80    2.15
  10   3 -15  301.32    7.00
  10   3 -15  294.87    6.29
 -10  -3  15  293.37    6.71
 -10   3  15  279.80    6.78
  10   3 -14   89.22    3.47
  10   3 -14   91.81    3.16
 -10  -3  14   87.37    3.28
 -10   3  14   82.24    3.37
  10   3 -14   85.61    1.71
  10   3 -13   17.74    1.59
  10   3 -13   19.18    1.50
 -10  -3  13   21.29    1.62
  10   3 -13   18.94    1.54
 -10   3  13   21.44    1.77
  10   3 -13   18.74    0.84
  10   3 -12  161.31    4.67
 -10  -3  12  157.25    4.34
  10   3 -12  166.05    4.44
  10   3 -12  157.81    4.30
 -10   3  12  154.75    4.70
  10   3 -12  154.83    3.10
  10   3 -11  200.13    5.24
  10   3 -11  204.84    4.96
 -10  -3  11  200.50    4.90
  10   3 -11  204.98    5.02
 -10   3  11  201.93    5.42
  10   3 -11  202.87    3.87
  10   3 -10  178.45    4.79
  10   3 -10  176.39    3.66
 -10   3  10  187.34    5.06
 -10  -3  10  170.59    2.75
  10   3 -10  169.12    4.50
  10   3 -10  181.88    4.49
 -10  -3  10  179.35    4.47
 -10  -3   9  164.08    4.54
  10   3  -9  164.63    4.49
  10   3  -9  161.18    3.56
 -10   3   9  149.80    4.54
 -10  -3   9  157.90    2.82
  10   3  -9  162.73    4.14
 -10  -3   8   30.33    1.79
  10   3  -8   32.55    1.87
  10   3  -8   31.62    1.46
 -10  -3   8   29.43    1.11
 -10   3   8   28.14    1.93
  10   3  -8   30.62    1.63
  10   3  -7   36.84    1.97
  10   3  -7   39.85    1.70
 -10   3   7   36.35    1.89
  10   3  -7   40.60    1.82
 -10  -3   7   39.27    2.03
 -10   3   7   37.12    2.17
 -10  -3   7   38.55    1.38
  10   3  -6    5.48    0.87
  10   3  -6    5.02    0.67
 -10   3   6    4.79    0.76
  10   3  -6    5.59    0.73
 -10  -3   6    4.23    0.52
 -10   3   6    4.47    0.85
  10   3  -5    4.21    0.68
  10   3  -5    4.38    0.81
 -10   3   5    4.50    0.71
  10   3  -5    4.42    0.62
 -10  -3   5    4.53    0.61
 -10   3   5    4.72    0.96
  10   3  -4   42.83    2.00
  10   3  -4   42.60    1.93
  10   3  -4   42.24    1.72
 -10   3   4   39.60    1.85
 -10  -3   4   42.28    1.68
 -10   3   4   42.22    2.29
  10   3  -3  142.40    3.78
  10   3  -3  139.27    3.78
  10   3  -3  138.72    3.27
 -10   3   3  142.25    3.68
 -10  -3   3  135.35    3.37
 -10   3   3  142.57    4.31
  10   3  -2   57.32    2.29
  10   3  -2   59.38    2.44
 -10   3   2   67.11    2.34
  10   3  -2   58.12    1.95
 -10  -3   2   57.57    2.15
 -10   3   2   64.84    2.80
  10   3  -1  184.21    4.25
  10   3  -1  187.73    4.65
 -10   3   1  170.14    4.06
  10   3  -1  185.96    3.73
 -10  -3   1  181.21    4.22
 -10   3   1  173.90    4.85
  10   3   0  467.22    7.84
  10   3   0  463.19    8.55
  10   3   0  467.53    7.17
 -10   3   0  460.63    7.69
 -10  -3   0  458.65    8.05
 -10   3   0  469.19    8.96
  10   3   1   63.78    2.26
  10   3   1   62.89    2.66
  10   3   1   59.92    1.84
 -10  -3  -1   61.10    2.41
 -10   3  -1   55.86    2.69
  10   3   2    1.37    0.70
  10   3   2    0.81    0.45
  10   3   2    0.96    0.32
 -10  -3  -2    1.13    0.52
 -10   3  -2    2.26    0.81
  10   3   3   25.19    1.31
  10   3   3   23.62    1.71
  10   3   3   22.93    1.05
 -10  -3  -3   23.45    1.57
 -10   3  -3   22.52    1.73
  10  -3   3   23.73    1.73
  10   3   4    1.83    0.75
  10   3   4    2.23    0.51
  10   3   4    1.58    0.35
 -10  -3  -4    1.73    0.66
  10  -3   4    2.99    0.81
  10   3   5  137.67    2.85
 -10   3  -5  136.19    4.11
  10   3   5  135.94    3.14
  10   3   5  137.94    4.34
  10  -3   5  126.64    4.19
 -10   3  -6   90.67    3.28
  10   3   6   82.90    2.28
  10   3   6   79.34    3.34
  10  -3   6   85.40    3.36
 -10   3  -7   33.25    2.00
  10   3   7   37.13    1.41
  10   3   7   36.90    2.27
  10  -3   7   33.46    2.12
  10   3   8   43.99    1.49
  10   3   8   43.35    2.51
  10  -3   8   42.50    2.41
  10   3   9    1.77    0.82
  10   3   9    2.20    0.39
  10  -3   9    0.87    0.63
  10   3  10    4.33    1.04
  10   3  10    5.08    0.48
  10  -3  10    5.04    0.99
  10   3  11   76.11    1.68
  10   3  11   74.66    3.46
  10  -3  11   76.46    3.33
 -10   3 -12   21.36    1.56
  10   3  12   18.53    0.64
  10   3  12   19.57    1.88
  10  -3  12   20.97    1.78
 -10   3 -13   82.07    3.03
  10   3  13   89.82    3.96
  10  -3  13   82.02    3.56
 -10   3 -14   59.52    2.58
  10   3  14   58.01    3.24
  10  -3  14   56.66    2.98
  10   3  15   23.30    2.10
 -10   3 -15   16.73    1.35
  10  -3  15   21.30    1.89
 -10   3 -16   19.42    1.49
  10   3  16   21.53    2.12
  10  -3  16   21.35    1.87
 -10   3 -17    7.37    0.99
  10   3  17    8.08    1.45
  10  -3  17    7.57    1.22
 -10   3 -18    1.13    0.59
  10   3  18    1.05    0.92
  10  -3  18   -0.72    0.76
  10   3  19   30.11    2.53
  10  -3  19   27.21    2.18
  10   3  20    9.55    1.58
  10  -3  20    8.08    1.34
  10   3  21   11.90    1.79
  10  -3  21    9.90    1.46
  10  -3  22   15.10    1.75
  10  -3  23    8.76    1.43
  10  -3  24    4.05    1.08
 -10   4  28   14.37    1.85
 -10   4  27    1.63    0.98
 -10  -4  27    3.07    1.13
 -10   4  26   74.93    4.00
 -10  -4  26   76.99    4.17
 -10   4  25    2.17    0.94
 -10  -4  25    3.98    1.28
  10   4 -24   25.75    2.39
 -10   4  24   26.65    2.40
 -10  -4  24   32.76    2.63
  10   4 -23   11.09    1.67
 -10   4  23   10.53    1.54
 -10  -4  23   14.24    1.80
  10   4 -22   21.33    2.16
 -10   4  22   21.93    2.16
 -10  -4  22   24.28    2.23
  10   4 -21    1.70    1.07
 -10   4  21    0.43    1.00
 -10  -4  21   -0.05    0.81
  10   4 -20  119.78    4.74
 -10   4  20  121.21    4.75
 -10  -4  20  115.75    4.60
  10   4 -19    4.63    1.24
 -10   4  19    2.78    0.95
 -10  -4  19    4.13    1.22
  10   4 -18   97.95    4.15
 -10   4  18   95.92    4.10
 -10  -4  18   95.69    4.04
  10   4 -17    0.51    0.86
 -10   4  17    1.46    0.90
  10   4 -17    0.95    0.60
 -10  -4  17    1.50    0.95
  10   4 -16   74.64    3.53
 -10   4  16   71.15    3.45
  10   4 -16   73.29    2.89
  10   4 -15    1.11    0.26
  10   4 -15    0.20    0.72
  10   4 -15    1.03    0.66
 -10   4  15    0.08    0.74
  10   4 -14  109.44    4.17
  10   4 -14  107.48    3.62
 -10   4  14  103.07    4.13
  10   4 -14  104.33    2.39
  10   4 -13  101.96    2.53
  10   4 -13  106.48    4.10
 -10   4  13  112.21    4.22
  10   4 -13   97.33    3.43
  10   4 -12   82.45    3.52
  10   4 -12   84.89    2.40
 -10   4  12   83.73    3.64
  10   4 -12   83.50    3.16
  10   4 -11    2.49    0.95
  10   4 -11    2.06    0.52
 -10   4  11    1.76    0.88
  10   4 -10  487.28    9.50
  10   4 -10  482.09    7.79
 -10   4  10  460.35    9.61
 -10  -4  10  452.09    6.38
  10   4  -9   47.09    2.66
  10   4  -9   44.85    1.95
 -10  -4   9   40.73    1.38
 -10   4   9   47.11    2.68
  10   4  -9   45.57    2.35
  10   4  -8    6.16    0.78
  10   4  -8    5.43    1.05
  10   4  -8    7.20    1.00
 -10  -4   8    6.74    0.62
 -10   4   8    7.24    1.22
  10   4  -7    0.86    0.51
  10   4  -7   -0.29    0.69
  10   4  -7    0.91    0.59
 -10  -4   7    1.09    0.41
 -10   4   7    0.55    0.71
  10   4  -6   55.77    2.66
  10   4  -6   55.54    2.35
  10   4  -6   57.41    2.44
 -10   4   6   57.55    2.98
 -10  -4   6   52.64    1.90
  10   4  -5    1.26    0.59
  10   4  -5    1.35    0.73
 -10   4   5    2.18    0.60
  10   4  -5    1.40    0.60
 -10  -4   5    1.52    0.48
 -10   4   5    2.48    0.88
  10   4  -4  163.59    4.60
  10   4  -4  168.39    4.44
 -10   4   4  157.01    4.92
 -10  -4   4  158.18    3.83
 -10   4   4  150.04    4.11
  10   4  -4  167.23    4.25
  10   4  -3   49.16    2.34
  10   4  -3   48.49    2.39
 -10   4   3   46.95    2.11
  10   4  -3   48.36    2.14
 -10  -4   3   48.19    2.04
 -10   4   3   46.91    2.60
  10   4  -2    6.14    0.95
  10   4  -2    7.25    0.93
  10   4  -2    7.20    0.86
 -10   4   2    5.59    0.79
 -10  -4   2    5.79    0.80
 -10   4   2    5.75    1.07
  10   4  -1    1.80    0.77
  10   4  -1   -0.12    0.58
 -10   4   1   -0.14    0.38
  10   4  -1    0.00    0.44
 -10  -4   1    0.10    0.49
 -10   4   1    0.38    0.70
  10   4   0   55.82    2.44
  10   4   0   57.59    2.67
 -10   4   0   50.25    2.05
  10   4   0   54.07    2.17
 -10  -4   0   52.94    2.35
 -10   4   0   54.57    2.82
  10   4   1   21.24    1.50
  10   4   1   18.04    1.57
  10   4   1   17.79    1.23
 -10   4  -1   19.72    1.24
 -10  -4  -1   17.94    1.39
 -10   4  -1   21.88    1.81
  10   4   2   10.51    0.96
  10   4   2   12.02    1.17
  10   4   2   12.50    1.44
 -10   4  -2   12.63    1.48
  10   4   3  162.38    3.91
  10   4   3  166.57    4.25
  10   4   3  161.91    4.93
 -10   4  -3  158.85    4.98
  10   4   4   44.29    1.88
  10   4   4   47.87    2.13
  10   4   4   46.13    2.60
 -10   4  -4   42.35    2.50
  10   4   5    0.70    0.46
  10   4   5    1.61    0.92
  10   4   5    1.61    0.61
 -10   4  -5    1.58    0.76
  10   4   6    9.12    1.27
  10   4   6    6.70    0.86
 -10   4  -6    8.09    1.28
  10   4   7    2.62    0.89
  10   4   7   -0.08    0.54
 -10   4  -7    2.06    0.94
  10   4   8    1.30    0.77
  10   4   8    0.60    0.48
 -10   4  -8    2.35    0.88
  10   4   9    1.43    0.86
  10   4   9    2.03    0.57
 -10   4  -9    3.11    1.08
  10   4  10   80.08    2.49
  10   4  10   78.19    3.77
 -10   4 -10   79.04    3.58
  10   4  11  133.23    3.26
  10   4  11  136.36    5.08
 -10   4 -11  134.63    4.74
 -10   4 -12    4.00    1.02
  10   4  12    2.84    1.03
 -10   4 -13   51.02    2.77
  10   4  13   55.18    3.29
 -10   4 -14    2.37    0.92
  10   4  14    1.22    0.90
 -10   4 -15    8.18    1.28
  10   4  15    8.59    1.49
  10   4  16   23.05    2.31
 -10   4 -16   19.90    1.77
 -10   4 -17   37.43    2.35
  10   4  17   35.07    2.79
 -10   4 -18   21.98    1.86
  10   4  18   24.26    2.41
  10  -4  18   22.00    2.05
  10  -4  19   29.64    2.33
  10  -4  20    0.51    0.77
  10  -4  21   16.06    1.86
  10   5 -22   14.64    1.89
 -10   5  22   15.88    2.05
  10   5 -21   40.32    3.04
 -10   5  21   39.40    2.92
  10   5 -20   13.66    1.84
 -10   5  20   13.52    1.78
  10   5 -19    5.78    1.21
 -10   5  19    4.08    1.15
  10   5 -18    9.36    1.57
 -10   5  18   10.13    1.58
  10   5 -18    8.44    1.05
  10   5 -17    1.27    0.85
 -10   5  17    0.48    0.92
  10   5 -17    0.56    0.62
  10   5 -16   19.72    2.04
 -10   5  16   18.83    2.00
  10   5 -16   20.35    1.60
  10   5 -15    7.85    1.39
 -10   5  15    7.21    1.43
  10   5 -15    8.50    1.12
  10   5 -14   28.93    2.34
 -10   5  14   26.51    2.31
  10   5 -14   26.04    1.79
  10   5 -13   38.64    2.66
  10   5 -13   37.70    1.69
 -10   5  13   37.66    2.70
  10   5 -13   38.90    2.23
  10   5 -12  103.45    4.29
  10   5 -12   98.27    2.96
 -10   5  12  101.94    4.40
  10   5 -12   98.74    3.62
  10   5 -11    4.84    0.74
  10   5 -11    6.68    1.34
 -10   5  11    3.96    1.11
  10   5 -10   17.80    1.79
  10   5 -10   14.54    1.21
 -10   5  10   14.46    1.79
  10   5  -9    0.81    0.55
  10   5  -9    0.41    0.74
 -10   5   9    1.12    0.90
  10   5  -8   22.44    1.95
  10   5  -8   20.03    1.49
 -10   5   8   22.92    2.08
  10   5  -7   21.54    1.93
  10   5  -7   18.53    1.48
 -10   5   7   20.92    2.02
  10   5  -6   41.46    2.55
  10   5  -6   38.86    2.15
 -10   5   6   42.74    2.73
  10   5  -5    1.15    0.63
  10   5  -5    0.18    0.83
 -10  -5   5    0.76    0.50
 -10   5   5    3.78    1.05
  10   5  -4   10.47    1.38
  10   5  -4   10.62    1.24
 -10   5   4    8.77    1.08
 -10   5   4    9.46    1.42
 -10  -5   4   10.28    1.04
  10   5  -3    0.11    0.65
  10   5  -3   -0.10    0.59
 -10   5   3    0.13    0.46
 -10  -5   3    0.21    0.46
 -10   5   3   -0.19    0.77
  10   5  -2    0.11    0.67
  10   5  -2    1.53    0.75
 -10   5   2    1.15    0.49
 -10  -5   2    1.06    0.58
 -10   5   2    2.45    1.01
  10   5  -1   22.31    1.83
  10   5  -1   24.38    1.86
 -10   5   1   25.46    2.12
  10   5   0   35.41    2.31
  10   5   0   34.70    2.19
 -10   5   0   33.80    2.43
  10   5   1   19.25    1.65
  10   5   1   17.40    1.67
 -10   5  -1   15.41    1.73
  10   5   2  109.40    3.84
  10   5   2  106.20    4.14
 -10   5  -2  109.54    4.37
  10   5   3    7.12    1.24
  10   5   3    7.00    1.12
 -10   5  -3    6.83    1.30
  10   5   4    0.79    0.85
  10   5   4   -0.02    0.58
 -10   5  -4    0.54    0.98
  10   5   5    4.31    1.05
  10   5   5    3.17    0.79
 -10   5  -5    4.47    1.03
  10   5   6    1.39    0.87
  10   5   6    1.52    0.70
 -10   5  -6    2.29    0.86
  10   5   7   24.17    1.71
  10   5   7   26.57    2.25
 -10   5  -7   26.56    2.21
  10   5   8   39.80    2.12
  10   5   8   38.47    2.76
 -10   5  -8   37.52    2.57
  10   5   9    1.09    0.97
  10   5   9    1.64    0.65
 -10   5  -9    0.76    0.74
  10   5  10   14.77    1.78
 -10   5 -10   15.15    1.77
  10   5  11   -0.27    0.81
 -10   5 -11    0.95    0.93
 -10   5 -12   10.61    1.56
  10   5  12   10.18    1.59
 -10   5 -12    7.27    1.30
 -10   5 -13    1.40    0.94
  10   5  13    1.38    1.17
 -10   5 -13    0.90    0.83
 -10   5 -14   13.65    1.67
 -10   5 -14   14.02    1.70
 -10   5 -15    9.81    1.51
 -10   5 -15    9.73    1.57
 -10   5 -16   47.44    3.01
 -10   5 -16   53.30    3.19
 -10   5 -17   -0.52    0.92
 -10   5 -17    0.83    0.93
 -10   5 -18    7.32    1.41
 -10   5 -19    0.81    0.94
  10   6 -15   53.02    3.48
 -10   6  15   55.48    3.55
  10   6 -14    2.17    1.24
 -10   6  14    0.07    0.93
  10   6 -13   22.29    2.23
 -10   6  13   17.01    2.00
  10   6 -12   12.90    1.76
 -10   6  12   11.10    1.72
  10   6 -12   11.78    1.37
  10   6 -11    8.55    1.49
 -10   6  11   10.02    1.69
  10   6 -10   14.25    1.87
 -10   6  10   12.05    1.83
  10   6  -9  108.35    4.69
 -10   6   9  114.54    4.90
  10   6  -8   17.72    2.03
  10   6  -8   15.01    1.47
 -10   6   8   13.96    1.96
  10   6  -7    9.56    1.25
  10   6  -7    7.97    1.46
 -10   6   7    8.65    1.55
  10   6  -6    1.23    0.74
  10   6  -6    0.59    1.49
 -10   6   6    1.49    1.06
  10   6  -5    8.71    1.49
  10   6  -5   10.52    1.32
 -10   6   5   11.44    1.72
  10   6  -4   24.69    1.99
  10   6  -4   28.57    2.33
 -10   6   4   29.07    2.51
  10   6  -3   14.31    2.08
  10   6  -3   14.89    1.62
 -10   6   3   16.05    1.86
  10   6  -2   39.52    2.57
  10   6  -2   42.76    2.78
 -10   6   2   42.71    2.94
  10   6  -1   82.32    3.78
  10   6  -1   81.02    3.77
 -10   6   1   90.99    4.22
  10   6   0   12.57    1.62
  10   6   0   12.05    1.53
 -10   6   0    9.90    1.56
  10   6   1   25.33    2.18
  10   6   1   26.58    2.16
 -10   6  -1   29.12    2.41
  10   6   2    6.16    1.29
  10   6   2    4.76    1.09
 -10   6  -2    5.28    1.19
  10   6   3   12.31    1.62
  10   6   3   11.94    1.47
 -10   6  -3   12.45    1.64
  10   6   4   13.34    1.77
  10   6   4   13.27    1.56
 -10   6  -4   14.86    1.80
  10   6   5   22.28    2.16
  10   6   5   21.53    1.90
 -10   6  -5   22.88    2.19
  10   6   6   17.28    1.98
  10   6   6   16.29    1.64
 -10   6  -6   19.58    2.02
  10   6   7   41.98    2.54
  10   6   7   46.54    3.13
 -10   6  -7   40.19    2.80
  10   6   8    3.76    1.33
 -10   6  -8    1.66    1.04
 -10   6  -9    7.49    1.43
 -10   6 -10    0.60    0.83
 -10   6 -11    1.34    1.11
 -10   6 -11    2.85    1.15
 -10   6 -12   47.34    3.29
 -10   6 -12   47.50    3.13
 -10   6 -13  100.06    4.58
 -10   6 -14    4.62    1.30
  10   7  -4    4.27    1.32
  10   7  -3    0.85    0.93
  10   7  -3   -0.10    0.80
  10   7  -2   31.23    2.50
  10   7  -2   31.54    2.68
  10   7  -1    1.31    0.91
  10   7  -1    1.37    1.15
  10   7   0    4.14    1.14
  10   7   0    4.06    1.16
  10   7   1    3.74    1.26
  10   7   1    4.36    1.21
  10   7   2    7.37    1.41
  10   7   2    8.53    1.48
  10   7   3    4.96    1.19
 -11   0  32   -0.24    0.93
 -11   0  31   12.11    1.79
 -11   0  30    1.59    1.08
 -11   0  30    1.16    0.67
 -11   0  29   50.75    3.21
 -11   0  29   50.28    2.37
 -11   0  28    1.53    1.01
 -11   0  28    1.50    0.61
 -11   0  27  139.06    5.20
 -11   0  27  146.34    4.04
 -11   0  26    1.53    0.94
 -11   0  26    0.71    0.56
  11   0 -26    0.27    0.44
 -11   0  25   70.42    3.48
 -11   0  25   73.33    2.66
  11   0 -25   73.12    2.66
 -11   0  25   73.21    2.23
 -11   0  24    0.98    0.55
 -11   0  24   -0.24    0.35
  11   0 -24    0.14    0.40
 -11   0  23    4.76    0.77
  11   0 -23    4.09    0.69
 -11   0  23    5.22    0.60
 -11   0  22    1.03    0.61
  11   0 -22    1.29    0.49
 -11   0  22    0.86    0.37
 -11   0  21   80.28    2.62
 -11   0  21   79.14    2.29
  11   0 -21   79.27    2.59
 -11   0  20    0.24    0.44
 -11   0  20    0.35    0.33
  11   0 -20    0.29    0.37
 -11   0  19  166.26    3.86
 -11   0  19  165.11    3.55
  11   0 -19  166.03    3.86
 -11   0  18    0.05    0.40
 -11   0  18    0.75    0.38
  11   0 -18    0.18    0.39
 -11   0  17    0.68    0.40
 -11   0  17    0.27    0.44
 -11   0  17    0.53    0.33
 -11   0  16    1.50    0.66
 -11   0  16    1.45    0.54
 -11   0  16    1.20    0.42
 -11   0  15  113.50    3.57
 -11   0  15  103.08    2.81
 -11   0  15  101.38    2.67
 -11   0  14    3.80    0.83
 -11   0  14    0.64    0.51
 -11   0  14    1.80    0.45
 -11   0  13  301.56    6.22
 -11   0  13  279.94    5.26
 -11   0  13  280.76    5.19
 -11   0  12    1.72    0.63
 -11   0  12    1.16    0.42
 -11   0  12    1.30    0.51
 -11   0  11  314.67    6.29
  11   0 -11  291.24    5.43
 -11   0  11  300.39    5.49
 -11   0  11  294.32    5.47
 -11   0  10    2.56    0.66
 -11   0  10    1.82    0.53
  11   0 -10    0.53    0.44
 -11   0  10    0.81    0.48
  11   0  -9    0.36    0.52
 -11   0   9    0.38    0.44
  11   0  -9   -0.22    0.40
 -11   0   9    0.59    0.47
  11   0  -8   -0.26    0.55
 -11   0   8    0.76    0.51
  11   0  -8    0.66    0.47
 -11   0   8    0.39    0.46
  11   0  -7   60.39    2.45
 -11   0   7   66.06    2.28
  11   0  -7   67.12    2.29
  11   0  -6    0.39    0.53
 -11   0   6    0.37    0.41
  11   0  -6    0.50    0.45
  11   0  -5  130.08    3.65
  11   0  -5  129.44    3.43
 -11   0   5  137.43    3.53
  11   0  -4    1.39    0.63
 -11   0   4    0.96    0.50
  11   0  -4    0.53    0.54
  11   0  -3   50.66    2.17
 -11   0   3   51.86    2.17
  11   0  -3   48.49    2.07
  11   0  -2    1.73    0.68
 -11   0   2    0.54    0.51
  11   0  -2    0.50    0.53
  11   0  -1   35.75    1.83
 -11   0   1   38.28    1.91
  11   0  -1   37.06    1.87
 -11   0   0   -0.30    0.50
  11   0   0   -0.63    0.61
 -11   0  -1   22.73    0.69
 -11   0  -1   22.07    1.55
  11   0   1   25.45    1.64
 -11   0  -2   -0.10    0.15
 -11   0  -2    0.92    0.62
  11   0   2    0.50    0.60
 -11   0  -3   30.08    0.74
 -11   0  -3   33.27    1.88
  11   0   3   32.86    1.90
 -11   0  -4    0.24    0.48
  11   0   4    0.03    0.56
 -11   0  -5    7.97    1.08
  11   0   5    8.02    1.03
 -11   0  -6   -0.43    0.56
  11   0   6   -0.59    0.62
 -11   0  -7    0.10    0.12
  11   0   7   -0.14    0.57
  11   0   8    0.46    0.61
  11   0   9    2.12    0.74
  11   0  10   -0.97    0.62
  11   0  11   10.13    1.30
  11   0  12   -0.02    0.65
  11   0  13   -0.02    0.66
  11   0  14    0.22    0.73
  11   0  15    6.44    1.18
  11   0  16    1.18    0.85
  11   0  17    9.38    1.38
  11   0  18   -1.26    0.88
  11   0  19    6.05    1.21
  11   0  20   -0.79    0.83
  11   0  21    0.50    0.82
  11   0  22   -0.42    0.82
  11   0  23    3.35    1.04
  11   0  24   -0.32    0.83
  11   0  25    6.42    1.46
  11   0  26    1.15    0.98
 -11   1  33   22.58    1.97
 -11  -1  32   57.75    3.66
 -11   1  32   52.55    2.88
 -11  -1  31    2.26    1.14
 -11   1  31    2.55    0.91
 -11  -1  30    0.57    0.98
 -11   1  30    0.79    0.63
 -11  -1  29   32.25    2.59
 -11   1  29   34.01    2.19
 -11  -1  28    0.86    0.96
 -11   1  28    1.09    0.68
 -11  -1  27    2.32    0.98
 -11   1  27    1.35    0.81
 -11  -1  26   43.43    2.80
 -11   1  26   43.33    2.32
 -11   1  26   41.40    2.06
 -11  -1  25   44.96    2.84
 -11  -1  25   44.65    1.68
 -11   1  25   40.74    2.24
 -11   1  25   43.52    2.07
 -11  -1  24  229.76    6.48
 -11  -1  24  239.78    4.43
 -11   1  24  227.09    5.64
 -11   1  24  233.86    5.28
 -11  -1  23    9.64    1.47
 -11  -1  23    9.20    0.76
 -11   1  23   10.35    1.15
 -11   1  23   11.21    1.10
  11  -1 -23    8.51    1.01
 -11  -1  22    5.57    1.15
 -11   1  22    4.89    0.86
 -11  -1  22    5.46    0.57
 -11   1  22    5.98    0.78
  11  -1 -22    5.50    0.92
 -11  -1  21    9.29    0.42
 -11  -1  21   10.32    1.32
 -11  -1  21   11.29    0.77
 -11   1  21    9.69    1.77
 -11   1  21    9.95    0.98
  11  -1 -21    9.38    1.02
 -11  -1  20    3.12    0.32
 -11  -1  20    4.68    0.99
 -11  -1  20    2.76    0.42
 -11   1  20    3.48    0.81
 -11   1  20    3.01    0.59
  11  -1 -20    3.07    0.69
 -11  -1  19    2.40    0.36
 -11  -1  19    2.00    0.87
 -11   1  19    2.69    0.75
 -11  -1  19    1.70    0.47
 -11   1  19    1.06    0.51
  11  -1 -19    1.14    0.60
 -11  -1  18  270.43    6.40
 -11  -1  18  291.34    6.38
 -11  -1  18  278.00    4.60
 -11   1  18  277.71    5.93
 -11   1  18  278.31    5.64
  11  -1 -18  274.84    5.89
 -11  -1  18  276.80    4.25
 -11  -1  17   65.41    2.70
 -11  -1  17   62.44    2.73
 -11  -1  17   61.54    1.71
 -11   1  17   58.22    2.41
 -11   1  17   59.93    2.29
 -11  -1  17   63.07    1.60
  11  -1 -17   59.36    2.41
 -11  -1  16   77.53    1.88
 -11  -1  16   81.64    2.99
 -11  -1  16   76.71    2.93
 -11   1  16   79.06    2.77
 -11  -1  16   72.66    1.90
 -11   1  16   78.45    2.63
  11  -1 -16   79.93    2.77
 -11  -1  15    9.71    1.20
 -11  -1  15   10.53    0.73
 -11   1  15   11.69    1.26
 -11  -1  15   10.05    1.14
 -11   1  15    9.92    1.05
 -11  -1  15    6.67    0.55
 -11   1  15   10.14    0.97
  11  -1 -15    9.49    1.00
 -11  -1  14   86.15    2.13
 -11  -1  14   88.14    3.14
 -11   1  14   85.96    3.11
 -11  -1  14   79.55    2.85
 -11  -1  14   82.49    2.04
 -11   1  14   83.04    2.81
 -11   1  14   83.42    2.71
 -11  -1  13   24.43    1.64
 -11  -1  13   22.45    1.07
  11   1 -13   24.87    1.65
 -11   1  13   26.84    1.72
 -11  -1  13   24.96    1.53
 -11   1  13   23.12    1.49
 -11  -1  13   23.23    1.05
  11   1 -13   22.98    1.07
 -11   1  13   26.26    1.49
 -11  -1  12  285.39    6.02
 -11  -1  12  274.94    4.78
  11   1 -12  277.11    5.99
 -11   1  12  289.23    6.13
 -11  -1  12  279.74    5.58
 -11  -1  12  274.52    4.66
 -11   1  12  273.03    5.64
  11   1 -12  276.52    4.78
 -11   1  12  274.59    5.54
 -11  -1  11   16.25    1.31
 -11  -1  11   15.57    0.96
  11   1 -11   14.70    1.30
 -11   1  11   14.87    1.29
 -11  -1  11   19.43    1.32
 -11   1  11   12.49    1.13
  11   1 -11   16.34    0.96
 -11   1  11   13.05    1.12
 -11  -1  11   14.96    0.87
  11   1 -10  202.43    4.90
 -11   1  10  219.94    5.06
 -11  -1  10  209.14    4.36
 -11  -1  10  203.71    4.78
 -11  -1  10  205.71    4.05
 -11   1  10  200.50    4.62
 -11  -1  10  197.36    3.81
  11   1 -10  204.92    4.02
 -11   1  10  210.81    4.64
 -11  -1   9   15.85    1.08
  11   1  -9   14.73    1.28
 -11   1   9   19.16    1.41
 -11  -1   9   16.96    1.30
 -11  -1   9   15.70    1.03
 -11   1   9   16.13    1.22
  11   1  -9   14.55    0.98
 -11   1   9   17.39    1.24
 -11  -1   8  116.72    2.84
  11   1  -8  114.08    3.49
 -11   1   8  118.56    3.44
 -11  -1   8  120.39    3.31
 -11  -1   8  118.20    2.97
 -11   1   8  117.50    3.34
 -11   1   8  123.09    3.38
  11   1  -8  115.68    2.93
  11  -1  -8  115.90    3.29
  11   1  -7    0.87    0.53
 -11   1   7    2.73    0.63
 -11  -1   7    1.99    0.47
 -11  -1   7    2.68    0.71
 -11  -1   7    2.81    0.59
  11   1  -7    2.41    0.58
  11  -1  -7    2.54    0.72
 -11   1   7    3.87    0.69
 -11   1   7    2.90    0.68
 -11   1   6   92.23    2.97
 -11  -1   6   91.66    2.24
  11   1  -6   88.26    3.00
 -11  -1   6   93.17    2.74
 -11  -1   6   94.85    2.70
  11  -1  -6   92.92    2.99
  11   1  -6   96.41    2.75
 -11   1   6   93.95    2.98
 -11   1   6   95.02    3.00
  11   1  -5    1.67    0.66
 -11  -1   5    2.00    0.41
 -11  -1   5    2.31    0.56
 -11  -1   5    2.35    0.58
  11   1  -5    1.14    0.48
 -11   1   5    2.19    0.61
  11  -1  -5    0.63    0.61
  11  -1  -4  120.53    3.37
 -11  -1   4  116.03    2.30
 -11  -1   4  116.98    2.99
 -11  -1   4  121.97    3.24
  11  -1  -4  120.28    3.45
 -11   1   4  121.79    3.48
  11   1  -4  114.19    3.19
 -11  -1   3    0.14    0.22
  11  -1  -3    0.22    0.45
 -11  -1   3    0.69    0.48
 -11  -1   3    0.56    0.41
 -11   1   3    1.32    0.60
  11  -1  -3    0.86    0.57
  11   1  -3    1.56    0.61
  11  -1  -2  106.98    3.10
 -11  -1   2   99.92    1.73
 -11  -1   2  106.50    2.65
 -11  -1   2  108.30    3.19
  11   1  -2  106.29    3.16
  11  -1  -2  106.00    3.31
 -11   1   2  110.75    3.33
  11  -1  -1    8.83    0.95
 -11  -1   1    7.61    0.93
  11   1  -1    8.18    0.95
 -11  -1   1    6.90    0.66
 -11   1   1    9.05    1.05
  11  -1  -1    8.96    1.02
  11  -1   0   72.17    2.50
 -11  -1   0   69.16    2.63
 -11  -1   0   69.30    1.95
 -11   1   0   73.13    2.73
  11  -1   0   68.00    2.65
  11   1   0   70.26    2.63
  11  -1   1    4.53    0.66
 -11  -1  -1    4.02    0.47
 -11  -1  -1    4.70    0.82
 -11   1  -1    4.67    0.88
  11   1   1    5.11    0.83
  11  -1   1    4.20    0.80
  11  -1   2   35.21    1.72
 -11  -1  -2   33.46    1.17
 -11  -1  -2   35.43    1.92
  11   1   2   35.46    1.94
  11  -1   2   33.33    1.92
 -11   1  -2   37.70    2.01
  11  -1   3    1.05    0.48
 -11   1  -3    0.93    0.37
 -11  -1  -3    0.49    0.53
  11   1   3    1.23    0.59
 -11   1  -3    0.77    0.56
 -11  -1  -3    0.84    0.27
  11  -1   3    0.84    0.65
 -11   1  -4   18.40    0.99
  11  -1   4   17.53    1.20
 -11  -1  -4   19.62    0.74
 -11  -1  -4   20.48    1.51
 -11   1  -4   18.66    1.46
  11   1   4   18.62    1.49
  11  -1   4   18.01    1.50
 -11   1  -5    1.13    0.38
  11  -1   5    1.62    0.51
 -11  -1  -5    0.46    0.48
  11   1   5    1.22    0.60
 -11   1  -5    1.88    0.63
  11  -1   5    1.07    0.60
 -11   1  -6    3.27    0.53
  11   1   6    3.01    0.80
 -11   1  -6    2.72    0.77
  11  -1   6    2.50    0.70
 -11   1  -7    0.50    0.36
  11   1   7    0.75    0.62
  11  -1   7    0.09    0.55
 -11   1  -8    0.87    0.38
  11   1   8    1.41    0.72
  11  -1   8    0.66    0.61
 -11   1  -9    0.51    0.39
  11   1   9    0.33    0.64
  11  -1   9    0.72    0.66
 -11   1 -10    0.43    0.27
 -11   1 -10    0.18    0.34
  11   1  10    0.67    0.73
  11  -1  10    1.24    0.77
 -11   1 -11    2.70    0.53
  11   1  11    2.24    0.83
 -11   1 -11    2.13    0.41
  11  -1  11    2.14    0.80
 -11   1 -12   -0.15    0.26
  11   1  12    0.04    0.67
  11  -1  12   -0.25    0.66
  11   1  13   28.25    1.07
 -11   1 -13   28.46    1.00
  11  -1  13   28.92    2.09
  11   1  13   27.07    2.10
  11   1  14    0.47    0.32
  11   1  14    0.59    0.76
 -11   1 -14    0.53    0.24
  11  -1  14    1.46    0.81
  11   1  15    1.46    0.39
  11   1  15    1.37    0.79
  11  -1  15    0.78    0.71
  11   1  16    5.37    0.62
  11   1  16    4.22    1.02
  11  -1  16    5.46    1.16
  11   1  17    1.50    0.41
  11   1  17    1.06    0.78
  11  -1  17    1.33    0.86
  11   1  18    1.59    0.93
  11  -1  18    1.45    0.88
  11  -1  19   27.43    2.24
  11   1  19   27.18    2.39
  11   1  20    1.07    1.03
  11  -1  20    0.78    0.82
  11   1  21    1.93    1.05
  11  -1  21    1.14    0.81
  11   1  22    1.71    1.02
  11  -1  22    1.04    0.92
  11   1  23    1.73    0.99
  11  -1  23    1.18    0.92
  11   1  24    0.38    0.81
  11  -1  24    1.41    0.98
  11  -1  25    7.40    1.45
  11  -1  26    0.78    0.96
 -11   2  35   21.65    2.15
 -11   2  34   -0.25    0.85
 -11   2  33   -0.23    0.89
 -11   2  32   54.41    3.14
 -11  -2  31    6.68    1.42
 -11   2  31    9.48    1.55
 -11  -2  30    3.50    1.14
 -11   2  30    3.57    1.05
 -11  -2  29   13.55    1.87
 -11   2  29   14.28    1.66
 -11  -2  28    2.21    0.94
 -11   2  28    1.85    0.73
 -11  -2  27   16.95    1.93
 -11   2  27   18.68    1.76
 -11  -2  26   21.60    2.12
 -11   2  26   18.38    1.79
 -11  -2  25   69.48    3.54
 -11   2  25   70.27    3.28
 -11  -2  24    9.58    1.45
 -11   2  24    8.46    1.25
 -11  -2  23   74.52    3.51
 -11   2  23   67.42    3.12
 -11  -2  22    1.90    0.91
 -11   2  22    0.66    0.70
 -11  -2  21    5.33    1.06
 -11   2  21    3.85    0.84
 -11  -2  20   20.33    1.78
 -11   2  20   16.58    1.58
 -11  -2  19  136.97    4.47
 -11   2  19  138.01    4.34
 -11   2  19  149.44    4.30
 -11  -2  18   50.41    2.57
 -11   2  18   45.84    2.42
 -11   2  18   51.73    2.41
 -11  -2  17   12.66    1.32
 -11   2  17   10.81    1.26
 -11   2  17   11.16    1.15
 -11  -2  16    5.50    0.94
 -11   2  16    4.09    0.89
 -11   2  16    6.95    0.94
  11  -2 -16    4.03    0.77
  11   2 -15   73.64    2.89
 -11  -2  15   70.86    2.82
 -11   2  15   71.20    2.91
  11  -2 -15   76.06    3.00
 -11   2  15   71.91    2.79
  11   2 -14   13.73    1.27
 -11  -2  14   16.13    1.37
 -11   2  14   13.09    1.28
 -11   2  14   14.53    1.25
  11   2 -14   13.89    0.68
  11  -2 -14   17.53    1.44
 -11  -2  13   93.62    3.31
  11   2 -13   91.33    3.19
 -11  -2  13   94.31    3.09
 -11  -2  13   86.66    1.55
 -11  -2  13   89.59    1.55
 -11   2  13   86.86    3.20
 -11   2  13   89.37    3.10
  11   2 -13   88.75    2.06
  11  -2 -13   93.99    3.29
 -11  -2  12   78.78    2.99
 -11   2  12   90.14    3.20
  11   2 -12   76.33    2.94
 -11  -2  12   75.63    2.69
 -11   2  12   80.67    3.04
 -11  -2  12   75.82    1.60
 -11  -2  12   78.43    1.60
 -11   2  12   88.65    3.05
  11   2 -12   78.96    2.03
 -11  -2  11  127.43    3.81
 -11   2  11  123.19    3.77
  11   2 -11  123.85    3.74
 -11  -2  11  119.18    3.36
 -11  -2  11  123.17    2.32
 -11   2  11  115.82    3.73
  11   2 -11  119.34    2.74
 -11   2  11  124.89    3.74
 -11  -2  11  117.23    2.29
 -11  -2  10  147.72    4.10
 -11   2  10  150.65    4.13
  11   2 -10  146.05    4.11
 -11  -2  10  145.39    3.65
 -11   2  10  142.72    4.10
 -11  -2  10  139.91    2.73
 -11   2  10  161.50    4.25
  11   2 -10  143.27    3.19
 -11  -2   9   52.76    2.27
 -11   2   9   50.10    2.27
 -11  -2   9   47.85    1.90
  11   2  -9   47.52    2.29
 -11   2   9   45.24    2.22
 -11  -2   9   49.87    1.51
 -11   2   9   51.13    2.28
  11   2  -9   48.86    1.76
 -11  -2   8   23.43    1.50
  11   2  -8   22.74    1.59
 -11   2   8   23.32    1.52
 -11  -2   8   22.29    1.24
 -11  -2   8   22.25    1.05
  11   2  -8   23.58    1.26
 -11   2   8   24.71    1.57
 -11   2   8   22.85    1.64
 -11  -2   7   32.53    1.71
 -11   2   7   33.23    1.80
 -11  -2   7   33.96    1.46
 -11  -2   7   33.86    1.35
 -11   2   7   37.61    1.96
  11   2  -7   33.25    1.54
 -11   2   7   33.32    1.92
 -11  -2   6    0.63    0.47
  11   2  -6    0.23    0.39
 -11   2   6   -0.15    0.44
 -11  -2   6    0.33    0.35
 -11  -2   6    0.75    0.39
 -11   2   6   -0.01    0.68
 -11   2   6    0.80    0.57
 -11  -2   5   95.85    2.89
 -11   2   5   94.66    3.00
 -11  -2   5   93.18    2.54
 -11   2   5   93.77    3.22
 -11   2   5   99.63    3.30
  11   2  -5   94.76    2.87
 -11  -2   4    9.87    0.91
 -11   2   4   12.18    1.08
 -11  -2   4    9.84    0.87
  11  -2  -4   11.86    1.19
  11   2  -4   11.45    1.04
 -11   2   4   12.43    1.18
 -11   2   4   11.26    1.19
 -11  -2   3   61.99    2.18
 -11   2   3   62.57    2.33
 -11  -2   3   61.72    2.15
  11  -2  -3   61.47    2.64
 -11   2   3   59.10    2.59
 -11   2   3   66.46    2.69
  11   2  -3   62.56    2.39
 -11  -2   2   18.71    1.17
  11   2  -2   18.22    1.35
 -11  -2   2   19.33    1.25
  11  -2  -2   19.32    1.51
 -11   2   2   19.13    1.51
 -11   2   2   19.84    1.45
  11   2  -1   37.75    1.92
 -11  -2   1   35.48    1.55
 -11  -2   1   36.43    1.77
 -11   2   1   39.56    2.12
  11  -2  -1   33.40    1.96
  11   2   0    2.19    0.71
 -11  -2   0    2.27    0.53
 -11  -2   0    2.70    0.68
 -11   2   0    2.64    0.72
  11  -2   0    3.29    0.82
  11   2   1   71.73    2.80
 -11  -2  -1   74.99    2.70
  11  -2   1   75.04    2.94
 -11   2  -1   76.82    3.00
  11   2   2    1.64    0.69
 -11  -2  -2    1.16    0.57
 -11   2  -2    0.40    0.50
  11  -2   2    1.27    0.72
  11   2   3   79.79    3.04
  11  -2   3   80.12    2.53
 -11  -2  -3   81.79    2.94
  11  -2   3   76.78    3.07
 -11   2  -3   81.08    3.14
  11   2   4   15.54    1.41
  11  -2   4   16.25    1.11
 -11   2  -4   15.05    1.18
 -11  -2  -4   18.09    1.45
  11  -2   4   15.83    1.52
  11   2   5   36.48    2.13
  11  -2   5   37.37    1.65
 -11   2  -5   37.44    1.81
 -11  -2  -5   37.22    2.08
  11  -2   5   37.25    2.18
  11  -2   6   17.93    1.17
 -11   2  -6   18.23    1.30
  11   2   6   20.26    1.66
  11  -2   6   17.32    1.54
  11  -2   7   16.43    1.12
 -11   2  -7   17.29    1.27
  11   2   7   17.23    1.56
  11  -2   7   18.00    1.63
  11  -2   8   16.86    1.11
 -11   2  -8   15.27    1.21
  11   2   8   18.51    1.66
  11  -2   8   14.36    1.43
 -11   2  -9    8.97    0.95
  11  -2   9   10.04    0.88
  11   2   9    8.33    1.19
  11  -2   9   11.98    1.37
  11  -2  10    6.28    0.72
 -11   2 -10    5.21    0.82
  11   2  10    5.50    0.31
  11   2  10    6.38    1.10
  11  -2  10    5.43    1.07
 -11   2 -11    5.32    0.82
 -11   2 -11    5.33    0.75
  11  -2  11    5.88    0.72
  11   2  11    5.49    0.39
  11   2  11    3.84    0.95
  11  -2  11    4.55    1.02
 -11   2 -12   43.96    2.15
  11  -2  12   46.73    1.87
  11   2  12   46.90    1.25
  11   2  12   48.20    2.82
 -11   2 -12   43.75    1.85
  11  -2  12   45.73    2.64
 -11   2 -13   34.13    1.97
  11  -2  13   34.49    1.61
  11   2  13   34.27    1.14
  11   2  13   35.40    2.46
 -11   2 -13   33.44    1.59
  11  -2  13   34.87    2.34
  11   2  14    1.89    0.35
  11  -2  14    2.60    0.58
 -11   2 -14    2.64    0.72
 -11   2 -14   -0.43    0.53
  11   2  14    1.26    0.95
  11  -2  14    1.31    0.82
  11   2  15    2.42    0.42
  11  -2  15    2.15    0.59
 -11   2 -15    1.52    0.48
  11   2  15    2.23    0.90
  11  -2  15    1.12    0.76
  11  -2  16    0.50    0.42
 -11   2 -16    0.63    0.40
  11   2  16   -0.08    0.82
  11  -2  16    0.37    0.77
  11   2  17   -0.73    0.96
  11  -2  17    0.35    0.69
  11   2  18   24.72    2.26
  11  -2  18   23.94    2.06
  11   2  19    8.19    1.46
  11  -2  19   10.15    1.48
  11   2  20    6.01    1.38
  11  -2  20    3.53    0.97
  11   2  21   -0.14    0.87
  11  -2  21    0.24    0.82
  11   2  22    0.68    0.86
  11  -2  22    0.23    0.76
  11  -2  23    0.34    0.84
  11  -2  24    0.53    0.78
  11  -2  25    0.12    0.86
  11  -2  26    5.66    1.42
 -11   3  32    9.21    1.60
 -11   3  31   -0.15    0.85
 -11   3  30   17.24    1.98
 -11   3  29   20.70    2.07
 -11  -3  29   19.96    2.18
 -11   3  28   36.82    2.67
 -11  -3  28   44.09    3.09
 -11   3  27    9.45    1.43
 -11  -3  27   13.47    1.83
 -11   3  26    6.60    1.26
 -11  -3  26    5.83    1.18
 -11   3  25    3.08    1.02
 -11  -3  25    3.75    1.16
 -11   3  24   87.09    3.91
 -11  -3  24   85.79    4.05
 -11   3  23    1.17    0.87
 -11  -3  23    2.02    0.93
 -11   3  22   73.75    3.51
 -11  -3  22   71.82    3.55
 -11   3  21  102.04    4.08
 -11  -3  21   97.95    4.08
 -11   3  20   11.28    1.50
 -11  -3  20   13.08    1.56
 -11   3  19    0.75    0.72
 -11  -3  19    1.00    0.68
 -11   3  18   27.85    2.09
 -11  -3  18   28.10    2.06
  11   3 -17    3.90    1.14
 -11   3  17    2.94    0.97
  11   3 -17    3.32    0.81
 -11  -3  17    4.46    1.01
  11   3 -16   50.61    2.75
  11   3 -16   53.43    2.51
 -11  -3  16   53.59    2.68
 -11   3  16   56.88    2.87
  11   3 -15   44.49    2.53
  11   3 -15   44.50    2.27
 -11  -3  15   45.77    2.44
 -11   3  15   46.44    2.57
  11   3 -15   42.73    1.05
  11   3 -14   93.63    3.64
  11   3 -14   97.23    3.42
 -11  -3  14   96.98    3.48
 -11   3  14   94.31    3.70
  11   3 -14   95.45    2.05
  11   3 -13   79.63    3.28
  11   3 -13   80.00    3.07
 -11  -3  13   78.75    3.02
 -11   3  13   82.84    3.39
  11   3 -13   78.12    1.99
  11   3 -12   22.17    1.72
 -11  -3  12   24.70    1.65
  11   3 -12   21.80    1.63
 -11   3  12   20.93    1.77
  11   3 -12   23.60    1.12
  11   3 -11    5.89    0.65
  11   3 -11    7.40    1.10
 -11  -3  11    8.17    1.07
  11   3 -11    4.98    0.94
 -11   3  11    5.85    1.07
 -11  -3  11    4.94    0.35
  11   3 -10   68.66    2.87
  11   3 -10   62.93    2.73
 -11  -3  10   70.03    2.63
  11   3 -10   67.36    2.57
 -11   3  10   64.89    2.96
 -11  -3  10   64.97    1.55
  11   3 -10   66.52    2.14
  11   3  -9   33.38    1.97
 -11   3   9   35.47    1.97
  11   3  -9   32.81    1.74
 -11  -3   9   32.02    1.15
 -11   3   9   32.07    2.09
  11   3  -9   30.43    1.48
 -11  -3   8   54.36    2.46
  11   3  -8   54.42    2.46
  11   3  -8   53.56    2.03
 -11   3   8   55.14    2.43
  11   3  -8   54.90    2.18
 -11   3   8   51.16    2.60
 -11  -3   8   50.84    1.63
  11   3  -7    7.05    0.81
  11   3  -7    6.09    0.99
 -11   3   7    6.59    0.89
 -11  -3   7    6.07    0.88
  11   3  -7    6.50    0.80
 -11  -3   7    6.42    0.61
 -11   3   7    6.23    1.05
  11   3  -6   46.99    2.21
  11   3  -6   48.30    2.04
 -11   3   6   46.36    2.15
  11   3  -6   48.16    1.94
 -11   3   6   45.35    2.47
 -11  -3   6   47.08    1.72
  11   3  -5   12.90    1.18
  11   3  -5   13.79    1.15
 -11   3   5   11.93    1.10
  11   3  -5   13.37    1.00
 -11  -3   5   12.42    0.93
 -11   3   5   14.67    1.50
  11   3  -4   42.17    2.03
  11   3  -4   42.02    2.01
  11   3  -4   41.59    1.68
 -11   3   4   41.99    1.98
 -11  -3   4   41.98    1.74
 -11   3   4   41.73    2.33
  11   3  -3    3.04    0.68
  11   3  -3    3.02    0.75
 -11   3   3    3.00    0.62
  11   3  -3    2.89    0.51
 -11  -3   3    3.53    0.64
 -11   3   3    3.99    0.92
  11   3  -2   57.15    2.26
  11   3  -2   57.94    2.46
  11   3  -2   55.41    1.84
 -11   3   2   55.87    2.31
 -11  -3   2   56.45    2.20
 -11   3   2   58.39    2.77
  11   3  -1   13.29    1.12
  11   3  -1   14.50    1.33
  11   3  -1   11.52    0.82
 -11   3   1   12.33    1.05
 -11  -3   1   11.37    1.08
 -11   3   1   13.09    1.42
  11   3   0   92.72    2.81
  11   3   0   92.77    3.29
  11   3   0   90.39    2.30
 -11  -3   0   87.38    2.99
 -11   3   0   89.04    3.46
  11   3   1   22.27    1.68
  11   3   1   22.01    1.32
  11   3   1   19.18    0.98
 -11  -3  -1   21.96    1.51
 -11   3  -1   21.96    1.77
  11   3   2   89.27    2.64
  11   3   2   87.74    3.33
  11   3   2   89.35    2.15
 -11  -3  -2   87.98    3.10
 -11   3  -2   90.09    3.52
  11   3   3   16.86    1.13
  11   3   3   18.19    1.60
  11   3   3   16.80    0.85
 -11  -3  -3   18.89    1.49
  11  -3   3   16.22    1.58
 -11   3  -3   18.50    1.62
 -11   3  -4  138.61    4.16
  11   3   4  134.59    2.68
  11   3   4  136.01    3.23
  11   3   4  131.49    4.32
  11  -3   4  135.21    4.40
 -11   3  -5    1.65    0.77
  11   3   5    0.15    0.27
  11   3   5    2.33    0.92
  11   3   5    0.93    0.49
  11  -3   5    1.84    0.87
  11   3   6   63.64    1.63
 -11   3  -6   60.51    2.72
  11   3   6   62.16    1.93
  11   3   6   57.13    2.86
  11  -3   6   62.23    2.96
  11   3   7    0.70    0.26
  11   3   7    0.70    0.66
  11   3   7    0.71    0.38
  11  -3   7   -0.37    0.62
  11   3   8   29.40    1.15
  11   3   8   31.53    2.21
  11  -3   8   29.93    2.09
  11   3   9    2.37    0.88
  11   3   9    2.37    0.38
  11  -3   9    2.75    0.90
  11   3  10   86.12    3.79
  11  -3  10   81.92    3.55
  11   3  11    6.34    1.29
  11  -3  11    7.50    1.26
 -11   3 -12   51.08    2.37
  11   3  12   51.92    3.05
  11  -3  12   49.18    2.77
 -11   3 -13    4.27    0.82
  11   3  13    4.16    1.18
  11  -3  13    4.73    1.09
 -11   3 -14   29.33    1.83
  11   3  14   30.08    2.44
  11  -3  14   31.24    2.29
  11   3  15    1.10    0.83
 -11   3 -15   -0.05    0.51
  11  -3  15    1.47    0.86
 -11   3 -16   19.26    1.52
  11   3  16   20.90    2.12
  11  -3  16   19.19    1.90
  11   3  17   -0.60    0.80
  11  -3  17   -0.43    0.75
  11   3  18   28.30    2.51
  11  -3  18   28.75    2.28
  11   3  19    6.79    1.43
  11  -3  19    3.08    1.05
  11   3  20   13.74    1.84
  11  -3  20    9.99    1.49
  11  -3  21    1.37    0.83
  11  -3  22    3.43    1.13
  11  -3  23   -1.88    0.97
  11  -3  24    3.81    1.05
 -11   4  28   18.41    2.10
 -11   4  27   -0.89    1.27
 -11  -4  27    3.01    1.08
 -11   4  26   21.38    2.18
 -11  -4  26   23.27    2.35
 -11   4  25   68.50    3.79
 -11  -4  25   73.82    3.99
 -11   4  24   42.94    2.97
 -11  -4  24   37.20    2.83
 -11   4  23   25.50    2.33
 -11  -4  23   30.29    2.52
  11   4 -22   40.87    2.89
 -11   4  22   41.95    2.87
 -11  -4  22   35.67    2.66
  11   4 -21    0.96    0.87
 -11   4  21    3.28    1.13
 -11  -4  21    1.71    1.03
  11   4 -20    2.52    1.16
 -11   4  20    0.88    0.79
 -11  -4  20    0.45    0.83
  11   4 -19   53.46    3.17
 -11   4  19   54.54    3.16
 -11  -4  19   53.70    3.08
  11   4 -18   11.77    1.51
 -11   4  18   11.94    1.57
  11   4 -18   11.02    1.22
 -11  -4  18   12.30    1.58
  11   4 -17   28.22    2.24
 -11   4  17   26.52    2.24
  11   4 -17   26.98    1.83
 -11  -4  17   28.16    2.16
  11   4 -16   33.68    2.41
  11   4 -16   31.56    1.98
 -11   4  16   32.03    2.38
  11   4 -15    1.91    0.94
  11   4 -15    1.54    0.65
 -11   4  15    3.56    1.01
  11   4 -15    1.86    0.30
  11   4 -14    6.39    1.21
  11   4 -14    7.37    1.10
 -11   4  14    7.40    1.30
  11   4 -14    8.25    0.67
  11   4 -13   18.30    1.76
  11   4 -13   17.11    1.52
 -11   4  13   21.37    1.96
  11   4 -13   16.76    1.02
  11   4 -12   18.79    1.75
  11   4 -12   19.82    1.15
  11   4 -12   17.62    1.54
 -11   4  12   20.46    1.90
  11   4 -11   50.18    2.70
  11   4 -11   46.84    1.84
 -11   4  11   51.22    2.85
  11   4 -10   28.24    2.07
  11   4 -10   29.02    1.53
 -11  -4  10   28.27    1.02
 -11   4  10   30.10    2.22
  11   4  -9   43.29    2.46
  11   4  -9   43.21    1.95
 -11  -4   9   42.46    1.42
 -11   4   9   39.55    2.53
  11   4  -9   42.55    2.20
  11   4  -8   24.39    1.84
  11   4  -8   24.84    1.52
  11   4  -8   25.17    1.69
 -11   4   8   23.83    2.00
 -11  -4   8   22.08    1.12
  11   4  -7    0.52    0.49
  11   4  -7    0.51    0.70
  11   4  -7    1.20    0.58
 -11  -4   7    1.04    0.42
 -11   4   7    1.95    1.02
  11   4  -6    2.07    0.64
  11   4  -6    1.84    0.73
 -11   4   6    3.71    0.77
  11   4  -6    2.40    0.62
 -11  -4   6    2.73    0.57
 -11   4   6    1.77    0.86
  11   4  -5   19.15    1.60
  11   4  -5   14.86    1.32
  11   4  -5   15.84    1.24
 -11   4   5   17.52    1.40
 -11  -4   5   15.91    1.14
 -11   4   5   16.76    1.68
  11   4  -4   16.43    1.48
  11   4  -4   15.96    1.36
  11   4  -4   16.81    1.25
 -11   4   4   14.99    1.28
 -11  -4   4   17.08    1.21
 -11   4   4   16.23    1.62
  11   4  -3   30.87    1.92
  11   4  -3   29.90    1.92
 -11   4   3   29.63    2.15
 -11  -4   3   27.74    1.59
 -11   4   3   27.01    1.65
  11   4  -3   30.13    1.68
  11   4  -2   77.74    3.00
  11   4  -2   77.72    3.11
 -11   4   2   79.08    2.79
  11   4  -2   79.69    2.68
 -11  -4   2   76.19    2.74
 -11   4   2   79.58    3.50
  11   4  -1   12.90    1.41
  11   4  -1   13.26    1.30
 -11   4   1   12.05    1.08
  11   4  -1   11.56    0.99
 -11  -4   1   13.16    1.23
 -11   4   1   11.32    1.41
  11   4   0   62.45    2.61
  11   4   0   58.54    2.79
  11   4   0   55.94    2.16
 -11   4   0   60.49    2.31
 -11  -4   0   58.35    2.52
 -11   4   0   63.62    3.14
  11   4   1   28.89    1.75
  11   4   1   30.77    2.08
  11   4   1   27.59    1.49
 -11  -4  -1   26.12    1.76
 -11   4  -1   27.76    2.11
  11   4   2   96.13    2.83
  11   4   2   97.15    3.19
  11   4   2   94.76    3.73
 -11   4  -2   97.04    3.89
  11   4   3   30.81    1.54
  11   4   3   32.89    1.78
  11   4   3   33.15    2.23
 -11   4  -3   30.93    2.25
  11   4   4   61.42    2.14
  11   4   4   61.60    2.40
  11   4   4   56.99    2.96
 -11   4  -4   63.08    3.12
  11   4   5    9.12    0.84
  11   4   5   10.61    1.43
  11   4   5    9.21    0.98
 -11   4  -5    9.35    1.38
  11   4   6   76.08    2.57
  11   4   6   71.30    3.42
 -11   4  -6   77.90    3.54
  11   4   7   13.52    1.66
  11   4   7   13.28    1.13
 -11   4  -7   13.02    1.59
  11   4   8   78.12    2.51
  11   4   8   78.38    3.71
 -11   4  -8   80.07    3.66
  11   4   9   15.93    1.80
  11   4   9   12.26    1.01
 -11   4  -9   12.80    1.62
  11   4  10   97.97    4.30
 -11   4 -10  103.21    4.20
  11   4  11    6.25    1.34
 -11   4 -11    5.76    1.27
 -11   4 -12   67.19    3.12
  11   4  12   68.26    3.69
 -11   4 -13    5.32    1.08
  11   4  13    4.31    1.27
 -11   4 -14   44.82    2.58
  11   4  14   48.14    3.25
 -11   4 -15    4.80    1.03
  11   4  15    7.52    1.55
  11   4  16   83.90    4.30
 -11   4 -16   78.66    3.42
  11  -4  16   82.15    3.92
  11  -4  17    2.90    1.09
  11  -4  18   24.61    2.20
  11  -4  19    1.26    0.91
  11  -4  20   18.87    2.00
  11  -4  21    1.44    0.90
 -11   5  22    5.13    1.44
  11   5 -21   12.90    1.98
 -11   5  21   14.15    1.90
  11   5 -20   63.99    3.76
 -11   5  20   68.69    3.85
  11   5 -19   13.26    1.85
 -11   5  19   15.20    1.88
  11   5 -18   12.47    1.76
 -11   5  18    9.98    1.71
  11   5 -18   13.12    1.36
  11   5 -17   21.97    2.16
 -11   5  17   23.74    2.28
  11   5 -17   22.59    1.76
  11   5 -16    1.88    1.05
 -11   5  16   -0.30    0.90
  11   5 -16    0.49    0.57
  11   5 -15   18.13    1.98
 -11   5  15   23.45    2.24
  11   5 -15   16.77    1.59
  11   5 -14   13.76    1.80
 -11   5  14   18.16    1.97
  11   5 -14   17.97    1.62
  11   5 -13   14.60    1.81
 -11   5  13   17.42    1.96
  11   5 -13   13.47    1.42
  11   5 -12   78.22    3.81
  11   5 -12   78.67    2.65
 -11   5  12   86.46    4.07
  11   5 -12   76.60    3.30
  11   5 -11   48.90    2.95
  11   5 -11   47.95    2.12
 -11   5  11   51.19    3.11
  11   5 -10   30.40    2.32
  11   5 -10   33.51    1.83
 -11   5  10   32.14    2.55
  11   5  -9   21.32    1.97
  11   5  -9   22.36    1.55
 -11   5   9   23.13    2.13
  11   5  -8    8.57    1.01
  11   5  -8    8.76    1.33
 -11   5   8   10.15    1.55
  11   5  -7    0.56    0.55
  11   5  -7    1.79    0.87
 -11   5   7    2.60    1.02
  11   5  -6   27.10    2.10
  11   5  -6   26.91    1.86
 -11   5   6   29.43    2.40
  11   5  -5   15.46    1.62
  11   5  -5   15.88    1.47
 -11   5   5   15.75    1.73
  11   5  -4   11.01    1.31
  11   5  -4   12.12    1.40
 -11   5   4   11.32    1.61
  11   5  -3   14.11    1.46
  11   5  -3   18.35    1.74
 -11   5   3   17.25    1.81
  11   5  -2   10.08    1.28
  11   5  -2   10.81    1.33
 -11   5   2    9.72    1.52
  11   5  -1   24.92    1.94
  11   5  -1   25.39    1.90
 -11   5   1   27.71    2.24
  11   5   0    5.22    1.01
  11   5   0    6.62    1.12
 -11   5   0    7.50    1.31
  11   5   1   23.39    1.98
  11   5   1   21.12    1.71
 -11   5  -1   24.53    2.10
  11   5   2    5.54    1.12
  11   5   2    5.78    0.97
 -11   5  -2    7.37    1.29
  11   5   3   13.43    1.59
  11   5   3   15.67    1.45
 -11   5  -3   17.85    1.84
  11   5   4   -0.70    0.59
  11   5   4    1.72    0.86
 -11   5  -4    1.17    0.90
  11   5   5   10.96    1.22
  11   5   5   12.65    1.61
 -11   5  -5   11.57    1.57
  11   5   6    0.02    0.60
  11   5   6   -0.03    0.86
 -11   5  -6    1.94    0.96
  11   5   7   14.74    1.80
  11   5   7   12.20    1.22
 -11   5  -7   13.96    1.67
  11   5   8   -0.08    0.81
 -11   5  -8    0.88    0.86
  11   5   9   10.41    1.62
 -11   5  -9    7.83    1.34
  11   5  10    2.35    0.99
 -11   5 -10    2.80    1.04
  11   5  11    8.01    1.41
 -11   5 -11    6.85    1.29
 -11   5 -12    4.71    1.21
  11   5  12    3.99    1.16
 -11   5 -12    3.04    1.10
 -11   5 -13    6.83    1.24
 -11   5 -13    6.17    1.31
 -11   5 -14    2.15    0.85
 -11   5 -14    2.26    1.00
 -11   5 -15    9.86    1.52
 -11   5 -15    8.71    1.50
 -11   5 -16    4.94    1.16
 -11   5 -16    8.08    1.49
 -11   5 -17   -0.73    0.91
 -11   5 -18    3.62    1.19
  11   6 -15    3.68    1.32
  11   6 -14   71.18    3.98
  11   6 -13    0.68    0.94
 -11   6  13    0.73    1.02
  11   6 -13    2.49    0.95
  11   6 -12   41.75    2.99
 -11   6  12   41.28    2.99
  11   6 -12   37.56    2.42
  11   6 -11   11.11    1.79
 -11   6  11   11.00    1.73
  11   6 -10   26.21    2.37
 -11   6  10   23.28    2.29
  11   6  -9   12.81    1.73
 -11   6   9   15.16    1.92
  11   6  -8   25.10    2.29
  11   6  -8   24.50    1.85
 -11   6   8   23.57    2.28
  11   6  -7    1.75    0.70
  11   6  -7    1.47    0.95
 -11   6   7    0.09    0.84
  11   6  -6   17.57    1.88
  11   6  -6   18.38    1.69
 -11   6   6   21.72    2.19
  11   6  -5    0.96    0.64
  11   6  -5    0.32    0.90
 -11   6   5    0.03    0.85
  11   6  -4   11.24    1.40
  11   6  -4   11.72    1.58
 -11   6   4   13.80    1.80
  11   6  -3    2.87    0.97
  11   6  -3    2.21    1.00
 -11   6   3    1.66    1.05
  11   6  -2   16.42    1.73
  11   6  -2   14.99    1.73
 -11   6   2   15.97    1.90
  11   6  -1    2.32    0.97
  11   6  -1    2.47    0.98
 -11   6   1    3.06    1.07
  11   6   0   19.28    1.86
  11   6   0   18.04    1.89
 -11   6   0   17.12    1.98
  11   6   1   -0.76    0.90
  11   6   1    0.08    0.77
 -11   6  -1   -0.43    0.81
  11   6   2    9.52    1.39
  11   6   2    7.38    1.32
 -11   6  -2   10.67    1.55
  11   6   3    0.08    0.73
  11   6   3    1.15    0.84
 -11   6  -3    1.30    0.91
  11   6   4    5.48    1.17
  11   6   4    4.48    1.19
 -11   6  -4    4.31    1.15
  11   6   5    0.98    0.72
  11   6   5   -0.25    0.84
 -11   6  -5   -0.12    0.78
  11   6   6    3.34    1.21
 -11   6  -6    1.68    1.03
  11   6   7    2.15    1.20
 -11   6  -7    0.08    0.82
 -11   6  -8    0.37    0.83
 -11   6  -9    2.74    1.20
 -11   6 -10    0.91    0.90
 -11   6 -11    0.67    0.84
 -11   6 -12    0.73    0.91
  11   7  -3    9.54    1.58
  11   7  -2   -0.39    0.87
  11   7  -2    0.24    0.90
  11   7  -1    9.48    1.62
  11   7  -1    8.30    1.54
  11   7   0   -0.06    0.90
  11   7   0    1.56    1.06
  11   7   1    5.75    1.29
  11   7   1    6.36    1.40
  11   7   2    3.48    1.06
 -12   0  32    2.89    1.21
 -12   0  31    0.44    0.86
 -12   0  30   -1.38    1.01
 -12   0  30    0.51    0.59
 -12   0  29    0.13    0.89
 -12   0  29    0.43    0.56
 -12   0  28   26.71    2.37
 -12   0  28   30.09    1.77
 -12   0  27    0.34    0.98
 -12   0  27   -0.52    0.66
 -12   0  26   27.78    2.29
 -12   0  26   29.37    1.69
 -12   0  25    0.49    0.51
  12   0 -25   -0.21    0.70
 -12   0  24   19.29    1.29
 -12   0  24   19.32    1.12
  12   0 -24   19.10    1.31
 -12   0  23    0.16    0.45
 -12   0  23    0.52    0.37
  12   0 -23    0.54    0.47
 -12   0  22   36.69    1.77
 -12   0  22   35.65    1.51
  12   0 -22   33.74    1.70
 -12   0  21    0.34    0.48
 -12   0  21   -0.44    0.36
  12   0 -21   -0.99    0.56
 -12   0  20    7.07    0.81
 -12   0  20    7.11    0.71
 -12   0  19   -0.27    0.43
 -12   0  19    0.55    0.36
 -12   0  18   44.72    1.84
 -12   0  18   41.55    1.65
 -12   0  17    0.51    0.50
 -12   0  17    0.23    0.26
 -12   0  16   51.27    1.96
 -12   0  16   48.75    1.82
 -12   0  15   -0.02    0.49
 -12   0  15    0.06    0.41
 -12   0  15    0.35    0.32
 -12   0  14    9.84    1.08
 -12   0  14    8.70    0.84
 -12   0  14    6.80    0.72
 -12   0  13   -0.50    0.46
 -12   0  13    0.14    0.35
 -12   0  13    0.14    0.42
 -12   0  12  117.82    3.63
 -12   0  12  111.81    3.02
 -12   0  12  110.73    3.00
 -12   0  11    0.95    0.56
  12   0 -11    0.16    0.43
 -12   0  11    0.13    0.45
 -12   0  11    0.04    0.38
  12   0 -10  249.88    5.70
  12   0 -10  258.06    5.12
 -12   0  10  254.97    5.05
 -12   0  10  258.57    5.13
  12   0  -9   -0.06    0.54
 -12   0   9    0.28    0.44
  12   0  -9    0.01    0.40
 -12   0   9    0.36    0.45
  12   0  -8  239.06    5.43
  12   0  -8  245.30    5.04
 -12   0   8  239.05    5.03
  12   0  -7    0.19    0.50
 -12   0   7    0.17    0.42
  12   0  -7    0.16    0.46
  12   0  -6    2.57    0.71
 -12   0   6    2.19    0.57
  12   0  -6    2.01    0.54
  12   0  -5    0.38    0.56
 -12   0   5   -0.30    0.42
  12   0  -5   -0.33    0.49
  12   0  -4  493.46    8.70
  12   0  -4  484.98    8.49
 -12   0   4  513.34    8.66
  12   0  -3    0.38    0.57
 -12   0   3    0.46    0.47
  12   0  -3   -0.21    0.49
  12   0  -2   21.65    1.44
 -12   0   2   20.98    1.46
  12   0  -2   21.78    1.48
  12   0  -1    0.09    0.59
 -12   0   1    0.05    0.49
  12   0  -1    0.77    0.57
 -12   0   0   18.36    1.42
  12   0   0   20.96    1.51
 -12   0  -1    0.23    0.17
 -12   0  -1    0.07    0.47
  12   0   1    0.75    0.59
 -12   0  -2  313.82    4.12
 -12   0  -2  319.74    6.77
  12   0   2  303.37    6.61
 -12   0  -3    0.51    0.53
  12   0   3   -0.12    0.60
 -12   0  -4   36.07    2.03
  12   0   4   32.87    2.00
  12   0   5   -0.26    0.60
 -12   0  -6    1.20    0.24
  12   0   6    2.08    0.72
 -12   0  -7   -0.01    0.13
  12   0   7    0.44    0.61
  12   0   8   18.76    1.63
  12   0   9    0.02    0.62
  12   0  10   23.26    1.86
  12   0  11   -0.63    0.76
  12   0  12    8.34    1.21
  12   0  13    0.32    0.70
  12   0  14   46.84    2.79
  12   0  15    1.09    0.87
  12   0  16   52.24    3.02
  12   0  17   -0.30    0.79
  12   0  18    7.73    1.41
  12   0  19   -0.28    0.76
  12   0  20    4.73    1.12
  12   0  21   -0.18    0.78
  12   0  22   17.12    2.02
  12   0  23    0.04    0.92
  12   0  24   13.23    1.84
 -12  -1  32    8.21    1.52
 -12   1  32    8.95    1.27
 -12  -1  31   41.20    3.03
 -12   1  31   36.26    2.41
 -12  -1  30    0.01    0.97
 -12   1  30   -0.84    0.78
 -12  -1  29   10.83    1.67
 -12   1  29   10.88    1.32
 -12  -1  28   28.94    2.41
 -12   1  28   28.78    2.00
 -12  -1  27    3.45    1.08
 -12   1  27    5.08    1.06
 -12  -1  26   20.34    2.00
 -12  -1  26   20.15    1.12
 -12   1  26   17.72    1.48
 -12  -1  25   13.14    1.62
 -12   1  25   15.33    1.38
 -12  -1  25   14.00    0.93
 -12   1  25   13.55    1.16
 -12  -1  24   46.51    2.80
 -12   1  24   39.09    2.15
 -12  -1  24   45.68    1.61
 -12   1  24   41.16    1.99
 -12  -1  23  258.97    6.84
 -12   1  23  256.72    6.01
 -12  -1  23  270.27    4.67
 -12   1  23  255.22    5.60
  12  -1 -23  254.10    5.97
 -12  -1  22    0.41    0.19
 -12  -1  22    0.72    0.83
 -12   1  22   -0.64    0.67
 -12  -1  22   -0.23    0.35
 -12   1  22    1.13    0.55
  12  -1 -22   -0.22    0.49
 -12  -1  21    8.56    0.50
 -12  -1  21    7.30    1.12
 -12  -1  21    8.14    0.67
 -12   1  21    9.73    1.11
 -12   1  21    9.33    0.97
  12  -1 -21    8.71    1.02
 -12  -1  20   95.66    2.00
 -12  -1  20   97.06    3.69
 -12   1  20   90.38    2.81
 -12  -1  20  100.92    2.37
 -12   1  20   97.99    3.08
  12  -1 -20  100.22    3.33
 -12  -1  19    6.50    0.52
 -12  -1  19    6.36    1.10
 -12   1  19    4.57    0.81
 -12  -1  19    6.12    0.61
 -12   1  19    6.32    0.84
  12  -1 -19    5.36    0.81
 -12  -1  18    7.61    0.59
 -12  -1  18    6.15    0.98
 -12   1  18    5.80    0.86
 -12  -1  18    6.87    0.59
  12  -1 -18    4.74    0.75
 -12   1  18    7.53    0.86
 -12  -1  17  160.94    3.14
 -12  -1  17  157.82    4.52
 -12   1  17  168.54    4.32
 -12  -1  17  165.17    3.24
 -12   1  17  161.21    4.08
 -12  -1  16  226.49    4.05
 -12  -1  16  218.57    5.37
 -12   1  16  227.07    5.17
 -12  -1  16  234.18    4.10
 -12   1  16  221.05    4.97
 -12  -1  15  114.35    2.64
 -12  -1  15  109.72    3.51
 -12  -1  15  116.34    2.60
 -12   1  15  114.05    3.42
 -12   1  15  110.45    3.26
 -12  -1  14   38.29    2.06
 -12  -1  14   35.15    1.38
 -12  -1  14   34.89    1.84
 -12   1  14   40.13    1.96
 -12  -1  14   36.86    1.37
 -12   1  14   42.17    1.90
 -12  -1  13   13.34    1.24
 -12  -1  13   11.36    0.79
 -12  -1  13   13.71    1.13
  12   1 -13   13.12    1.22
 -12   1  13   13.31    1.25
 -12  -1  13   11.08    0.74
  12   1 -13   12.77    0.85
 -12   1  13   11.58    1.04
 -12   1  13   11.02    1.08
 -12  -1  12  185.90    4.75
 -12  -1  12  176.79    3.76
  12   1 -12  190.21    4.85
 -12  -1  12  180.98    4.32
 -12   1  12  196.37    4.96
 -12   1  12  182.50    4.47
  12   1 -12  191.28    3.86
 -12  -1  12  192.99    3.72
 -12   1  12  192.40    4.48
 -12  -1  11  123.70    3.66
 -12  -1  11  118.66    2.96
  12   1 -11  118.10    3.70
 -12  -1  11  117.94    3.23
 -12   1  11  120.79    3.73
 -12   1  11  119.17    3.48
  12   1 -11  120.79    2.97
 -12  -1  11  121.76    2.82
 -12   1  11  130.56    3.56
  12   1 -10  202.16    4.99
 -12  -1  10  194.06    4.24
 -12   1  10  205.62    4.94
 -12  -1  10  198.65    4.76
 -12  -1  10  190.91    4.09
  12   1 -10  198.45    4.11
 -12   1  10  197.12    4.61
 -12   1  10  187.60    4.57
 -12  -1  10  197.85    3.91
 -12  -1   9   44.65    1.75
  12   1  -9   48.27    2.28
 -12   1   9   49.38    2.22
 -12  -1   9   46.05    2.07
 -12  -1   9   47.46    1.84
  12   1  -9   47.60    1.84
 -12   1   9   42.73    2.00
 -12   1   9   46.25    2.06
 -12  -1   8   10.52    0.82
  12   1  -8   10.28    1.11
 -12   1   8   13.12    1.17
 -12  -1   8   12.46    1.07
 -12  -1   8   11.91    0.97
  12  -1  -8   13.33    1.15
  12   1  -8   12.32    0.99
 -12   1   8   12.33    1.10
 -12   1   8   12.75    1.11
 -12   1   7  136.78    3.80
 -12  -1   7  129.56    2.91
  12   1  -7  130.16    3.86
 -12  -1   7  131.50    3.51
 -12  -1   7  133.77    3.41
 -12   1   7  136.77    3.74
  12  -1  -7  129.08    3.68
 -12   1   7  129.06    3.64
  12   1  -7  132.00    3.39
 -12  -1   6   47.54    1.53
  12   1  -6   48.71    2.29
 -12  -1   6   46.24    1.91
 -12  -1   6   47.55    1.96
  12  -1  -6   49.14    2.17
  12   1  -6   46.53    1.95
 -12   1   6   55.16    2.30
 -12   1   6   47.04    2.14
  12  -1  -5    1.05    0.60
  12   1  -5    1.28    0.65
 -12  -1   5    1.09    0.34
 -12  -1   5    0.92    0.49
 -12  -1   5    0.71    0.42
  12  -1  -5    0.83    0.55
  12   1  -5    1.03    0.47
 -12   1   5    0.40    0.46
 -12  -1   4    0.19    0.25
  12  -1  -4   -0.56    0.62
 -12  -1   4   -0.01    0.42
 -12  -1   4    0.11    0.37
  12   1  -4    0.49    0.53
 -12   1   4    0.58    0.45
  12  -1  -4    0.52    0.56
  12  -1  -3   77.32    2.72
 -12  -1   3   81.83    1.63
 -12  -1   3   78.55    2.37
 -12  -1   3   82.36    2.78
  12  -1  -3   77.85    2.87
  12   1  -3   80.63    2.76
 -12   1   3   86.32    2.98
  12  -1  -2    4.14    0.75
 -12  -1   2    3.82    0.73
 -12  -1   2    4.50    0.58
 -12   1   2    3.90    0.72
  12   1  -2    4.91    0.80
  12  -1  -2    3.62    0.84
  12  -1  -1  272.16    5.67
 -12  -1   1  269.41    4.85
 -12  -1   1  277.21    5.98
  12   1  -1  262.57    5.80
 -12   1   1  279.26    6.11
  12  -1  -1  269.60    5.97
  12  -1   0   49.13    2.14
 -12  -1   0   47.11    2.19
 -12  -1   0   44.56    1.56
  12   1   0   43.25    2.12
  12  -1   0   46.73    2.28
 -12   1   0   49.92    2.36
  12  -1   1   40.02    1.91
 -12  -1  -1   39.06    1.38
 -12  -1  -1   37.19    2.02
  12   1   1   41.29    2.13
  12  -1   1   40.09    2.13
 -12   1  -1   44.53    2.24
  12  -1   2    6.37    0.84
 -12  -1  -2    5.89    0.95
  12   1   2    6.35    0.97
 -12  -1  -2    5.14    0.49
 -12   1  -2    6.25    0.94
  12  -1   2    4.42    0.78
 -12   1  -3   22.25    1.09
  12  -1   3   20.92    1.39
 -12  -1  -3   21.62    0.89
 -12  -1  -3   22.65    1.61
 -12   1  -3   23.20    1.69
  12  -1   3   19.50    1.57
  12   1   3   22.59    1.64
 -12  -1  -4    3.88    0.38
  12  -1   4    5.11    0.75
 -12   1  -4    3.91    0.51
  12   1   4    3.16    0.82
  12  -1   4    4.52    0.94
 -12   1  -5  149.78    3.19
  12  -1   5  144.85    3.83
  12   1   5  138.02    4.39
  12  -1   5  142.79    4.39
 -12   1  -6    0.39    0.37
  12   1   6    1.69    0.78
  12  -1   6    0.50    0.63
 -12   1  -7   19.33    1.06
  12   1   7   19.06    1.63
  12  -1   7   16.58    1.52
 -12   1  -8    0.28    0.37
  12   1   8   -0.49    0.76
  12  -1   8   -0.51    0.67
 -12   1  -9   26.51    1.31
  12   1   9   28.81    2.06
  12  -1   9   25.30    1.90
 -12   1 -10    0.27    0.29
 -12   1 -10   -0.25    0.41
  12   1  10    0.55    0.64
  12  -1  10    0.46    0.69
  12   1  11   16.89    1.64
 -12   1 -11   17.07    0.80
  12  -1  11   14.66    1.52
 -12   1 -12   29.20    1.01
  12   1  12   26.77    2.09
  12  -1  12   27.55    2.11
 -12   1 -13   35.48    1.03
  12   1  13   34.22    2.45
  12  -1  13   32.32    2.32
  12  -1  14   42.58    2.65
  12   1  14   45.62    2.81
  12  -1  15  108.99    4.34
  12   1  15  117.86    4.65
  12   1  16    9.82    1.48
  12  -1  16   12.97    1.62
  12   1  17   19.10    1.96
  12  -1  17   20.12    1.95
  12   1  18    9.31    1.50
  12  -1  18   10.17    1.44
  12   1  19    9.25    1.59
  12  -1  19    6.89    1.25
  12   1  20    8.14    1.48
  12  -1  20    5.63    1.20
  12   1  21   13.41    1.79
  12  -1  21   11.92    1.64
  12   1  22   -0.44    0.91
  12  -1  22    0.13    0.88
  12   1  23   15.75    1.96
  12  -1  23   14.65    1.91
  12  -1  24    7.10    1.47
  12  -1  25   20.86    2.24
 -12   2  35    2.65    1.00
 -12   2  34    0.03    0.80
 -12   2  33   -1.06    0.89
 -12   2  32    1.00    0.85
 -12  -2  31   18.43    2.14
 -12   2  31   17.54    1.84
 -12  -2  30    0.40    0.86
 -12   2  30   -0.43    0.81
 -12  -2  29    0.78    0.78
 -12   2  29    0.35    0.78
 -12  -2  28   -1.21    1.05
 -12   2  28   -1.12    0.93
 -12  -2  27   -1.36    1.03
 -12   2  27   -0.62    0.84
 -12  -2  26    6.48    1.26
 -12   2  26    5.51    1.02
 -12  -2  25    5.93    1.18
 -12   2  25    3.88    0.93
 -12  -2  24   28.58    2.27
 -12   2  24   25.91    1.97
 -12  -2  23   -0.67    0.69
 -12   2  23   -0.52    0.79
 -12  -2  22   -1.17    0.83
 -12   2  22   -0.73    0.79
 -12  -2  21   44.88    2.61
 -12   2  21   42.34    2.40
 -12  -2  20   14.17    1.49
 -12   2  20   10.30    1.25
 -12  -2  19   11.89    1.37
 -12   2  19   12.25    1.34
 -12  -2  18   62.87    2.87
 -12   2  18   60.51    2.77
 -12  -2  17   23.07    1.72
 -12   2  17   23.40    1.74
 -12   2  17   24.61    1.69
  12   2 -16   -0.40    0.64
 -12  -2  16    0.96    0.60
 -12   2  16    0.73    0.62
 -12   2  16    0.17    0.46
  12   2 -15    9.49    1.10
 -12  -2  15   13.95    1.29
 -12   2  15   11.90    1.26
 -12  -2  15   10.55    0.39
  12   2 -15   11.87    0.68
 -12   2  15   11.66    1.17
 -12  -2  14    7.91    1.02
  12   2 -14    7.76    1.04
 -12   2  14    5.88    0.92
 -12  -2  14    7.79    0.43
 -12  -2  14    6.67    0.37
  12   2 -14    7.01    0.56
 -12   2  14    6.30    0.87
 -12  -2  13    3.77    0.59
  12   2 -13    4.97    0.86
 -12  -2  13    4.89    0.37
  12   2 -13    4.85    0.55
 -12   2  13    3.01    0.83
 -12  -2  13    4.70    0.40
 -12   2  13    3.85    0.65
 -12  -2  12   69.57    2.84
  12   2 -12   70.99    2.88
 -12  -2  12   65.68    2.48
 -12   2  12   68.58    2.86
 -12  -2  12   67.18    1.65
 -12   2  12   70.18    2.78
  12   2 -12   68.24    2.01
 -12  -2  12   68.55    1.66
 -12  -2  11  103.98    3.45
 -12   2  11  104.71    3.49
  12   2 -11  100.42    3.47
 -12  -2  11   95.75    2.95
 -12  -2  11   95.16    2.19
 -12   2  11  100.04    3.43
 -12   2  11  108.47    3.50
  12   2 -11   99.29    2.59
 -12  -2  10    2.76    0.73
 -12  -2  10    2.50    0.58
 -12   2  10    1.81    0.63
  12   2 -10    0.78    0.59
 -12  -2  10    2.00    0.38
 -12   2  10    0.76    0.61
  12   2 -10    1.21    0.43
 -12   2  10    0.52    0.54
 -12  -2   9  166.14    4.35
 -12   2   9  166.45    4.45
 -12  -2   9  164.98    3.82
  12   2  -9  163.77    4.53
 -12  -2   9  159.32    3.29
 -12   2   9  161.45    4.52
 -12   2   9  168.76    4.53
  12   2  -9  164.48    3.73
 -12  -2   8   19.54    1.40
  12   2  -8   18.80    1.52
 -12   2   8   20.79    1.48
 -12  -2   8   19.93    1.17
 -12  -2   8   20.02    1.08
 -12   2   8   19.38    1.51
 -12   2   8   19.91    1.47
  12   2  -8   19.23    1.20
  12   2  -7    1.25    0.48
 -12  -2   7    0.77    0.44
 -12   2   7    1.46    0.62
 -12  -2   7    0.90    0.38
 -12  -2   7    1.55    0.47
 -12   2   7    1.75    0.66
 -12   2   7    1.21    0.68
 -12  -2   6   50.06    2.13
 -12  -2   6   55.38    1.78
 -12   2   6   53.95    2.33
 -12  -2   6   52.95    1.89
 -12   2   6   49.13    2.36
  12   2  -6   53.86    2.14
 -12   2   6   55.52    2.46
 -12  -2   5   30.99    1.61
 -12   2   5   29.60    1.70
 -12  -2   5   29.96    1.45
  12   2  -5   32.09    1.69
 -12   2   5   31.39    1.89
 -12   2   5   33.62    1.91
 -12  -2   4   32.86    1.63
 -12   2   4   32.58    1.74
 -12  -2   4   31.43    1.57
  12  -2  -4   31.65    1.94
  12   2  -4   33.89    1.79
 -12   2   4   31.32    1.94
 -12   2   4   33.65    1.94
 -12  -2   3   94.84    2.80
 -12  -2   3   92.79    2.83
  12  -2  -3   97.32    3.41
 -12   2   3   95.17    3.39
  12   2  -3   93.90    3.10
 -12   2   3  100.00    3.43
  12   2  -2    3.41    0.75
 -12  -2   2    2.76    0.53
 -12  -2   2    3.63    0.70
 -12   2   2    2.26    0.73
  12  -2  -2    2.09    0.73
 -12   2   2    2.75    0.81
 -12  -2   1  321.49    5.83
 -12  -2   1  337.85    6.49
  12  -2  -1  320.02    7.02
  12   2  -1  334.06    6.83
 -12  -2   0   54.43    1.90
 -12  -2   0   56.11    2.35
  12   2   0   56.00    2.51
  12  -2   0   55.07    2.58
  12   2   1   45.13    2.30
 -12  -2  -1   45.25    2.14
  12  -2   1   45.16    2.38
  12   2   2   15.19    1.42
 -12  -2  -2   12.51    1.21
  12  -2   2   10.54    1.21
  12   2   3   19.23    1.58
  12  -2   3   19.79    1.29
 -12  -2  -3   19.36    1.47
  12  -2   3   20.07    1.65
  12  -2   4   91.43    2.81
 -12   2  -4   90.06    2.88
  12   2   4   96.31    3.55
  12  -2   4   87.09    3.43
  12  -2   5   78.53    2.60
 -12   2  -5   85.18    2.79
  12   2   5   81.30    3.31
  12  -2   5   78.91    3.28
  12  -2   6    4.81    0.70
 -12   2  -6    5.36    0.77
  12   2   6    5.09    1.03
  12  -2   6    7.12    1.14
 -12   2  -7   -0.28    0.54
  12  -2   7    0.32    0.42
  12   2   7    0.55    0.67
  12  -2   7    0.62    0.75
 -12   2  -8   11.55    1.07
  12  -2   8   13.59    1.05
  12   2   8   13.40    1.49
  12  -2   8   11.87    1.39
  12  -2   9    0.09    0.42
 -12   2  -9    0.51    0.46
  12   2   9    1.65    0.79
  12  -2   9    1.68    0.78
 -12   2 -10   20.24    1.42
  12  -2  10   22.36    1.36
  12   2  10   22.36    1.93
  12  -2  10   20.25    1.76
  12  -2  11   12.39    1.06
 -12   2 -11   11.37    1.13
 -12   2 -11   11.91    0.99
  12   2  11   15.52    1.66
  12  -2  11   10.78    1.40
 -12   2 -12  140.45    4.04
  12  -2  12  142.77    3.65
  12   2  12  145.69    5.10
 -12   2 -12  142.12    3.52
  12  -2  12  139.76    4.82
 -12   2 -13  169.74    4.56
  12  -2  13  172.08    4.08
  12   2  13  168.46    5.62
 -12   2 -13  172.01    3.92
  12  -2  13  161.69    5.30
  12  -2  14    7.34    0.82
  12   2  14    7.13    1.35
 -12   2 -14    7.75    0.80
  12  -2  14    8.12    1.37
  12  -2  15    2.83    0.54
 -12   2 -15    2.88    0.54
  12   2  15    3.58    1.14
  12  -2  15    4.11    1.07
  12   2  16   21.76    2.12
  12  -2  16   18.98    1.88
  12   2  17   20.08    2.12
  12  -2  17   19.34    1.98
  12  -2  18   70.58    3.63
  12   2  18   75.12    3.99
  12   2  19   17.61    2.09
  12  -2  19   19.74    2.03
  12   2  20   -0.10    0.86
  12  -2  20    1.67    0.99
  12   2  21    6.38    1.44
  12  -2  21    5.43    1.24
  12  -2  22    3.91    1.20
  12  -2  23    0.59    0.88
  12  -2  24    8.08    1.50
  12  -2  25    1.13    0.86
 -12   3  32   -0.16    1.03
 -12   3  31    1.27    0.86
 -12   3  30    0.93    0.78
 -12  -3  29    2.47    1.14
 -12   3  29    2.16    0.93
 -12  -3  28   10.51    1.62
 -12   3  28    9.65    1.48
 -12  -3  27   25.29    2.42
 -12   3  27   25.40    2.21
 -12  -3  26    6.32    1.35
 -12   3  26    4.26    1.20
 -12  -3  25    5.67    1.18
 -12   3  25    6.19    1.25
 -12  -3  24    3.98    1.18
 -12   3  24    2.78    0.96
 -12  -3  23   22.68    2.12
 -12   3  23   21.03    1.92
 -12  -3  22    9.68    1.44
 -12   3  22   12.69    1.58
 -12  -3  21   38.16    2.53
 -12   3  21   38.40    2.51
 -12  -3  20   57.62    3.02
 -12   3  20   51.78    2.88
 -12  -3  19    0.80    0.67
 -12   3  19    2.40    0.84
 -12  -3  18   10.41    1.33
 -12   3  18   10.31    1.36
  12   3 -17   95.67    3.50
 -12  -3  17   90.60    3.58
 -12   3  17   89.53    3.70
  12   3 -16   -0.19    0.58
 -12  -3  16    0.48    0.63
 -12   3  16   -0.38    0.75
  12   3 -16    0.21    0.15
  12   3 -15   38.34    2.38
  12   3 -15   38.34    2.17
 -12  -3  15   38.04    2.19
 -12   3  15   37.81    2.39
  12   3 -15   36.25    1.13
  12   3 -14  161.09    4.93
  12   3 -14  160.91    4.69
 -12  -3  14  161.78    4.61
 -12   3  14  159.04    4.93
  12   3 -14  160.65    3.12
  12   3 -13   31.73    2.12
 -12  -3  13   33.76    1.95
  12   3 -13   30.46    1.98
 -12   3  13   27.35    2.03
  12   3 -13   31.25    1.30
  12   3 -12   49.44    2.55
 -12  -3  12   58.04    2.49
  12   3 -12   51.49    2.51
 -12  -3  12   44.02    0.98
 -12   3  12   51.72    2.69
 -12  -3  12   46.47    0.97
  12   3 -12   54.23    1.80
  12   3 -11  276.35    6.49
 -12  -3  11  278.02    5.95
  12   3 -11  275.47    6.40
 -12   3  11  264.62    6.59
 -12  -3  11  270.64    4.12
  12   3 -11  280.46    5.18
  12   3 -10  133.33    4.18
  12   3 -10  132.92    4.19
 -12  -3  10  137.11    3.79
 -12  -3  10  128.48    2.61
 -12   3  10  128.91    4.32
  12   3 -10  133.92    3.35
  12   3  -9    1.60    0.53
  12   3  -9    3.10    0.82
 -12  -3   9    2.23    0.43
 -12   3   9    0.43    0.66
  12   3  -8   50.96    2.39
 -12  -3   8   51.09    2.46
 -12   3   8   48.95    2.36
 -12   3   8   47.24    2.57
 -12  -3   8   48.57    1.67
  12   3  -8   50.66    2.08
 -12  -3   7   26.76    1.73
  12   3  -7   26.18    1.70
  12   3  -7   26.24    1.54
 -12   3   7   26.02    1.69
  12   3  -7   25.17    1.40
 -12   3   7   24.76    1.90
 -12  -3   7   26.11    1.27
  12   3  -6   38.08    2.02
  12   3  -6   37.33    1.87
 -12   3   6   38.46    2.04
 -12  -3   6   36.55    1.98
  12   3  -6   36.32    1.63
 -12  -3   6   35.57    1.56
 -12   3   6   40.40    2.36
  12   3  -5  151.20    4.13
  12   3  -5  150.08    4.04
 -12   3   5  147.13    4.13
  12   3  -5  154.42    3.54
 -12  -3   5  148.79    3.59
 -12   3   5  149.26    4.64
  12   3  -4  197.44    4.76
  12   3  -4  204.23    4.91
  12   3  -4  198.50    4.06
 -12   3   4  199.57    4.82
 -12  -3   4  191.01    4.34
 -12   3   4  195.89    5.41
  12   3  -3  106.93    3.28
  12   3  -3  106.86    3.47
  12   3  -3  107.49    2.68
 -12   3   3   95.92    3.16
 -12  -3   3  102.14    3.08
 -12   3   3  101.52    3.77
  12   3  -2   10.74    1.06
  12   3  -2    9.45    1.14
 -12   3   2   10.47    1.03
  12   3  -2    8.74    0.74
 -12  -3   2    8.51    0.97
 -12   3   2   12.69    1.43
  12   3  -1    1.63    0.58
  12   3  -1    0.37    0.59
  12   3  -1    0.75    0.33
 -12  -3   1    1.92    0.66
 -12   3   1    3.13    0.96
  12   3   0   49.82    2.04
  12   3   0   48.35    2.43
  12   3   0   48.84    1.53
 -12  -3   0   47.58    2.24
 -12   3   0   54.93    2.76
  12   3   1  192.45    4.29
  12   3   1  188.46    5.17
  12   3   1  191.55    3.41
 -12  -3  -1  191.49    4.88
 -12   3  -1  192.51    5.49
  12   3   2  394.74    6.86
  12   3   2  387.47    8.21
  12   3   2  407.31    5.81
 -12  -3  -2  386.48    7.81
  12  -3   2  388.27    8.46
 -12   3  -2  402.06    8.54
  12   3   3  339.49    4.95
  12   3   3  342.60    6.02
  12   3   3  337.41    7.55
  12  -3   3  317.69    7.55
 -12   3  -3  326.94    7.62
  12   3   4   46.83    1.23
 -12   3  -4   49.56    2.46
  12   3   4   49.76    1.83
  12   3   4   48.33    2.64
  12  -3   4   50.50    2.74
  12   3   5    4.29    0.36
 -12   3  -5    5.40    1.00
  12   3   5    4.84    0.62
  12   3   5    4.25    0.97
  12  -3   5    5.17    1.03
  12   3   6   10.01    0.49
  12   3   6   12.53    1.46
  12  -3   6   10.02    1.32
  12   3   7    4.09    0.33
  12   3   7    7.13    1.20
  12  -3   7    5.77    1.09
  12   3   8   27.73    2.21
  12  -3   8   31.75    2.24
  12   3   9  317.53    7.93
  12  -3   9  309.93    7.65
  12   3  10  129.98    4.86
  12  -3  10  135.15    4.78
  12   3  11    4.31    1.10
  12  -3  11    3.22    1.05
 -12   3 -12   14.41    1.32
  12   3  12   12.89    1.67
  12  -3  12    9.28    1.33
  12   3  13   40.89    2.80
 -12   3 -13   35.96    2.02
  12  -3  13   38.86    2.59
 -12   3 -14    0.68    0.60
  12   3  14   -0.17    0.78
  12  -3  14   -0.44    0.77
  12   3  15   33.78    2.66
 -12   3 -15   35.72    1.97
  12  -3  15   31.52    2.39
  12   3  16   20.43    2.15
  12  -3  16   19.58    2.23
  12   3  17   43.29    3.14
  12  -3  17   38.41    2.69
  12   3  18   23.73    2.39
  12  -3  18   22.47    2.13
  12  -3  19    5.48    1.14
  12  -3  20   -0.08    0.79
  12  -3  21    3.29    1.00
  12  -3  22    0.68    0.95
  12  -3  23   14.87    1.89
 -12   4  27    0.53    0.91
 -12  -4  27   -0.76    1.02
 -12   4  26    3.43    1.07
 -12  -4  26    2.77    1.05
 -12   4  25    9.30    1.53
 -12  -4  25   10.30    1.61
 -12   4  24   25.71    2.38
 -12  -4  24   24.75    2.29
 -12   4  23   14.79    1.82
 -12  -4  23   15.41    1.92
 -12   4  22   26.38    2.33
 -12  -4  22   28.02    2.39
  12   4 -21    7.77    1.58
 -12   4  21    4.99    1.28
 -12  -4  21    8.45    1.47
  12   4 -20   36.41    2.71
 -12   4  20   38.77    2.72
 -12  -4  20   36.28    2.56
  12   4 -19   -0.92    0.90
 -12   4  19   -1.12    1.07
 -12  -4  19   -0.80    0.72
  12   4 -18   13.91    1.72
 -12   4  18   15.73    1.74
  12   4 -18   16.02    1.47
 -12  -4  18   15.70    1.70
  12   4 -17   10.76    1.51
 -12   4  17   12.61    1.62
  12   4 -17   11.32    1.30
 -12  -4  17   11.17    1.44
  12   4 -16   19.37    1.88
  12   4 -16   16.98    1.55
 -12   4  16   18.09    1.85
  12   4 -15   43.75    2.70
  12   4 -15   41.15    2.37
 -12   4  15   41.38    2.69
  12   4 -15   40.89    1.36
  12   4 -14   12.39    1.56
  12   4 -14   13.98    1.46
 -12   4  14   15.22    1.71
  12   4 -14   13.61    0.89
  12   4 -13   10.18    1.37
  12   4 -13   11.99    1.35
 -12   4  13   10.36    1.48
  12   4 -13   12.27    0.90
  12   4 -12   14.02    1.50
  12   4 -12   14.11    1.49
 -12   4  12   18.69    1.85
  12   4 -12   15.08    1.05
  12   4 -11   -0.08    0.39
  12   4 -11   -0.01    0.71
  12   4 -11    0.73    0.71
 -12   4  11    0.31    0.83
 -12  -4  11    0.49    0.24
  12   4 -10   44.34    2.55
  12   4 -10   43.70    1.93
 -12  -4  10   41.15    1.34
 -12   4  10   37.80    2.54
  12   4 -10   45.18    2.33
  12   4  -9   87.77    3.54
  12   4  -9   89.31    2.94
 -12   4   9   87.80    3.80
 -12  -4   9   83.10    2.21
  12   4  -9   88.25    3.22
  12   4  -8   17.20    1.60
  12   4  -8   13.88    1.23
 -12   4   8   19.18    1.81
 -12  -4   8   14.47    0.95
  12   4  -8   15.22    1.29
  12   4  -7   41.98    2.11
  12   4  -7   45.66    2.47
 -12   4   7   40.45    2.55
 -12  -4   7   43.28    1.73
  12   4  -7   44.69    2.15
  12   4  -6  118.38    3.98
  12   4  -6  114.21    3.63
  12   4  -6  116.37    3.52
 -12  -4   6  110.80    3.06
 -12   4   6  115.13    4.32
  12   4  -5    0.05    0.51
  12   4  -5    0.64    0.66
  12   4  -5    0.69    0.50
 -12   4   5    1.37    0.62
 -12  -4   5    0.97    0.52
 -12   4   5    0.53    0.81
  12   4  -4    1.21    0.65
  12   4  -4    0.03    0.58
 -12   4   4    1.07    0.53
  12   4  -4    0.61    0.45
 -12  -4   4    0.58    0.44
 -12   4   4    0.65    0.75
  12   4  -3   24.33    1.75
  12   4  -3   27.47    1.84
  12   4  -3   25.76    1.51
 -12   4   3   21.85    1.53
 -12  -4   3   26.13    1.62
 -12   4   3   22.86    2.01
  12   4  -2    9.86    1.30
  12   4  -2    7.66    1.17
  12   4  -2    6.29    0.88
 -12   4   2    5.46    0.83
 -12  -4   2    5.99    0.93
 -12   4   2    7.55    1.30
  12   4  -1  276.64    6.16
  12   4  -1  271.01    6.57
  12   4  -1  283.64    5.50
 -12   4   1  266.49    5.80
 -12  -4   1  273.27    6.07
 -12   4   1  284.42    7.19
  12   4   0   39.06    1.74
  12   4   0   42.45    2.17
  12   4   0   40.64    2.40
 -12   4   0   43.12    2.65
  12   4   1   19.24    1.20
  12   4   1   20.15    1.47
  12   4   1   16.97    1.63
 -12   4  -1   15.50    1.62
  12   4   2    8.59    0.80
  12   4   2    8.76    1.26
  12   4   2    9.23    1.04
 -12   4  -2    7.81    1.33
  12   4   3    3.04    0.89
  12   4   3    4.55    0.79
 -12   4  -3    3.75    1.08
  12   4   4    7.16    1.22
  12   4   4    8.26    0.97
 -12   4  -4    9.26    1.37
  12   4   5   35.20    1.75
  12   4   5   36.57    2.48
 -12   4  -5   34.43    2.44
  12   4   6    1.54    0.78
  12   4   6    0.80    0.47
 -12   4  -6    0.95    0.86
  12   4   7    6.90    0.81
  12   4   7    8.83    1.37
 -12   4  -7    5.21    1.11
  12   4   8    2.79    0.92
  12   4   8    1.98    0.54
 -12   4  -8    2.95    0.97
  12   4   9   18.35    1.94
 -12   4  -9   19.56    1.93
  12   4  10   -0.86    0.86
 -12   4 -10    1.58    0.89
  12   4  11    4.55    1.15
 -12   4 -11    8.71    1.45
  12   4  12   16.30    1.98
 -12   4 -12   17.72    1.74
  12   4  13   30.39    2.58
 -12   4 -13   30.27    2.14
 -12   4 -14   10.00    1.29
  12   4  14   13.74    1.85
  12  -4  14   13.13    1.67
 -12   4 -15   45.59    2.60
  12   4  15   50.62    3.39
  12  -4  15   43.55    2.92
  12  -4  16    1.67    0.97
  12  -4  17    0.47    0.84
  12  -4  18    2.67    0.92
  12  -4  19    7.20    1.37
  12  -4  20   18.93    2.04
  12   5 -21   -0.21    0.92
 -12   5  21   -0.28    0.99
  12   5 -20    9.05    1.55
 -12   5  20    6.03    1.35
  12   5 -19   51.42    3.28
 -12   5  19   42.45    3.04
  12   5 -19   46.48    2.54
  12   5 -18   23.41    2.31
 -12   5  18   24.82    2.36
  12   5 -18   21.14    1.76
  12   5 -17    0.89    0.87
 -12   5  17    0.56    0.87
  12   5 -17   -0.05    0.83
  12   5 -16   58.49    3.48
 -12   5  16   62.98    3.59
  12   5 -16   57.05    2.88
  12   5 -15    3.58    1.19
 -12   5  15    2.82    1.20
  12   5 -15    3.63    0.93
  12   5 -14   31.06    2.45
 -12   5  14   32.42    2.58
  12   5 -14   26.96    2.00
  12   5 -13    5.09    1.32
 -12   5  13    3.98    1.18
  12   5 -13    2.98    0.83
  12   5 -12    1.48    0.92
 -12   5  12    3.00    1.07
  12   5 -12    2.23    0.82
  12   5 -11   53.68    3.11
  12   5 -11   53.22    2.29
 -12   5  11   51.16    3.21
  12   5 -10   69.99    3.52
  12   5 -10   66.48    2.67
 -12   5  10   77.87    3.84
  12   5  -9    1.73    0.64
  12   5  -9    0.96    0.80
 -12   5   9    1.50    1.00
  12   5  -8   66.30    3.34
  12   5  -8   67.83    2.84
 -12   5   8   68.18    3.58
  12   5  -7   12.13    1.32
  12   5  -7   16.34    1.77
 -12   5   7   16.02    1.93
  12   5  -6    3.94    0.90
  12   5  -6    2.90    0.95
 -12   5   6    4.19    1.21
  12   5  -5    6.50    1.06
  12   5  -5    4.12    0.99
 -12   5   5    6.26    1.27
  12   5  -4    9.85    1.27
  12   5  -4   10.39    1.35
 -12   5   4   12.08    1.66
  12   5  -3    8.54    1.24
  12   5  -3    8.54    1.22
 -12   5   3    8.74    1.52
  12   5  -2   26.98    2.00
  12   5  -2   24.60    1.96
 -12   5   2   27.52    2.33
  12   5  -1    4.60    1.10
  12   5  -1    3.99    0.94
 -12   5   1    2.91    1.08
  12   5   0   57.64    2.79
  12   5   0   52.66    2.91
 -12   5   0   54.33    3.19
  12   5   1    1.31    0.83
  12   5   1    1.03    0.67
 -12   5  -1    1.45    0.99
  12   5   2    3.79    0.95
  12   5   2    1.34    0.62
 -12   5  -2    1.69    0.86
  12   5   3    7.94    1.39
  12   5   3    6.07    1.01
 -12   5  -3    8.15    1.44
  12   5   4   66.37    2.85
  12   5   4   66.16    3.48
 -12   5  -4   64.87    3.52
  12   5   5    6.50    1.32
  12   5   5    6.04    1.02
 -12   5  -5    4.92    1.25
  12   5   6   11.86    1.70
  12   5   6   10.25    1.18
 -12   5  -6    8.39    1.43
  12   5   7    1.63    1.00
 -12   5  -7    1.24    0.80
  12   5   8    9.97    1.57
 -12   5  -8    9.53    1.56
  12   5   9    2.92    1.05
 -12   5  -9    4.37    1.24
  12   5  10   14.04    1.83
 -12   5 -10   15.47    1.85
  12   5  11   30.11    2.69
 -12   5 -11   24.51    2.27
 -12   5 -12   52.57    3.12
 -12   5 -12   52.24    3.29
 -12   5 -13    3.73    1.15
 -12   5 -13    3.27    1.19
 -12   5 -14   24.81    2.23
 -12   5 -14   22.95    2.25
 -12   5 -15    1.20    0.88
 -12   5 -15   -0.01    0.85
 -12   5 -16    3.66    1.14
  12   6 -14   11.56    1.75
  12   6 -13   58.53    3.56
  12   6 -13   52.66    2.95
  12   6 -12    4.58    1.34
  12   6 -12    2.65    0.93
  12   6 -11   23.23    2.27
 -12   6  11   22.32    2.32
  12   6 -10    1.09    0.99
 -12   6  10    1.25    1.05
  12   6  -9   14.66    1.82
 -12   6   9   17.64    2.12
  12   6  -8   20.90    2.09
 -12   6   8   22.70    2.30
  12   6  -7    7.72    1.23
  12   6  -7    9.55    1.47
 -12   6   7   10.08    1.69
  12   6  -6    3.96    0.93
  12   6  -6    2.60    1.02
 -12   6   6    5.21    1.30
  12   6  -5   53.03    3.17
  12   6  -5   50.56    2.84
 -12   6   5   56.62    3.49
  12   6  -4    1.18    0.78
  12   6  -4    3.16    1.24
 -12   6   4    3.08    1.27
  12   6  -3   12.25    1.65
  12   6  -3   10.58    1.54
 -12   6   3   13.75    2.08
  12   6  -2    4.07    1.03
  12   6  -2    4.08    1.13
 -12   6   2    5.49    1.30
  12   6  -1   17.04    1.83
  12   6  -1   15.68    1.73
 -12   6   1   19.82    2.16
  12   6   0   37.59    2.54
  12   6   0   34.47    2.57
 -12   6   0   37.92    2.91
  12   6   1   37.63    2.50
  12   6   1   34.60    2.61
 -12   6  -1   42.12    3.03
  12   6   2    1.24    0.83
  12   6   2    1.60    0.83
 -12   6  -2    2.94    1.05
  12   6   3   66.24    3.24
  12   6   3   60.49    3.55
 -12   6  -3   64.71    3.74
  12   6   4    4.66    1.28
 -12   6  -4    6.66    1.52
  12   6   5    4.23    1.15
 -12   6  -5    3.63    1.26
  12   6   6    1.65    1.02
 -12   6  -6    2.41    1.19
 -12   6  -7    6.62    1.39
 -12   6  -8   15.28    1.97
 -12   6  -9   54.95    3.52
  12   7  -2   53.67    3.46
  12   7  -1    3.89    1.26
 -13   0  32    1.36    1.15
 -13   0  31    8.77    1.57
 -13   0  30    0.07    0.81
 -13   0  29   -0.24    0.96
 -13   0  29    1.04    0.55
 -13   0  28   -0.30    0.80
 -13   0  28    0.26    0.52
 -13   0  27  191.41    6.29
 -13   0  27  198.48    4.84
 -13   0  26    1.33    1.06
 -13   0  26    1.80    0.62
 -13   0  25  141.34    3.82
  13   0 -25  134.30    3.78
 -13   0  24    1.82    0.63
 -13   0  24    2.79    0.62
 -13   0  23   55.28    2.23
 -13   0  23   51.29    1.92
 -13   0  22    0.50    0.54
 -13   0  22    0.31    0.40
 -13   0  21   20.58    1.36
 -13   0  21   18.48    1.14
 -13   0  20   -0.40    0.45
 -13   0  20    0.52    0.33
 -13   0  19  115.75    3.24
 -13   0  19  114.93    3.05
 -13   0  18    1.86    0.61
 -13   0  18    2.35    0.56
 -13   0  17   93.65    2.84
 -13   0  17   93.36    2.74
 -13   0  16    0.84    0.52
 -13   0  16   -0.42    0.33
 -13   0  15   98.57    2.93
 -13   0  15   98.44    2.88
 -13   0  14    0.26    0.42
 -13   0  14    0.78    0.50
 -13   0  13  221.59    4.75
 -13   0  13  216.06    4.70
  13   0 -12    1.81    0.60
 -13   0  12    1.67    0.60
 -13   0  12    1.63    0.55
  13   0 -11  191.52    4.42
 -13   0  11  189.44    4.34
 -13   0  11  197.21    4.46
  13   0 -10    1.21    0.61
 -13   0  10    1.35    0.56
  13   0 -10    1.19    0.55
 -13   0  10    0.69    0.55
  13   0  -9  104.56    3.50
  13   0  -9  102.59    3.11
 -13   0   9  103.71    3.15
 -13   0   9  102.94    3.05
  13   0  -8    0.22    0.54
 -13   0   8    0.32    0.43
  13   0  -8   -0.10    0.50
  13   0  -7    7.99    1.04
 -13   0   7    7.46    0.91
  13   0  -7    7.79    0.95
  13   0  -6    0.55    0.66
 -13   0   6    0.23    0.45
  13   0  -6    0.42    0.55
  13   0  -5   36.28    2.01
  13   0  -5   34.70    1.84
 -13   0   5   34.86    1.88
  13   0  -4    0.20    0.56
 -13   0   4    0.35    0.51
  13   0  -4    0.63    0.66
  13   0  -3  104.18    3.45
 -13   0   3  104.46    3.41
  13   0  -3  101.31    3.37
  13   0  -2    0.20    0.52
 -13   0   2    0.26    0.50
  13   0  -2    0.71    0.66
  13   0  -1   59.19    2.58
 -13   0   1   59.45    2.59
  13   0  -1   58.27    2.56
  13   0   0    0.60    0.62
 -13   0   0    0.55    0.54
  13   0   0    0.82    0.63
 -13   0  -1   24.70    0.68
 -13   0  -1   23.87    1.71
  13   0   1   25.40    1.77
  13   0   2   -0.35    0.65
  13   0   3   14.19    1.43
  13   0   4    0.31    0.60
 -13   0  -5   30.09    1.05
  13   0   5   30.34    2.06
 -13   0  -6    0.20    0.20
  13   0   6   -0.13    0.61
 -13   0  -7   28.12    0.73
  13   0   7   33.56    2.18
  13   0   8    0.15    0.69
  13   0   9    8.63    1.27
  13   0  10    0.24    0.67
  13   0  11    2.05    0.84
  13   0  12    1.09    0.89
  13   0  13   22.78    2.10
  13   0  14   -0.53    0.77
  13   0  15   44.62    2.87
  13   0  16    0.70    0.85
  13   0  17    2.90    0.96
  13   0  18    0.07    1.07
  13   0  19    3.26    1.05
  13   0  20   -1.63    0.89
  13   0  21   25.65    2.40
  13   0  22   -1.80    0.94
 -13   1  32    3.37    0.92
 -13  -1  31    9.21    1.68
 -13   1  31    7.72    1.15
 -13  -1  30   93.92    4.52
 -13   1  30   87.55    3.60
 -13  -1  29   18.45    2.05
 -13   1  29   16.90    1.57
 -13  -1  28  130.89    5.18
 -13   1  28  121.25    4.18
 -13  -1  27    2.23    1.07
 -13   1  27    1.90    0.83
 -13  -1  26   96.57    4.24
 -13   1  26   97.45    3.58
 -13  -1  25   11.51    1.54
 -13  -1  25   10.60    0.82
 -13   1  25   12.70    1.36
 -13   1  25   13.60    1.23
 -13  -1  24   63.05    3.26
 -13   1  24   58.83    2.71
 -13  -1  24   61.08    1.92
 -13   1  24   63.50    2.56
 -13  -1  23   22.82    2.00
 -13  -1  23   18.45    1.04
 -13   1  23   13.73    1.32
 -13   1  23   18.16    1.39
 -13  -1  22  418.86    5.96
 -13  -1  22  429.77    9.25
 -13   1  22  433.38    8.41
 -13  -1  22  446.63    6.75
 -13   1  22  435.99    7.99
  13  -1 -22  431.56    8.37
 -13  -1  21    7.95    0.59
 -13  -1  21    7.75    1.30
 -13   1  21    5.58    0.95
 -13  -1  21    9.10    0.76
 -13   1  21    4.75    0.82
  13  -1 -21    5.73    0.90
 -13  -1  20   86.15    2.05
 -13  -1  20   84.77    3.48
 -13  -1  20   86.75    2.29
 -13   1  20   90.38    3.18
 -13   1  20   84.01    2.93
  13  -1 -20   89.10    3.20
 -13  -1  19   49.26    1.57
 -13  -1  19   53.19    2.68
 -13  -1  19   48.63    1.65
 -13   1  19   56.69    2.46
 -13   1  19   56.00    2.33
 -13  -1  18   44.17    1.50
 -13  -1  18   40.90    2.31
 -13   1  18   41.27    2.09
 -13  -1  18   39.11    1.47
 -13   1  18   40.57    1.98
 -13  -1  17    4.93    0.63
 -13  -1  17    6.07    1.02
 -13   1  17    1.77    0.73
 -13  -1  17    1.69    0.41
 -13   1  17    2.40    0.71
 -13  -1  16  276.73    4.88
 -13  -1  16  264.46    6.08
 -13  -1  16  272.40    4.82
 -13   1  16  273.64    5.96
 -13   1  16  280.81    5.85
 -13  -1  15   33.98    1.44
 -13  -1  15   35.48    1.93
 -13  -1  15   30.86    1.33
 -13   1  15   26.06    1.68
 -13   1  15   28.77    1.68
 -13  -1  14  406.26    6.73
  13   1 -14  413.60    8.25
 -13  -1  14  399.66    7.63
 -13  -1  14  409.03    6.60
 -13   1  14  409.29    7.74
  13   1 -14  419.06    6.78
 -13   1  14  423.27    7.69
  13   1 -13    7.65    1.21
 -13  -1  13    9.94    1.13
 -13  -1  13    8.15    0.86
 -13  -1  13    7.63    1.13
  13   1 -13    5.18    0.66
 -13   1  13    9.24    1.11
 -13  -1  13    5.15    0.61
 -13   1  13   10.54    1.14
 -13  -1  12  290.13    6.36
 -13  -1  12  285.35    5.35
  13   1 -12  281.16    6.41
 -13  -1  12  277.14    5.71
 -13   1  12  283.20    6.06
  13   1 -12  286.72    5.35
 -13  -1  12  279.42    5.10
 -13   1  12  297.17    6.07
  13   1 -11   48.27    2.40
 -13  -1  11   49.33    2.05
 -13   1  11   55.84    2.54
 -13  -1  11   49.77    2.35
 -13  -1  11   50.33    1.96
  13   1 -11   45.71    1.86
 -13   1  11   52.43    2.32
 -13  -1  11   46.99    1.76
 -13   1  11   54.31    2.32
 -13  -1  10  142.42    3.46
  13   1 -10  140.87    4.24
 -13   1  10  145.44    4.21
 -13  -1  10  140.97    4.00
 -13  -1  10  140.59    3.49
  13   1 -10  138.09    3.47
 -13   1  10  132.05    3.83
 -13   1  10  137.22    3.87
  13   1  -9    2.37    0.82
 -13  -1   9    2.84    0.58
 -13   1   9    1.42    0.68
 -13  -1   9    3.58    0.66
 -13  -1   9    2.33    0.74
 -13   1   9    2.44    0.67
  13  -1  -9    1.57    0.69
  13   1  -9    3.13    0.64
 -13   1   9    2.60    0.71
 -13  -1   8   77.66    2.26
  13   1  -8   75.87    3.03
 -13  -1   8   82.85    2.82
 -13  -1   8   76.35    2.59
  13  -1  -8   77.16    2.85
 -13   1   8   80.91    2.91
 -13   1   8   79.60    2.88
  13   1  -8   78.05    2.61
  13   1  -7    0.91    0.73
 -13  -1   7    0.93    0.38
 -13  -1   7    0.99    0.54
 -13  -1   7    1.12    0.50
  13  -1  -7   -0.25    0.62
 -13   1   7    1.71    0.65
  13   1  -7    1.25    0.55
 -13   1   7    0.22    0.52
 -13  -1   6  128.54    2.78
  13   1  -6  128.50    4.04
 -13  -1   6  130.16    3.52
 -13  -1   6  133.65    3.65
  13   1  -6  135.33    3.66
  13  -1  -6  134.59    3.96
 -13   1   6  140.36    4.00
 -13   1   6  131.30    3.87
  13   1  -5    2.19    0.77
  13  -1  -5    3.08    0.79
 -13  -1   5    2.02    0.38
 -13  -1   5    2.98    0.71
 -13  -1   5    1.94    0.55
  13   1  -5    2.09    0.64
 -13   1   5    2.78    0.74
  13  -1  -5    3.25    0.75
  13  -1  -4   73.66    2.79
 -13  -1   4   69.48    1.64
 -13  -1   4   71.94    2.38
 -13  -1   4   74.05    2.72
  13  -1  -4   69.65    2.84
  13   1  -4   71.18    2.67
 -13   1   4   77.57    2.92
  13  -1  -3    2.36    0.69
 -13  -1   3    1.51    0.26
 -13  -1   3    1.33    0.65
 -13  -1   3    2.46    0.55
 -13   1   3    1.57    0.62
  13   1  -3    1.88    0.65
  13  -1  -3    1.91    0.70
  13  -1  -2   56.44    2.41
 -13  -1   2   55.05    1.95
 -13  -1   2   59.86    2.56
 -13   1   2   58.38    2.59
  13  -1  -2   54.34    2.54
  13   1  -2   59.71    2.52
  13  -1  -1    4.58    0.83
 -13  -1   1    3.49    0.76
 -13   1   1    4.91    0.91
 -13  -1   1    4.14    0.59
  13   1  -1    3.52    0.77
  13  -1  -1    4.71    0.92
  13  -1   0   58.92    2.46
 -13  -1   0   59.34    2.60
 -13  -1   0   57.09    1.85
  13  -1   0   57.62    2.66
  13   1   0   55.39    2.51
  13  -1   1    8.05    1.00
 -13  -1  -1    6.38    0.61
 -13  -1  -1    7.18    1.02
  13   1   1    7.18    1.00
  13  -1   1    7.97    1.15
 -13   1  -2   41.08    1.54
  13  -1   2   38.78    1.99
 -13  -1  -2   38.94    1.36
  13   1   2   40.81    2.25
  13  -1   2   40.45    2.27
 -13   1  -3    4.45    0.55
  13  -1   3    5.07    0.84
  13   1   3    5.11    0.98
 -13  -1  -3    3.74    0.43
  13  -1   3    5.43    1.05
 -13   1  -4   32.94    1.37
  13  -1   4   33.09    1.84
 -13  -1  -4   34.78    1.08
  13   1   4   33.13    2.10
  13  -1   4   34.31    2.12
  13  -1   5    4.95    0.83
 -13   1  -5    4.43    0.57
  13   1   5    3.93    0.91
  13  -1   5    4.65    0.92
  13  -1   6   18.90    1.41
 -13   1  -6   19.71    1.06
  13   1   6   19.38    1.70
  13  -1   6   19.42    1.69
 -13   1  -7    8.49    0.73
  13   1   7    7.26    1.14
  13  -1   7    8.08    1.23
 -13   1  -8   16.52    1.01
  13   1   8   16.27    1.64
  13  -1   8   15.96    1.60
 -13   1  -9    6.72    0.76
  13   1   9    4.97    1.10
  13  -1   9    9.87    1.38
 -13   1 -10   10.42    0.86
  13   1  10    7.84    1.30
 -13   1 -10    9.42    0.65
  13  -1  10   10.39    1.42
 -13   1 -11    5.87    0.49
  13   1  11    4.40    1.02
  13  -1  11    5.64    1.16
 -13   1 -12   28.36    0.93
  13   1  12   28.77    2.29
  13  -1  12   32.79    2.35
  13   1  13    6.73    1.26
  13  -1  13    7.27    1.30
  13   1  14   27.36    2.24
  13  -1  14   28.33    2.29
  13   1  15   13.72    1.69
  13  -1  15   14.46    1.69
  13   1  16   12.40    1.70
  13  -1  16   14.36    1.78
  13   1  17    4.45    1.20
  13  -1  17    3.54    1.06
  13   1  18   21.21    2.16
  13  -1  18   19.27    2.02
  13   1  19    0.51    0.81
  13  -1  19    1.28    0.85
  13   1  20   17.85    2.07
  13  -1  20   21.40    2.22
  13   1  21    4.68    1.33
  13  -1  21    2.92    0.95
  13  -1  22    5.63    1.30
  13  -1  23    3.60    1.30
 -13   2  34    6.25    1.25
 -13   2  33   20.44    2.08
 -13   2  32   -0.57    0.79
 -13   2  31   23.40    2.10
 -13  -2  30   28.08    2.54
 -13   2  30   26.56    2.21
 -13  -2  29   10.00    1.61
 -13   2  29    9.26    1.40
 -13  -2  28    6.92    1.43
 -13   2  28    6.46    1.19
 -13  -2  27   23.44    2.23
 -13   2  27   26.07    2.12
 -13  -2  26    1.71    1.04
 -13   2  26    2.49    0.89
 -13  -2  25  121.96    4.76
 -13   2  25  124.64    4.44
 -13  -2  24   11.74    1.56
 -13   2  24   11.58    1.39
 -13  -2  23  149.91    5.09
 -13   2  23  138.85    4.65
 -13  -2  22   19.43    1.87
 -13   2  22   21.90    1.79
 -13  -2  21    3.81    1.07
 -13   2  21    0.86    0.70
 -13  -2  20  146.13    4.77
 -13   2  20  158.37    4.78
 -13  -2  19   27.64    2.03
 -13   2  19   22.15    1.77
 -13  -2  18    3.54    0.95
 -13   2  18    1.39    0.72
 -13  -2  17  162.17    4.68
 -13   2  17  163.82    4.81
  13   2 -16   52.65    2.61
 -13  -2  16   56.09    2.56
 -13  -2  16   51.34    1.09
 -13   2  16   56.52    2.68
 -13  -2  16   48.39    1.04
  13   2 -15  102.63    3.67
 -13  -2  15  103.65    3.46
 -13  -2  15   99.75    1.92
 -13   2  15  102.25    3.65
  13   2 -15  102.65    2.40
  13   2 -14  146.90    4.47
 -13  -2  14  148.91    4.15
 -13  -2  14  146.11    2.68
 -13   2  14  154.44    4.56
  13   2 -14  149.79    3.18
 -13  -2  13   10.25    0.99
  13   2 -13   13.36    1.41
 -13  -2  13   11.58    0.69
 -13   2  13   10.39    1.25
  13   2 -13   11.64    0.85
 -13  -2  12    1.84    0.51
  13   2 -12    1.46    0.73
 -13   2  12    3.00    0.84
  13   2 -12    1.15    0.38
 -13  -2  12    1.89    0.40
 -13  -2  11  220.87    5.46
  13   2 -11  212.11    5.55
 -13  -2  11  217.25    4.80
 -13   2  11  210.15    5.45
  13   2 -11  215.85    4.43
 -13  -2  10  103.34    3.49
  13   2 -10   99.54    3.56
 -13  -2  10  102.62    2.99
 -13   2  10   99.25    3.56
  13   2 -10  104.90    2.91
 -13   2   9   75.69    3.01
 -13  -2   9   79.20    2.49
  13   2  -9   75.83    3.08
 -13  -2   9   80.79    2.96
  13   2  -9   78.44    2.54
 -13   2   9   72.87    3.02
 -13  -2   8   47.05    1.80
 -13   2   8   50.84    2.37
  13   2  -8   43.28    2.32
 -13  -2   8   48.47    2.23
  13   2  -8   43.84    1.94
 -13   2   8   48.31    2.45
 -13  -2   7   35.49    1.86
 -13  -2   7   35.24    1.48
 -13   2   7   36.27    2.01
 -13  -2   7   35.14    1.56
 -13   2   7   33.87    2.05
  13   2  -7   36.65    1.80
 -13  -2   6    3.13    0.70
  13   2  -6    4.02    0.74
 -13   2   6    3.83    0.77
 -13  -2   6    3.33    0.51
 -13  -2   6    3.63    0.66
 -13   2   6    3.34    0.86
 -13  -2   5   37.22    1.83
 -13   2   5   40.21    2.03
 -13  -2   5   37.55    1.74
  13   2  -5   37.87    1.93
 -13   2   5   38.74    2.20
  13  -2  -5   37.73    2.14
  13   2  -4    0.56    0.52
 -13  -2   4    1.62    0.54
 -13  -2   4    1.21    0.53
  13  -2  -4    1.74    0.74
 -13   2   4    0.25    0.66
 -13  -2   3   83.56    2.67
 -13  -2   3   84.27    2.81
  13  -2  -3   86.31    3.32
  13   2  -3   82.74    3.02
 -13   2   3   82.03    3.23
 -13  -2   2    3.88    0.62
  13   2  -2    2.48    0.67
 -13  -2   2    3.76    0.76
  13  -2  -2    3.49    0.86
 -13  -2   1   53.96    2.02
 -13  -2   1   59.56    2.46
  13  -2  -1   66.94    2.94
  13   2  -1   63.05    2.73
  13   2   0    8.49    1.14
 -13  -2   0    7.82    0.79
 -13  -2   0    8.31    1.00
  13  -2   0    7.99    1.19
 -13  -2  -1   47.78    2.27
  13  -2   1   44.83    2.47
  13   2   1   46.85    2.42
  13   2   2    3.47    0.87
  13  -2   2    3.78    0.80
 -13  -2  -2    2.24    0.72
  13  -2   2    4.55    0.98
  13  -2   3   57.72    2.33
 -13   2  -3   60.26    2.33
  13   2   3   58.89    2.82
  13  -2   3   57.98    2.86
  13  -2   4    0.03    0.49
 -13   2  -4    1.06    0.58
  13   2   4    1.30    0.82
  13  -2   4    0.97    0.78
  13  -2   5   35.23    1.79
 -13   2  -5   36.62    1.83
  13  -2   5   35.57    2.29
  13   2   5   34.38    2.26
  13  -2   6    5.37    0.79
 -13   2  -6    4.42    0.72
  13   2   6    4.92    1.09
  13  -2   6    1.92    0.80
 -13   2  -7   10.93    1.03
  13  -2   7   12.36    1.10
  13   2   7   10.85    1.40
  13  -2   7   10.60    1.37
 -13   2  -8    0.45    0.54
  13  -2   8   -0.22    0.43
  13   2   8   -0.18    0.70
  13  -2   8    0.65    0.75
  13  -2   9   14.20    1.18
 -13   2  -9   13.54    1.20
  13   2   9   17.28    1.78
  13  -2   9   12.96    1.50
  13  -2  10    5.99    0.85
 -13   2 -10    3.80    0.79
  13   2  10    3.69    1.01
  13  -2  10    4.48    1.00
 -13   2 -11   18.35    1.41
  13  -2  11   20.00    1.37
 -13   2 -11   18.51    1.21
  13   2  11   19.39    1.90
  13  -2  11   18.92    1.84
  13  -2  12    7.79    0.91
 -13   2 -12    7.36    0.81
 -13   2 -12    8.79    1.00
  13   2  12    7.19    1.34
  13  -2  12    9.08    1.38
  13  -2  13    4.33    0.72
 -13   2 -13    3.17    0.58
  13   2  13    4.24    1.11
  13  -2  13    5.07    1.18
  13  -2  14    0.48    0.50
  13   2  14    0.92    0.96
  13  -2  14    1.11    0.78
  13   2  15   15.69    1.85
  13  -2  15   16.96    1.82
  13   2  16    5.23    1.25
  13  -2  16    6.96    1.40
  13   2  17   11.45    1.69
  13  -2  17   12.16    2.12
  13   2  18   22.62    2.27
  13  -2  18   21.50    2.09
  13   2  19    3.10    1.04
  13  -2  19    3.22    1.15
  13  -2  20    3.09    1.19
  13  -2  21    4.03    1.31
  13  -2  22    2.03    1.08
  13  -2  23    0.24    0.96
 -13   3  32   36.07    2.82
 -13   3  31    7.49    1.55
 -13   3  30   10.81    1.63
 -13  -3  29    1.73    1.09
 -13   3  29    1.12    0.90
 -13  -3  28   13.52    1.82
 -13   3  28   13.59    1.73
 -13  -3  27   33.75    2.72
 -13   3  27   34.31    2.60
 -13  -3  26  131.71    5.28
 -13   3  26  141.70    5.24
 -13  -3  25   21.64    2.17
 -13   3  25   28.63    2.35
 -13  -3  24   56.72    3.27
 -13   3  24   47.39    2.94
 -13  -3  23    3.32    1.12
 -13   3  23    1.49    0.81
 -13  -3  22    6.01    1.22
 -13   3  22    4.39    1.07
 -13  -3  21   23.05    2.02
 -13   3  21   22.03    1.99
 -13  -3  20   55.93    3.00
 -13   3  20   56.92    3.05
 -13  -3  19   24.71    1.99
 -13   3  19   27.75    2.12
  13   3 -18   13.17    1.39
 -13  -3  18   13.96    1.48
 -13   3  18   13.75    1.54
  13   3 -17   13.13    1.41
 -13  -3  17   12.32    1.37
 -13   3  17   13.88    1.54
  13   3 -16   50.27    2.60
 -13  -3  16   46.47    2.49
 -13   3  16   51.40    2.81
  13   3 -16   49.61    1.33
  13   3 -15    4.53    0.90
 -13  -3  15    5.55    1.02
 -13   3  15    3.84    1.01
  13   3 -15    5.34    0.52
  13   3 -14   42.35    2.41
 -13  -3  14   45.41    2.34
 -13   3  14   41.66    2.55
  13   3 -14   39.57    1.47
 -13  -3  13   76.19    2.98
  13   3 -13   73.77    3.19
 -13   3  13   74.95    3.38
  13   3 -13   77.22    2.25
 -13  -3  12    5.74    0.97
  13   3 -12    3.46    0.92
 -13  -3  12    3.47    0.37
 -13   3  12    3.18    0.95
  13   3 -12    4.09    0.59
  13   3 -11    6.26    0.73
  13   3 -11    5.74    0.99
  13   3 -11    6.09    1.08
 -13  -3  11    7.12    0.97
 -13  -3  11    5.21    0.51
 -13   3  11    5.63    1.13
  13   3 -10  146.35    4.44
  13   3 -10  140.94    4.47
 -13   3  10  143.36    4.66
 -13  -3  10  136.50    2.91
  13   3 -10  138.22    3.57
  13   3  -9   95.46    3.47
 -13   3   9   99.21    3.82
 -13  -3   9   88.87    2.37
  13   3  -9   96.39    2.98
  13   3  -8    8.89    1.16
  13   3  -8    9.10    0.97
 -13  -3   8    8.29    0.78
 -13   3   8    5.88    1.12
  13   3  -7    3.68    0.85
  13   3  -7    3.66    0.72
 -13  -3   7    3.58    0.81
 -13  -3   7    2.52    0.51
 -13   3   7    3.02    0.90
  13   3  -6   21.62    1.55
 -13  -3   6   23.40    1.61
 -13   3   6   21.55    1.54
 -13  -3   6   22.52    1.31
  13   3  -6   22.96    1.55
 -13   3   6   21.86    1.80
  13   3  -5    1.89    0.65
  13   3  -5    1.87    0.67
 -13   3   5    3.45    0.79
 -13  -3   5    2.27    0.59
 -13   3   5    2.32    0.83
  13   3  -4   33.27    1.86
  13   3  -4   34.29    1.96
 -13   3   4   33.04    1.88
 -13  -3   4   33.43    1.72
 -13   3   4   34.83    2.24
  13   3  -3   14.74    1.23
  13   3  -3   14.88    1.35
 -13   3   3   16.45    1.30
 -13  -3   3   14.69    1.19
 -13   3   3   16.40    1.60
  13   3  -2   25.99    1.59
  13   3  -2   24.34    1.74
 -13  -3   2   24.11    1.56
 -13   3   2   24.32    1.93
  13   3  -1   17.66    1.30
  13   3  -1   18.64    1.55
 -13  -3   1   19.28    1.41
 -13   3   1   18.05    1.72
  13   3   0   35.62    1.75
  13   3   0   34.02    2.13
 -13  -3   0   36.77    2.02
 -13   3   0   37.08    2.35
  13   3   1   22.03    1.35
  13   3   1   20.53    1.71
 -13   3  -1   24.95    1.99
  13  -3   1   23.38    1.94
  13   3   2   42.52    2.43
  13  -3   2   39.70    2.49
 -13   3  -2   42.50    2.55
  13   3   3   13.62    1.54
  13  -3   3   15.25    1.58
 -13   3  -3   14.57    1.55
  13   3   4   17.82    1.66
  13  -3   4   18.61    1.76
  13   3   5    2.97    0.93
  13  -3   5    4.43    1.01
  13   3   6   12.28    1.53
  13  -3   6   11.69    1.48
  13   3   7    2.95    0.92
  13  -3   7    4.27    1.01
  13   3   8    3.89    0.99
  13  -3   8    5.02    1.13
  13   3   9    7.53    1.30
  13  -3   9    8.30    1.36
  13   3  10   -0.35    0.83
  13  -3  10   -0.56    0.79
  13   3  11    2.46    0.98
  13  -3  11    1.47    0.80
 -13   3 -12    4.85    0.86
  13   3  12    3.32    0.97
  13  -3  12    2.52    0.99
 -13   3 -13    6.99    1.03
  13   3  13    9.95    1.57
  13  -3  13    8.07    1.40
  13   3  14   -1.09    0.90
  13  -3  14    1.06    0.91
  13   3  15   18.33    2.09
  13  -3  15   16.01    1.86
  13   3  16    1.51    1.15
  13  -3  16   -0.29    0.87
  13   3  17   -0.84    1.04
  13  -3  17   -0.32    0.89
  13  -3  18    0.11    0.77
  13  -3  19    1.46    0.96
  13  -3  20   -0.99    0.94
  13  -3  21    2.21    0.95
 -13   4  27   10.13    1.73
 -13   4  26   -1.16    1.03
 -13  -4  26    0.53    0.85
 -13   4  25    3.94    1.25
 -13  -4  25    3.25    1.13
 -13   4  24    0.07    0.88
 -13  -4  24    0.41    0.85
 -13   4  23   19.03    2.02
 -13  -4  23   20.74    2.18
 -13   4  22    0.45    0.84
 -13  -4  22    0.94    1.28
 -13   4  21   71.20    3.75
 -13  -4  21   75.56    3.78
 -13   4  20   -0.78    0.92
 -13  -4  20    1.08    0.91
  13   4 -19   -0.69    0.96
 -13   4  19   -0.82    0.97
  13   4 -19   -0.36    0.63
 -13  -4  19    0.91    0.86
  13   4 -18    5.08    1.23
 -13   4  18    3.80    1.13
  13   4 -18    4.21    0.95
 -13  -4  18    3.84    1.03
  13   4 -17   15.55    1.77
 -13   4  17   16.55    1.81
  13   4 -17   15.37    1.53
  13   4 -16    2.81    1.09
 -13   4  16    1.59    0.89
  13   4 -16    1.33    0.68
  13   4 -15   34.96    2.48
  13   4 -15   31.32    2.15
 -13   4  15   32.27    2.43
  13   4 -14    1.65    0.87
  13   4 -14    1.97    0.81
 -13   4  14    1.30    0.85
  13   4 -14    1.94    0.46
  13   4 -13   14.72    1.63
  13   4 -13   16.33    1.60
 -13   4  13   16.87    1.83
  13   4 -13   16.62    1.12
  13   4 -12    6.19    0.75
  13   4 -12    7.11    1.19
 -13   4  12   10.17    1.50
  13   4 -12    5.81    1.03
  13   4 -11    8.49    0.89
  13   4 -11    7.11    1.19
 -13   4  11    8.71    1.40
  13   4 -11    7.95    1.18
  13   4 -10    0.83    0.49
  13   4 -10    1.19    0.86
 -13   4  10    1.66    0.92
  13   4 -10    1.62    0.64
  13   4  -9   57.43    2.84
  13   4  -9   54.50    2.35
  13   4  -9   56.58    2.51
 -13   4   9   54.38    3.10
 -13  -4   9   50.33    1.73
  13   4  -8    8.95    1.03
  13   4  -8    8.91    1.21
  13   4  -8    9.50    1.06
 -13  -4   8    8.72    0.81
 -13   4   8    8.74    1.40
  13   4  -7   19.42    1.66
  13   4  -7   22.28    1.57
  13   4  -7   20.40    1.45
 -13  -4   7   21.70    1.27
 -13   4   7   17.55    1.78
  13   4  -6    7.28    1.01
  13   4  -6    8.19    1.10
  13   4  -6    6.69    0.87
 -13  -4   6    6.90    0.83
 -13   4   6    8.70    1.33
  13   4  -5    4.50    0.91
  13   4  -5    4.31    0.92
  13   4  -5    5.40    0.78
 -13  -4   5    4.58    0.68
 -13   4   5    4.79    1.11
  13   4  -4    5.03    0.94
  13   4  -4    5.08    0.88
 -13   4   4    3.54    0.78
  13   4  -4    4.35    0.71
 -13  -4   4    4.50    0.81
 -13   4   4    5.49    1.15
  13   4  -3   12.75    1.28
  13   4  -3   13.17    1.37
  13   4  -3   13.33    1.07
 -13   4   3   14.84    1.33
 -13  -4   3   14.29    1.24
 -13   4   3   13.67    1.62
  13   4  -2   10.80    1.19
  13   4  -2   11.28    1.34
  13   4  -2   10.09    0.93
 -13   4   2    9.70    1.07
 -13  -4   2   10.93    1.15
 -13   4   2   10.01    1.48
  13   4  -1   27.81    1.45
  13   4  -1   28.23    1.79
  13   4  -1   26.74    1.96
 -13   4   1   27.44    2.24
  13   4   0   52.02    2.37
  13   4   0   48.77    2.71
 -13   4   0   50.58    2.94
  13   4   1   18.82    1.45
  13   4   1   19.38    1.77
 -13   4  -1   18.46    1.88
  13   4   2   41.34    2.04
  13   4   2   42.40    2.55
 -13   4  -2   40.17    2.66
  13   4   3   16.94    1.32
  13   4   3   19.58    1.86
 -13   4  -3   14.69    1.70
  13   4   4   20.60    1.37
  13   4   4   21.60    2.00
 -13   4  -4   21.66    2.05
  13   4   5    7.92    0.91
  13   4   5    9.77    1.42
 -13   4  -5    6.65    1.22
  13   4   6    8.81    0.93
  13   4   6   10.82    1.53
 -13   4  -6    9.16    1.46
  13   4   7    4.34    1.13
 -13   4  -7    2.66    1.05
  13   4   8    8.06    1.45
 -13   4  -8    9.12    1.42
  13   4   9    2.10    0.93
 -13   4  -9    4.45    1.10
  13   4  10    7.26    1.48
 -13   4 -10    9.50    1.44
  13   4  11    4.14    1.25
 -13   4 -11    3.88    1.13
 -13   4 -12   12.46    1.50
  13   4  12   10.35    1.63
 -13   4 -13    0.79    0.80
  13   4  13    1.43    1.00
  13  -4  13    1.67    0.92
  13   4  14    2.00    1.02
  13  -4  14    4.44    1.21
  13  -4  15   -0.62    0.86
  13  -4  16    0.05    0.91
  13  -4  17    1.00    0.98
  13  -4  18    0.73    0.80
  13  -4  19   -0.47    1.08
  13   5 -20   23.90    2.39
 -13   5  20   24.38    2.43
  13   5 -19    8.87    1.59
 -13   5  19    6.12    1.43
  13   5 -19    6.03    1.14
  13   5 -18   65.71    3.76
 -13   5  18   67.54    3.83
  13   5 -18   68.05    3.21
  13   5 -17   17.05    2.04
 -13   5  17   20.37    2.17
  13   5 -17   16.31    1.64
  13   5 -16    7.96    1.49
 -13   5  16   12.39    1.76
  13   5 -16   10.64    1.38
  13   5 -15   33.30    2.58
 -13   5  15   34.99    2.71
  13   5 -15   30.61    2.22
  13   5 -14    2.74    1.11
 -13   5  14    2.42    1.10
  13   5 -14    3.89    1.01
  13   5 -13   32.24    2.52
 -13   5  13   30.31    2.52
  13   5 -13   27.90    2.11
  13   5 -12   23.82    2.17
 -13   5  12   27.03    2.43
  13   5 -12   24.40    2.01
  13   5 -11   17.33    1.36
  13   5 -11   17.22    1.88
 -13   5  11   22.32    2.19
  13   5 -10   60.07    3.26
  13   5 -10   57.02    2.53
 -13   5  10   57.45    3.43
  13   5  -9   49.60    2.92
  13   5  -9   48.91    2.41
 -13   5   9   53.91    3.27
  13   5  -8    6.78    1.23
  13   5  -8    7.99    1.00
 -13   5   8    6.73    1.38
  13   5  -7   16.66    1.73
  13   5  -7   17.56    1.53
 -13   5   7   17.24    1.97
  13   5  -6    2.44    0.97
  13   5  -6    1.21    0.66
 -13   5   6    0.75    0.98
  13   5  -5   11.80    1.32
  13   5  -5   10.39    1.40
 -13   5   5   10.55    1.55
  13   5  -4    5.68    1.06
  13   5  -4    4.01    1.01
 -13   5   4    4.43    1.22
  13   5  -3   25.00    1.96
  13   5  -3   24.61    1.95
 -13   5   3   27.82    2.33
  13   5  -2    7.31    1.29
  13   5  -2    7.59    1.17
 -13   5   2    6.86    1.36
  13   5  -1   39.15    2.38
  13   5  -1   36.65    2.46
 -13   5   1   42.39    2.83
  13   5   0    4.11    1.05
  13   5   0    4.09    0.90
 -13   5   0    3.38    1.18
  13   5   1   26.06    1.88
  13   5   1   27.52    2.22
 -13   5  -1   26.46    2.30
  13   5   2    1.75    0.99
  13   5   2   -0.10    0.66
 -13   5  -2    1.73    1.00
  13   5   3   18.64    1.56
  13   5   3   20.18    2.01
 -13   5  -3   21.72    2.14
  13   5   4    2.32    0.96
  13   5   4    2.95    0.85
 -13   5  -4    2.26    1.04
  13   5   5   10.79    1.59
 -13   5  -5   15.17    1.79
  13   5   6    3.88    1.20
 -13   5  -6    2.36    1.07
  13   5   7    3.61    1.11
 -13   5  -7    3.41    1.09
  13   5   8    0.87    0.80
 -13   5  -8    1.10    0.85
  13   5   9    8.31    1.46
 -13   5  -9    6.13    1.29
 -13   5 -10    1.95    1.02
 -13   5 -11   10.15    1.64
 -13   5 -12   -0.30    0.86
 -13   5 -12    0.15    0.95
 -13   5 -13    2.07    1.04
 -13   5 -13    1.44    1.03
  13   6 -13   14.79    2.02
  13   6 -13   12.73    1.60
  13   6 -12   21.09    2.28
  13   6 -12   22.41    2.03
  13   6 -11    1.05    0.99
  13   6 -10    8.29    1.52
  13   6  -9   -0.05    0.89
  13   6  -8    3.22    1.17
 -13   6   8    0.33    0.94
  13   6  -7    4.62    1.19
 -13   6   7    4.74    1.30
  13   6  -6    1.29    0.75
  13   6  -6   -0.07    0.84
  13   6  -5    1.53    0.84
  13   6  -5    1.70    0.96
 -13   6   5    1.70    1.04
  13   6  -4    9.96    1.43
  13   6  -4    8.06    1.39
 -13   6   4    9.74    1.65
  13   6  -3   -1.06    0.84
  13   6  -3    1.68    0.90
 -13   6   3   -0.52    0.88
  13   6  -2    5.85    1.23
  13   6  -2    8.14    1.36
 -13   6   2    8.17    1.59
  13   6  -1    0.60    0.99
  13   6  -1    1.66    0.95
 -13   6   1    1.05    0.88
  13   6   0    4.42    1.22
  13   6   0    5.57    1.16
 -13   6   0    5.08    1.39
  13   6   1    1.55    0.93
  13   6   1    0.51    0.79
 -13   6  -1    1.04    1.03
  13   6   2    3.32    1.00
  13   6   2    5.22    1.17
 -13   6  -2    6.23    1.40
  13   6   3   -0.28    0.81
 -13   6  -3   -0.91    0.97
  13   6   4    3.39    1.13
 -13   6  -4    4.73    1.26
 -14   0  31    0.29    0.89
 -14   0  30   47.91    3.25
 -14   0  29   -0.72    0.85
 -14   0  28   81.83    4.07
 -14   0  28   87.24    3.05
 -14   0  27   -0.41    0.78
 -14   0  27   -0.22    0.51
 -14   0  26    0.64    0.84
 -14   0  26    1.75    0.65
 -14   0  25   -0.21    0.53
 -14   0  24   11.62    1.10
 -14   0  23    1.06    0.53
 -14   0  23    1.94    0.59
 -14   0  22   92.00    2.94
 -14   0  22   86.80    2.66
 -14   0  21   -0.25    0.47
 -14   0  21    0.38    0.39
 -14   0  20   32.58    1.69
 -14   0  20   32.74    1.58
 -14   0  19    0.45    0.50
 -14   0  19    0.03    0.32
 -14   0  18   29.63    1.60
 -14   0  18   25.48    1.43
 -14   0  17    0.06    0.44
 -14   0  17   -0.47    0.46
 -14   0  16    1.56    0.57
 -14   0  16    1.46    0.50
 -14   0  15    0.72    0.47
 -14   0  15    0.05    0.44
 -14   0  14    5.37    0.75
 -14   0  14    5.72    0.80
 -14   0  13    0.63    0.41
 -14   0  13   -0.07    0.48
  14   0 -12  138.00    3.70
 -14   0  12  131.05    3.64
 -14   0  12  136.96    3.63
 -14   0  11    0.20    0.43
  14   0 -11    0.09    0.46
 -14   0  11    0.58    0.48
  14   0 -10  197.56    5.25
  14   0 -10  206.13    4.79
 -14   0  10  209.70    4.86
 -14   0  10  201.48    4.67
  14   0  -9   -0.31    0.58
 -14   0   9   -0.10    0.42
  14   0  -9    0.23    0.49
 -14   0   9    0.38    0.51
  14   0  -8   51.42    2.48
 -14   0   8   53.35    2.33
  14   0  -8   53.52    2.29
  14   0  -7   -0.39    0.59
 -14   0   7    0.14    0.43
  14   0  -7   -0.08    0.52
  14   0  -6   34.16    2.01
 -14   0   6   36.26    1.95
  14   0  -6   32.60    1.86
  14   0  -5   -0.01    0.56
 -14   0   5    0.45    0.44
  14   0  -5    0.45    0.61
  14   0  -4   81.64    3.16
  14   0  -4   89.63    3.18
 -14   0   4   96.34    3.27
  14   0  -3    1.32    0.73
 -14   0   3    1.18    0.64
  14   0  -3    0.75    0.60
  14   0  -2  604.25   10.63
 -14   0   2  627.37   10.74
  14   0  -2  604.51   10.62
  14   0  -1    1.10    0.64
  14   0  -1    0.20    0.62
  14   0   0  283.80    6.48
 -14   0   0  305.26    4.17
  14   0   0  288.04    6.64
  14   0   1   -0.33    0.63
  14   0   2   16.72    1.56
  14   0   3   -0.02    0.73
 -14   0  -4  401.89    6.10
  14   0   4  393.41    8.44
 -14   0  -5    0.23    0.26
  14   0   5    0.48    0.72
 -14   0  -6  307.12    4.50
  14   0   6  303.83    7.33
 -14   0  -7    0.36    0.16
  14   0   7   -0.03    0.66
  14   0   8    9.17    1.35
  14   0   9    1.00    0.81
  14   0  10   39.67    2.59
  14   0  11    1.83    0.99
  14   0  12   54.44    3.12
  14   0  13    0.65    0.77
  14   0  14  305.85    8.09
  14   0  15    1.95    0.99
  14   0  16    1.49    0.87
  14   0  17   -0.24    0.92
  14   0  18   52.33    3.30
  14   0  19    0.72    0.85
  14   0  20   60.96    3.70
 -14  -1  31    3.02    1.17
 -14   1  31    3.28    0.95
 -14  -1  30    8.60    1.58
 -14   1  30    7.14    1.15
 -14  -1  29    4.86    1.28
 -14   1  29    6.41    1.09
 -14  -1  28   34.55    2.68
 -14   1  28   29.61    1.99
 -14  -1  27   24.55    2.28
 -14   1  27   26.79    1.89
 -14  -1  26   43.17    2.84
 -14   1  26   44.77    2.40
 -14  -1  25    8.40    1.34
 -14   1  25    7.64    0.99
 -14  -1  24   27.14    2.15
 -14   1  24   28.14    1.90
 -14  -1  24   27.09    1.23
 -14   1  24   26.46    1.67
 -14  -1  23    6.78    1.14
 -14  -1  23    7.12    0.69
 -14   1  23    5.49    0.94
 -14   1  23    6.98    0.91
 -14  -1  22    3.94    0.46
 -14  -1  22    3.86    1.04
 -14   1  22    1.10    0.66
 -14  -1  22    4.66    0.62
 -14   1  22    4.00    0.79
 -14  -1  21   47.14    1.51
 -14  -1  21   47.40    2.65
 -14  -1  21   50.89    1.73
 -14   1  21   48.64    2.35
 -14   1  21   47.60    2.21
 -14  -1  20   62.51    1.84
 -14  -1  20   60.97    2.95
 -14  -1  20   62.41    1.93
 -14   1  20   65.30    2.72
 -14   1  20   60.31    2.50
 -14  -1  19   38.89    1.50
 -14  -1  19   39.10    2.32
 -14   1  19   39.72    2.11
 -14  -1  19   39.66    1.50
 -14   1  19   40.04    1.98
 -14  -1  18    3.45    0.57
 -14  -1  18    3.16    0.77
 -14   1  18    2.09    0.63
 -14  -1  18    2.27    0.40
 -14   1  18    3.49    0.71
 -14  -1  17   48.65    1.75
 -14  -1  17   51.68    2.44
 -14  -1  17   48.09    1.71
 -14   1  17   45.85    2.25
 -14   1  17   48.27    2.22
 -14  -1  16   13.10    0.91
 -14  -1  16   14.58    1.27
 -14   1  16   16.01    1.35
 -14  -1  16   14.49    0.92
 -14   1  16   15.65    1.29
 -14  -1  15   35.85    1.55
 -14  -1  15   37.64    2.00
 -14   1  15   36.13    1.97
 -14  -1  15   35.41    1.47
 -14   1  15   37.91    1.94
  14   1 -14    8.96    1.14
 -14  -1  14   11.02    1.12
 -14  -1  14    9.81    0.85
  14   1 -14   10.44    0.88
 -14   1  14    9.08    1.09
 -14  -1  14    8.53    0.76
 -14   1  14    8.29    0.98
 -14  -1  13  151.98    3.70
  14   1 -13  161.41    4.73
 -14  -1  13  157.39    4.08
 -14   1  13  158.41    4.33
  14   1 -13  161.26    3.75
 -14  -1  13  159.20    3.59
 -14   1  13  156.02    4.24
  14   1 -12    7.12    1.07
 -14  -1  12    9.76    0.98
 -14  -1  12    8.54    0.87
 -14   1  12    7.81    0.97
 -14   1  12    8.60    1.10
  14   1 -12    8.24    0.83
 -14  -1  12    8.75    0.76
  14   1 -11  136.50    4.28
 -14  -1  11  138.95    3.55
 -14  -1  11  136.55    4.07
 -14  -1  11  142.96    3.63
 -14   1  11  141.25    4.00
 -14   1  11  131.85    3.92
  14   1 -11  142.57    3.61
 -14  -1  11  143.38    3.43
 -14  -1  10   22.90    1.32
  14   1 -10   25.12    1.79
 -14  -1  10   25.15    1.66
 -14  -1  10   24.65    1.45
 -14   1  10   25.51    1.63
  14   1 -10   26.73    1.51
 -14   1  10   25.60    1.67
 -14  -1   9   22.27    1.22
  14   1  -9   24.03    1.78
 -14  -1   9   22.87    1.54
 -14  -1   9   21.51    1.41
  14  -1  -9   23.92    1.64
 -14   1   9   24.72    1.62
 -14   1   9   23.69    1.61
  14   1  -9   22.93    1.43
  14   1  -8    2.45    0.75
 -14  -1   8    2.29    0.45
 -14  -1   8    2.88    0.67
 -14  -1   8    2.60    0.57
 -14   1   8    2.17    0.62
  14  -1  -8    2.78    0.72
  14   1  -8    3.13    0.70
 -14   1   8    3.05    0.79
 -14  -1   7    2.49    0.45
  14   1  -7    3.60    0.84
 -14  -1   7    2.12    0.62
 -14  -1   7    2.11    0.59
  14  -1  -7    1.38    0.66
 -14   1   7    1.91    0.63
  14   1  -7    2.81    0.64
 -14   1   7    2.94    0.73
  14  -1  -6   36.15    2.02
 -14  -1   6   38.69    1.35
  14   1  -6   37.38    2.17
 -14  -1   6   40.19    1.86
 -14  -1   6   36.69    1.91
  14   1  -6   40.39    2.00
  14  -1  -6   36.26    2.05
 -14   1   6   34.84    2.02
 -14   1   6   37.88    2.05
  14  -1  -5  217.95    5.36
 -14  -1   5  226.18    3.79
  14   1  -5  224.43    5.64
 -14  -1   5  216.59    4.83
 -14  -1   5  227.94    5.29
  14   1  -5  226.28    5.28
  14  -1  -5  224.59    5.52
 -14   1   5  232.58    5.57
 -14  -1   4    0.38    0.24
  14  -1  -4    0.98    0.68
  14   1  -4    0.79    0.59
 -14  -1   4    0.43    0.49
 -14  -1   4    0.59    0.44
 -14   1   4   -0.17    0.52
  14   1  -4    0.37    0.54
  14  -1  -4    0.00    0.56
  14  -1  -3   19.33    1.46
 -14  -1   3   19.72    0.62
 -14  -1   3   18.27    1.18
 -14  -1   3   19.72    1.51
  14  -1  -3   17.63    1.50
  14   1  -3   17.26    1.41
  14  -1  -2   42.32    2.15
 -14  -1   2   40.23    1.69
 -14  -1   2   43.38    2.26
  14  -1  -2   42.91    2.30
  14   1  -2   39.47    2.15
  14  -1  -1    4.75    0.86
 -14  -1   1    4.50    0.93
 -14  -1   1    4.69    0.61
  14   1  -1    4.07    0.87
  14  -1  -1    4.48    0.88
  14  -1   0   30.47    1.84
 -14  -1   0   33.39    1.42
  14  -1   0   29.44    1.96
  14   1   0   31.96    1.98
  14  -1   1  108.81    3.53
 -14  -1  -1  111.20    2.66
  14  -1   1  105.73    3.83
  14   1   1  115.71    3.88
  14  -1   2    2.60    0.68
 -14   1  -2    4.05    0.51
  14   1   2    2.91    0.82
 -14  -1  -2    2.57    0.40
  14  -1   2    3.74    0.90
 -14   1  -3   53.33    1.74
  14  -1   3   49.53    2.32
 -14  -1  -3   52.60    1.53
  14   1   3   50.16    2.60
  14  -1   3   50.98    2.66
 -14   1  -4    0.97    0.33
  14  -1   4    0.16    0.52
  14   1   4    1.95    0.83
 -14  -1  -4    1.51    0.35
  14  -1   4    0.31    0.68
  14  -1   5   44.39    2.21
 -14   1  -5   43.91    1.58
  14   1   5   40.26    2.44
  14  -1   5   42.58    2.49
  14  -1   6    2.49    0.72
 -14   1  -6    2.34    0.43
  14   1   6    2.94    0.94
  14  -1   6    1.57    0.79
 -14   1  -7   10.71    0.79
  14  -1   7   10.90    1.18
  14   1   7   11.38    1.40
  14  -1   7   12.77    1.47
  14  -1   8    6.99    0.93
 -14   1  -8    7.77    0.73
  14   1   8    8.24    1.28
  14  -1   8    7.27    1.20
 -14   1  -9   10.15    0.81
  14   1   9   10.48    1.43
  14  -1   9   12.53    1.54
  14   1  10    8.29    1.37
 -14   1 -10    6.41    0.54
  14  -1  10    7.19    1.22
  14   1  11   87.79    3.95
  14  -1  11   87.11    3.89
  14   1  12   44.12    2.83
  14  -1  12   41.90    2.74
  14   1  13   12.23    1.69
  14  -1  13   17.03    1.88
  14   1  14    2.52    0.96
  14  -1  14    1.16    0.86
  14   1  15   22.31    2.16
  14  -1  15   19.36    1.97
  14   1  16    0.76    0.97
  14  -1  16    1.10    0.96
  14   1  17   67.63    3.78
  14  -1  17   63.89    3.61
  14   1  18    7.09    1.38
  14  -1  18    6.90    1.32
  14   1  19   16.74    2.09
  14  -1  19   13.98    1.93
  14  -1  20    0.27    0.86
  14  -1  21    3.47    1.19
 -14   2  33   -1.10    0.97
 -14   2  32   16.25    1.81
 -14   2  31   -0.89    0.87
 -14  -2  30   18.32    2.12
 -14   2  30   21.65    2.00
 -14  -2  29    3.26    1.17
 -14   2  29    2.40    0.97
 -14  -2  28   23.04    2.22
 -14   2  28   25.53    2.09
 -14  -2  27   -0.91    1.06
 -14   2  27   -0.60    0.84
 -14  -2  26   19.04    1.92
 -14   2  26   19.74    1.84
 -14  -2  25    3.71    1.05
 -14   2  25    3.01    0.91
 -14  -2  24   73.98    3.63
 -14   2  24   73.29    3.33
 -14  -2  23    0.82    0.83
 -14   2  23   -1.05    0.81
 -14  -2  22   97.70    4.00
 -14   2  22   96.21    3.79
 -14  -2  21   16.26    1.63
 -14   2  21   18.65    1.67
 -14  -2  20   11.06    1.38
 -14   2  20   12.92    1.42
 -14  -2  19   52.37    2.73
 -14   2  19   49.61    2.63
 -14  -2  18   47.53    2.53
 -14   2  18   48.54    2.57
 -14  -2  17  111.11    3.81
 -14   2  17  102.08    3.78
 -14  -2  17  112.59    1.97
  14   2 -16   65.79    3.00
 -14  -2  16   64.38    2.76
 -14  -2  16   63.64    1.51
 -14   2  16   63.66    2.91
  14   2 -16   64.94    1.89
  14   2 -15   15.58    1.50
 -14  -2  15   14.08    1.27
 -14  -2  15   16.72    0.79
 -14   2  15   19.70    1.64
  14   2 -15   16.76    0.99
  14   2 -14   81.10    3.33
 -14  -2  14   79.16    2.90
 -14  -2  14   81.62    2.01
 -14   2  14   77.76    3.21
  14   2 -14   82.69    2.37
  14   2 -13  290.69    6.87
 -14  -2  13  288.93    6.07
 -14   2  13  283.39    6.66
  14   2 -13  291.32    5.38
 -14  -2  13  294.54    4.87
  14   2 -12   12.30    1.41
 -14  -2  12   14.31    1.18
 -14   2  12   13.49    1.42
 -14  -2  12   14.49    0.90
  14   2 -12   12.76    0.99
  14   2 -11  137.63    4.43
 -14  -2  11  140.33    3.67
 -14   2  11  130.84    4.26
  14   2 -11  140.05    3.52
 -14  -2  10  132.71    3.44
  14   2 -10  127.81    4.24
  14   2 -10  130.66    3.48
 -14   2  10  126.70    4.15
 -14  -2   9  108.18    2.96
  14   2  -9  104.54    3.80
 -14  -2   9  109.21    3.60
  14   2  -9  104.41    3.17
 -14   2   9  108.70    3.79
 -14  -2   8   25.70    1.30
  14   2  -8   24.57    1.83
 -14  -2   8   25.80    1.66
  14   2  -8   26.17    1.55
 -14   2   8   21.66    1.70
  14   2  -7   38.03    2.28
 -14  -2   7   39.13    1.52
 -14  -2   7   36.90    1.95
 -14   2   7   35.22    2.17
  14   2  -7   36.82    1.88
 -14  -2   6    7.75    0.93
  14   2  -6    7.36    0.96
 -14   2   6    6.61    1.10
  14   2  -5   11.22    1.15
 -14  -2   5   11.59    1.10
 -14  -2   5   10.82    0.97
  14  -2  -5   12.63    1.33
 -14   2   5   11.85    1.32
  14   2  -4    1.61    0.71
 -14  -2   4    0.06    0.42
 -14  -2   4    0.53    0.46
  14  -2  -4    0.16    0.58
 -14   2   4    0.01    0.67
 -14  -2   3   24.94    1.45
 -14  -2   3   25.75    1.58
  14  -2  -3   25.49    1.90
  14   2  -3   26.52    1.76
 -14   2   3   23.77    1.82
 -14  -2   2   83.27    2.64
 -14  -2   2   88.65    3.07
  14  -2  -2   85.06    3.42
  14   2  -2   86.31    3.26
  14   2  -1    3.78    0.87
 -14  -2   1    4.16    0.67
 -14  -2   1    4.83    0.82
  14  -2  -1    4.76    1.02
 -14  -2   0   93.66    2.66
 -14  -2   0   99.63    3.40
  14  -2   0   94.56    3.68
  14   2   0  100.30    3.63
  14  -2   1  234.47    6.18
  14   2   1  236.44    6.04
  14  -2   2   48.85    2.25
  14  -2   2   48.37    2.70
  14   2   2   51.32    2.68
  14  -2   3   14.37    1.27
 -14   2  -3   13.94    1.15
  14  -2   3   17.36    1.70
  14   2   3   17.14    1.68
  14  -2   4    5.35    0.83
 -14   2  -4    5.14    0.77
  14   2   4    7.15    1.20
  14  -2   4    6.63    1.20
  14  -2   5    2.94    0.70
 -14   2  -5    1.98    0.56
  14   2   5    4.18    1.01
  14  -2   5    2.34    0.84
  14  -2   6   97.43    3.15
 -14   2  -6   94.88    3.05
  14   2   6   94.82    3.92
  14  -2   6   94.35    3.91
 -14   2  -7    8.34    0.93
  14  -2   7    8.59    1.00
  14   2   7    8.67    1.32
  14  -2   7    8.16    1.33
  14  -2   8   26.49    1.62
 -14   2  -8   24.30    1.51
  14   2   8   26.93    2.19
  14  -2   8   22.20    1.95
 -14   2  -9   16.82    1.31
  14  -2   9   17.88    1.38
  14   2   9   16.71    1.71
  14  -2   9   19.22    1.83
 -14   2 -10   29.22    1.73
  14  -2  10   29.31    1.70
  14   2  10   31.52    2.44
  14  -2  10   28.52    2.24
  14  -2  11    0.95    0.54
 -14   2 -11    1.03    0.53
  14   2  11    1.62    1.01
  14  -2  11   -0.80    0.87
  14  -2  12   27.65    1.67
  14   2  12   28.53    2.39
  14  -2  12   24.33    2.16
  14  -2  13    0.85    0.58
  14   2  13   -0.14    0.83
  14  -2  13    0.33    0.83
  14  -2  14   67.72    3.60
  14   2  14   74.31    3.91
  14  -2  15   32.36    2.51
  14   2  15   33.88    2.77
  14   2  16   17.82    2.09
  14  -2  16   15.30    1.83
  14   2  17    5.56    1.31
  14  -2  17    7.54    1.54
  14   2  18   23.48    2.41
  14  -2  18   21.87    2.21
  14  -2  19    2.46    1.10
  14  -2  20    5.97    1.37
 -14   3  32   10.31    1.72
 -14   3  31    8.88    1.59
 -14   3  30   -0.84    1.02
 -14  -3  29    2.08    1.13
 -14   3  29   -0.09    0.85
 -14  -3  28    1.35    0.97
 -14   3  28   -0.69    0.88
 -14  -3  27    1.62    0.89
 -14   3  27    1.77    0.97
 -14  -3  26   13.00    1.75
 -14   3  26   12.17    1.65
 -14  -3  25   55.19    3.30
 -14   3  25   54.80    3.22
 -14  -3  24   22.01    2.16
 -14   3  24   21.46    1.99
 -14  -3  23   26.97    2.29
 -14   3  23   26.52    2.27
 -14  -3  22    0.65    0.81
 -14   3  22   -0.63    0.79
 -14  -3  21   19.98    1.88
 -14   3  21   21.44    1.94
 -14  -3  20   16.84    1.70
 -14   3  20   19.01    1.89
 -14  -3  19   60.38    3.03
 -14   3  19   58.07    3.13
  14   3 -18   10.36    1.34
 -14  -3  18   10.16    1.34
 -14   3  18    8.59    1.32
  14   3 -17   17.37    1.61
 -14  -3  17   15.99    1.51
 -14   3  17   17.83    1.77
  14   3 -17   16.37    0.75
  14   3 -16   23.85    1.91
 -14  -3  16   25.64    1.84
 -14   3  16   26.57    2.11
  14   3 -16   25.01    1.05
  14   3 -15   18.43    1.70
 -14  -3  15   18.60    1.61
 -14   3  15   17.11    1.70
  14   3 -15   17.78    0.98
  14   3 -14   -0.25    0.61
 -14  -3  14    2.26    0.79
 -14   3  14    2.64    0.94
  14   3 -14    0.55    0.39
 -14  -3  13   41.57    2.17
  14   3 -13   36.94    2.33
 -14   3  13   38.08    2.43
 -14  -3  13   37.77    1.06
  14   3 -13   40.35    1.69
 -14  -3  13   37.71    1.05
 -14  -3  12   62.05    2.59
  14   3 -12   62.39    3.00
 -14   3  12   64.02    3.14
 -14  -3  12   64.50    1.67
  14   3 -12   65.62    2.27
  14   3 -11    2.44    0.85
 -14  -3  11    2.74    0.68
 -14  -3  11    2.18    0.43
  14   3 -11    1.71    0.50
 -14   3  11    2.70    0.98
  14   3 -10    0.22    0.42
  14   3 -10    1.81    0.87
 -14  -3  10    0.47    0.37
 -14   3  10    0.26    0.67
  14   3  -9  232.84    6.14
 -14  -3   9  226.74    4.47
 -14   3   9  232.16    6.31
  14   3  -9  239.95    5.27
 -14   3   8  130.07    4.52
 -14  -3   8  127.06    3.20
  14   3  -8  127.23    3.73
  14   3  -7    4.27    0.80
 -14  -3   7    3.84    0.69
 -14   3   7    5.20    1.15
  14   3  -6    7.78    1.03
 -14  -3   6    7.97    1.04
 -14  -3   6    6.83    0.81
 -14   3   6    8.01    1.21
 -14  -3   5   49.53    2.11
  14   3  -5   48.57    2.37
 -14   3   5   49.08    2.74
  14   3  -4    6.97    1.01
 -14  -3   4    7.81    0.93
 -14   3   4    6.30    1.15
 -14  -3   3   82.45    2.95
 -14   3   3   80.68    3.57
  14   3  -3   86.21    3.33
  14   3  -2   56.32    2.73
 -14  -3   2   57.43    2.50
 -14   3   2   64.18    3.13
  14   3  -1   17.74    1.59
 -14  -3   1   18.88    1.54
 -14   3   1   16.11    1.71
  14   3   0    0.19    0.61
 -14   3   0    1.25    0.87
  14   3   1  158.07    4.94
  14  -3   1  156.28    5.12
 -14   3  -1  161.26    5.21
  14   3   2    0.79    0.80
  14  -3   2    0.49    0.76
 -14   3  -2    1.18    0.80
  14   3   3   41.71    2.59
  14  -3   3   42.03    2.63
  14   3   4   23.16    1.98
  14  -3   4   27.60    2.16
  14   3   5   46.98    2.80
  14  -3   5   45.86    2.79
  14   3   6    7.58    1.32
  14  -3   6    5.45    1.18
  14   3   7    5.33    1.14
  14  -3   7    5.21    1.17
  14   3   8    2.58    0.91
  14  -3   8   -0.14    0.75
  14   3   9   28.43    2.33
  14  -3   9   32.86    2.45
  14   3  10   23.73    2.17
  14  -3  10   19.85    2.02
  14   3  11   82.54    4.11
  14  -3  11   78.07    3.86
 -14   3 -12   44.91    2.25
  14   3  12   38.77    2.85
  14  -3  12   37.47    2.75
  14   3  13    7.88    1.45
  14  -3  13    6.83    1.35
  14   3  14    2.74    1.17
  14  -3  14    4.22    1.12
  14   3  15   -0.29    0.83
  14  -3  15    0.46    0.87
  14  -3  16   13.03    1.74
  14  -3  17   16.62    1.97
  14  -3  18   -0.07    0.99
  14  -3  19    7.62    1.45
 -14   4  26    1.08    0.88
 -14  -4  26    2.13    1.09
 -14   4  25    8.82    1.62
 -14  -4  25   11.95    1.81
 -14   4  24    2.42    1.17
 -14  -4  24    1.67    1.01
 -14   4  23    2.37    1.10
 -14  -4  23    3.92    1.17
 -14   4  22   -1.59    1.10
 -14  -4  22    2.37    1.04
 -14   4  21    1.55    0.95
 -14  -4  21    2.62    1.22
 -14   4  20   32.07    2.55
 -14  -4  20   42.81    2.73
 -14   4  19    7.21    1.42
  14   4 -19    7.23    1.23
 -14  -4  19    6.18    1.29
 -14   4  18    2.01    0.91
  14   4 -18    2.41    0.85
 -14  -4  18    3.13    0.97
 -14   4  17   18.34    1.94
  14   4 -17   17.38    1.70
  14   4 -16    2.30    0.94
 -14   4  16    4.74    1.20
  14   4 -16    5.10    1.11
  14   4 -15    2.31    0.96
  14   4 -15    2.72    0.84
 -14   4  15    7.64    1.47
  14   4 -14   15.70    1.70
  14   4 -14   13.77    1.54
 -14   4  14   11.18    1.57
  14   4 -14   15.29    1.03
  14   4 -13    0.51    0.38
  14   4 -13    0.13    0.73
  14   4 -13    0.52    0.76
 -14   4  13    0.24    0.89
  14   4 -12   28.25    2.17
  14   4 -12   21.65    1.88
 -14   4  12   22.53    2.11
  14   4 -12   26.27    1.50
  14   4 -11   34.09    2.32
  14   4 -11   32.90    2.31
 -14   4  11   36.51    2.65
  14   4 -11   34.64    1.80
  14   4 -10    4.63    0.85
  14   4 -10    3.63    0.93
 -14   4  10    5.84    1.25
  14   4  -9   24.47    1.91
 -14   4   9   22.88    2.10
  14   4  -9   26.17    1.68
  14   4  -8    5.35    1.05
  14   4  -8    3.93    0.79
 -14   4   8    4.93    1.69
  14   4  -7    2.99    0.67
  14   4  -7    2.90    0.78
  14   4  -7    1.52    0.64
 -14   4   7    2.92    1.09
  14   4  -6   45.12    2.47
  14   4  -6   45.31    2.36
  14   4  -6   45.10    2.04
 -14  -4   6   42.61    1.97
 -14   4   6   43.81    2.79
  14   4  -5   11.86    1.35
  14   4  -5   10.56    1.24
 -14  -4   5   11.70    1.11
 -14   4   5   12.43    1.63
  14   4  -4    1.81    0.70
  14   4  -4    2.04    0.75
 -14  -4   4    0.67    0.48
 -14   4   4    1.07    0.95
  14   4  -3    6.56    0.97
  14   4  -3    6.81    1.08
 -14  -4   3    7.12    0.95
 -14   4   3    6.37    1.26
  14   4  -2   11.51    1.21
  14   4  -2   11.38    1.40
 -14   4   2   12.43    1.60
  14   4  -1    2.18    0.78
  14   4  -1    2.12    0.99
 -14   4   1    1.91    0.97
  14   4   0   72.38    2.84
  14   4   0   76.56    3.47
 -14   4   0   75.24    3.70
  14   4   1   40.49    2.08
  14   4   1   42.90    2.64
 -14   4  -1   47.63    3.02
  14   4   2  154.73    4.13
  14   4   2  152.22    5.15
 -14   4  -2  152.76    5.38
  14   4   3   40.52    1.98
  14   4   3   44.47    2.79
 -14   4  -3   42.97    2.85
  14   4   4    2.90    0.71
  14   4   4    1.70    0.97
 -14   4  -4    2.41    0.98
  14   4   5    3.38    0.68
  14   4   5    1.48    0.90
 -14   4  -5    0.02    0.80
  14   4   6   30.73    2.41
 -14   4  -6   33.13    2.55
  14   4   7    5.58    1.31
 -14   4  -7    5.45    1.35
  14   4   8  107.09    4.69
 -14   4  -8  106.98    4.58
  14   4   9   15.35    1.91
 -14   4  -9   15.44    1.90
  14   4  10   28.52    2.52
 -14   4 -10   26.63    2.38
  14   4  11   20.95    2.21
 -14   4 -11   22.23    2.43
 -14   4 -12   45.21    2.60
  14   4  12   49.05    3.36
  14  -4  12   42.52    2.98
  14  -4  13    4.00    1.13
  14  -4  14   26.90    2.48
  14  -4  15    1.35    1.11
  14  -4  16   31.86    2.74
  14   5 -20   -0.27    0.68
  14   5 -19   -0.98    1.03
 -14   5  19   -0.58    1.02
  14   5 -19   -0.66    0.83
  14   5 -18    3.54    1.13
 -14   5  18    0.75    1.04
  14   5 -18    3.33    1.02
  14   5 -17    2.31    0.94
 -14   5  17    3.75    1.25
  14   5 -17    4.06    1.05
  14   5 -16    2.31    1.10
 -14   5  16    3.43    1.25
  14   5 -16    2.08    0.88
  14   5 -15    0.66    0.85
 -14   5  15    0.70    0.94
  14   5 -15    1.56    0.86
  14   5 -14    7.95    1.49
 -14   5  14    7.53    1.38
  14   5 -14   10.54    1.43
  14   5 -13    6.44    1.25
 -14   5  13   10.02    1.60
  14   5 -13    8.41    1.33
  14   5 -12    4.41    1.19
 -14   5  12    4.32    1.20
  14   5 -12    5.17    1.21
  14   5 -11    1.28    1.31
 -14   5  11    1.14    0.91
  14   5 -10    1.45    0.70
  14   5 -10    0.23    0.90
 -14   5  10   -0.39    0.91
  14   5  -9   24.83    2.16
  14   5  -9   26.41    1.82
 -14   5   9   28.37    2.55
  14   5  -8   17.86    1.59
  14   5  -8   18.36    1.85
 -14   5   8   20.36    2.12
  14   5  -7    5.84    1.01
  14   5  -7    6.81    1.29
 -14   5   7    7.36    1.43
  14   5  -6    2.72    0.81
  14   5  -6    2.74    0.85
 -14   5   6    3.36    1.18
  14   5  -5   10.48    1.36
  14   5  -5    9.44    1.37
 -14   5   5   10.43    1.65
  14   5  -4    1.74    0.81
  14   5  -4    0.43    0.77
 -14   5   4    1.20    0.91
  14   5  -3    5.58    1.03
  14   5  -3    7.53    1.26
 -14   5   3    6.33    1.39
  14   5  -2   -0.18    0.64
  14   5  -2    1.67    0.79
 -14   5   2    2.71    1.16
  14   5  -1   25.62    1.94
  14   5  -1   26.54    2.14
 -14   5   1   23.56    2.26
  14   5   0   58.83    2.86
  14   5   0   57.64    3.20
 -14   5   0   64.27    3.66
  14   5   1    1.25    0.73
  14   5   1    1.16    0.86
 -14   5  -1    0.59    0.92
  14   5   2    4.22    0.88
  14   5   2    6.24    1.31
 -14   5  -2    4.43    1.23
  14   5   3    8.14    1.41
 -14   5  -3    6.99    1.42
  14   5   4   20.31    2.11
 -14   5  -4   19.11    2.14
  14   5   5   28.98    2.49
 -14   5  -5   32.99    2.68
  14   5   6    3.57    1.21
 -14   5  -6    3.91    1.19
  14   5   7    5.67    1.23
 -14   5  -7    6.90    1.36
  14   5   8   22.21    2.33
 -14   5  -8   26.73    2.50
 -14   5  -9    3.00    1.18
 -14   5 -10    2.79    1.12
  14   6 -14   -0.37    0.85
  14   6 -13   24.76    2.16
  14   6 -12    9.42    1.68
  14   6 -12    8.25    1.42
  14   6 -11   22.54    2.25
  14   6 -10    3.40    1.19
  14   6  -9   16.77    1.94
  14   6  -8    8.81    1.57
  14   6  -7    5.25    1.28
  14   6  -6    9.49    1.54
  14   6  -5   10.43    1.52
  14   6  -5   11.13    1.48
  14   6  -4   18.96    1.86
  14   6  -4   18.03    1.86
  14   6  -3   23.82    2.12
  14   6  -3   27.03    2.29
  14   6  -2    7.65    1.37
  14   6  -2    6.19    1.18
  14   6  -1   29.74    2.27
  14   6  -1   28.35    2.37
  14   6   0    1.06    0.90
  14   6   0    2.56    0.99
  14   6   1    6.64    1.40
  14   6   2    7.96    1.44
  14   6   3   16.13    1.91
 -15   0  31  178.83    6.69
 -15   0  30    0.74    1.12
 -15   0  29   35.34    2.78
 -15   0  28    0.12    0.75
 -15   0  27    0.99    0.80
 -15   0  27    1.49    0.63
 -15   0  26    1.04    0.95
 -15   0  26    1.61    0.69
 -15   0  25   68.89    2.65
 -15   0  24    1.67    0.63
 -15   0  23  553.01    9.41
 -15   0  22    1.48    0.59
 -15   0  22    2.42    0.68
 -15   0  21   15.39    1.23
 -15   0  21   14.83    1.13
 -15   0  20    0.05    0.51
 -15   0  20    0.60    0.37
 -15   0  19    0.05    0.48
 -15   0  19   -0.08    0.37
 -15   0  18    0.60    0.52
 -15   0  18    0.02    0.42
 -15   0  17  122.39    3.50
 -15   0  17  114.75    3.36
 -15   0  16    0.57    0.47
 -15   0  16    0.51    0.47
 -15   0  15  218.78    4.99
 -15   0  15  223.24    5.04
 -15   0  14    2.70    0.74
 -15   0  14    2.05    0.73
  15   0 -13  148.59    4.00
 -15   0  13  146.21    4.01
 -15   0  13  146.52    3.93
 -15   0  12    3.31    0.83
  15   0 -12    1.50    0.63
 -15   0  12    1.79    0.66
  15   0 -11   97.19    3.66
  15   0 -11   97.05    3.23
 -15   0  11   94.30    3.12
 -15   0  11   98.37    3.27
  15   0 -10    0.64    0.64
 -15   0  10    0.58    0.54
  15   0 -10    1.63    0.69
 -15   0  10   -0.22    0.56
  15   0  -9  122.61    4.11
  15   0  -9  126.13    3.79
 -15   0   9  127.47    3.90
 -15   0   9  118.07    3.60
  15   0  -8   -0.15    0.60
 -15   0   8    0.99    0.52
  15   0  -8    0.52    0.65
  15   0  -7   31.38    2.04
 -15   0   7   34.73    2.00
  15   0  -7   31.48    1.90
  15   0  -6    0.16    0.65
 -15   0   6    0.03    0.57
  15   0  -6    0.22    0.78
  15   0  -5   43.12    2.35
 -15   0   5   45.80    2.33
  15   0  -5   41.79    2.23
  15   0  -4    0.55    0.60
  15   0  -4    1.06    0.61
  15   0  -3   80.73    3.23
  15   0  -3   78.32    3.17
  15   0  -2    1.39    0.85
  15   0  -2    0.78    0.75
  15   0  -1  111.11    3.81
  15   0  -1  107.28    3.83
  15   0   0    0.87    0.76
 -15   0   0    0.54    0.16
  15   0   0    1.23    0.69
  15   0   1   85.98    3.33
  15   0   1   89.50    3.56
 -15   0  -2    1.08    0.40
  15   0   2    1.56    0.87
 -15   0  -3   60.24    1.87
  15   0   3   63.75    3.05
 -15   0  -4    1.36    0.39
  15   0   4    1.37    0.83
 -15   0  -5   61.77    1.65
  15   0   5   63.21    3.17
 -15   0  -6    0.11    0.22
  15   0   6    0.51    0.72
 -15   0  -7   40.79    0.90
  15   0   7   44.44    2.71
  15   0   8    0.21    0.74
  15   0   9   38.15    2.58
  15   0  10    0.88    0.86
  15   0  11   31.44    2.43
  15   0  12    1.11    0.87
  15   0  13   59.78    3.44
  15   0  14   -1.47    0.98
  15   0  15    3.02    1.11
  15   0  16    1.69    1.08
  15   0  17   42.74    3.04
  15   0  18    0.03    0.88
  15   0  19   19.86    2.24
 -15  -1  31    4.59    1.39
 -15  -1  30    1.56    0.87
 -15   1  30    5.25    1.09
 -15  -1  29    4.81    1.29
 -15   1  29    3.25    0.88
 -15  -1  28   25.34    2.31
 -15   1  28   26.57    1.94
 -15  -1  27    3.46    1.21
 -15   1  27    0.56    0.65
 -15  -1  26   85.21    4.03
 -15   1  26   83.49    3.36
 -15  -1  25    2.74    0.99
 -15   1  25    0.88    0.59
 -15  -1  24   79.21    3.71
 -15   1  24   80.51    3.24
 -15  -1  23    4.48    1.15
 -15   1  23    1.94    0.75
 -15  -1  23    5.01    0.67
 -15   1  23    2.83    0.69
 -15  -1  22    4.85    1.05
 -15   1  22    2.61    0.74
 -15  -1  22    3.94    0.61
 -15   1  22    4.32    0.84
 -15  -1  21   44.34    1.59
 -15  -1  21   44.32    2.59
 -15  -1  21   45.57    1.70
 -15   1  21   42.49    2.28
 -15   1  21   46.71    2.26
 -15  -1  20    4.21    0.60
 -15  -1  20    2.29    0.84
 -15  -1  20    0.00    0.43
 -15   1  20    0.83    0.66
 -15   1  20    1.79    0.61
 -15  -1  19    1.71    0.43
 -15  -1  19    0.79    0.56
 -15   1  19    0.34    0.63
 -15  -1  19    1.00    0.46
 -15   1  19    1.01    0.57
 -15  -1  18   45.74    1.77
 -15  -1  18   46.37    2.43
 -15  -1  18   48.68    1.81
 -15   1  18   50.77    2.44
 -15   1  18   47.35    2.28
 -15  -1  17    2.87    0.48
 -15  -1  17    4.23    0.78
 -15   1  17    4.31    0.84
 -15  -1  17    2.76    0.49
 -15   1  17    3.41    0.72
 -15  -1  16    3.33    0.73
 -15  -1  16    2.80    0.53
 -15   1  16    2.73    0.78
 -15  -1  16    1.99    0.37
 -15   1  16    4.01    0.78
 -15  -1  15    0.83    0.67
 -15  -1  15    0.58    0.35
  15   1 -15    0.49    0.42
 -15  -1  15    0.86    0.37
 -15   1  15   -0.23    0.62
 -15   1  15    0.64    0.52
  15   1 -14    9.19    1.25
 -15  -1  14    9.87    1.07
 -15  -1  14    9.77    0.95
 -15   1  14    9.46    1.04
  15   1 -14   10.06    0.95
 -15  -1  14    9.92    0.90
 -15   1  14   10.50    1.17
  15   1 -13    7.65    1.19
 -15  -1  13    7.66    0.95
 -15  -1  13    6.22    0.81
 -15   1  13    7.74    0.97
  15   1 -13    6.30    0.80
 -15   1  13    5.81    0.89
 -15  -1  13    5.80    0.71
  15   1 -12   39.93    2.36
 -15  -1  12   38.49    1.88
 -15  -1  12   38.69    1.89
 -15   1  12   42.09    2.20
  15   1 -12   40.39    1.89
 -15   1  12   42.15    2.23
 -15  -1  12   39.64    1.75
  15   1 -11    6.07    1.03
 -15  -1  11    5.86    0.81
 -15  -1  11    6.12    0.81
 -15   1  11    6.76    0.99
 -15   1  11    6.17    0.97
  15   1 -11    6.71    0.86
 -15  -1  11    5.88    0.73
 -15  -1  10   19.65    1.23
  15   1 -10   17.78    1.63
 -15  -1  10   17.88    1.46
 -15  -1  10   18.77    1.33
  15  -1 -10   17.50    1.53
 -15   1  10   19.22    1.54
  15   1 -10   17.55    1.32
 -15   1  10   16.80    1.43
  15   1  -9    4.10    0.94
 -15  -1   9    3.51    0.60
 -15  -1   9    3.18    0.73
 -15  -1   9    4.09    0.77
  15  -1  -9    2.97    0.73
  15   1  -9    2.72    0.69
 -15   1   9    3.71    0.83
 -15  -1   8   30.84    1.38
  15   1  -8   29.86    2.05
 -15  -1   8   27.60    1.69
 -15  -1   8   29.49    1.74
  15  -1  -8   28.87    1.92
 -15   1   8   29.54    1.90
  15   1  -8   29.14    1.73
 -15  -1   7    6.46    0.64
  15   1  -7    6.54    1.08
 -15  -1   7    7.10    0.92
 -15  -1   7    5.21    0.81
  15  -1  -7    6.42    1.09
  15   1  -7    5.62    0.88
 -15   1   7    5.06    0.91
  15  -1  -6   17.67    1.51
  15   1  -6   17.27    1.57
 -15  -1   6   17.81    0.91
 -15  -1   6   17.32    1.29
 -15  -1   6   17.92    1.45
  15  -1  -6   18.09    1.59
  15   1  -6   17.02    1.39
 -15  -1   5    1.41    0.32
  15  -1  -5    0.93    0.58
  15   1  -5    2.51    0.84
 -15  -1   5    1.81    0.65
 -15  -1   5    2.49    0.61
  15   1  -5    2.86    0.75
  15  -1  -5    1.85    0.75
  15  -1  -4    4.99    0.96
  15   1  -4    4.86    0.97
 -15  -1   4    4.18    0.38
 -15  -1   4    4.35    0.89
 -15  -1   4    3.94    0.65
  15   1  -4    4.70    0.89
  15  -1  -4    4.60    0.95
  15  -1  -3    5.82    0.93
 -15  -1   3    4.53    0.67
  15   1  -3    5.46    0.93
  15  -1  -3    5.89    1.00
  15  -1  -2    3.83    0.87
 -15  -1   2    3.99    0.65
  15  -1  -2    3.35    0.88
  15   1  -2    4.15    0.94
  15  -1  -1   13.22    1.32
 -15  -1   1   13.15    0.99
  15   1  -1   12.10    1.35
  15  -1  -1   13.49    1.39
  15  -1   0    0.20    0.57
 -15  -1   0    0.31    0.32
  15  -1   0    0.56    0.62
  15   1   0    1.09    0.62
 -15   1  -1   15.44    0.96
  15  -1   1   15.21    1.40
 -15  -1  -1   13.85    0.91
  15   1   1   14.53    1.45
  15  -1   1   15.67    1.59
  15  -1   2    4.24    0.88
 -15   1  -2    3.30    0.52
 -15  -1  -2    3.77    0.50
  15  -1   2    3.63    0.94
  15   1   2    4.02    0.97
  15  -1   3   16.84    1.46
 -15   1  -3   15.76    0.94
 -15  -1  -3   16.02    0.86
  15  -1   3   16.57    1.62
  15   1   3   15.57    1.55
 -15   1  -4    7.88    0.68
  15  -1   4    9.11    1.14
 -15  -1  -4    8.55    0.58
  15  -1   4    8.04    1.28
  15   1   4    6.69    1.13
  15  -1   5    9.44    1.14
 -15   1  -5    9.64    0.74
  15   1   5    7.54    1.16
  15  -1   5    9.45    1.33
 -15   1  -6    9.00    0.72
  15  -1   6   10.09    1.18
  15   1   6    8.56    1.33
  15  -1   6    9.90    1.42
 -15   1  -7   12.94    0.86
  15  -1   7   13.75    1.36
  15   1   7   12.14    1.43
  15  -1   7   14.53    1.63
  15  -1   8    6.35    1.00
 -15   1  -8    5.92    0.63
  15   1   8    5.89    1.16
  15  -1   8    7.92    1.31
  15  -1   9   13.80    1.35
  15   1   9   11.23    1.54
  15  -1   9   11.56    1.52
  15   1  10    7.37    1.32
  15  -1  10    7.72    1.37
  15   1  11   10.04    1.46
  15  -1  11   11.22    1.50
  15   1  12    8.76    1.44
  15  -1  12    6.43    1.20
  15   1  13   -0.35    0.81
  15  -1  13    0.13    0.77
  15   1  14   19.51    2.05
  15  -1  14   18.33    2.01
  15   1  15   20.45    2.12
  15  -1  15   22.62    2.21
  15   1  16   15.78    1.90
  15  -1  16   14.95    1.80
  15   1  17    7.41    1.53
  15  -1  17    5.43    1.31
  15   1  18    3.04    1.31
  15  -1  18    3.51    1.13
  15  -1  19    3.66    1.19
 -15   2  33   26.32    2.29
 -15   2  32    4.27    1.08
 -15   2  31   16.52    1.81
 -15  -2  30    2.07    1.17
 -15   2  30    1.24    0.76
 -15  -2  29   20.89    2.22
 -15   2  29   17.90    1.90
 -15  -2  28   49.78    3.23
 -15   2  28   51.18    2.98
 -15  -2  27   44.00    3.01
 -15   2  27   43.17    2.70
 -15  -2  26   50.14    3.13
 -15   2  26   54.41    2.98
 -15  -2  25   50.42    3.04
 -15   2  25   46.50    2.76
 -15  -2  24    5.20    1.21
 -15   2  24    3.03    0.87
 -15  -2  23   86.27    3.85
 -15   2  23   88.02    3.69
 -15  -2  22    7.90    1.29
 -15   2  22    8.54    1.25
 -15  -2  21   51.82    2.85
 -15   2  21   44.67    2.59
 -15  -2  20   89.90    3.69
 -15   2  20  103.48    3.91
 -15  -2  19    3.77    1.05
 -15   2  19    2.16    0.88
 -15  -2  18   45.99    2.48
 -15   2  18   43.01    2.52
 -15  -2  18   47.97    1.19
  15   2 -17   98.22    3.86
 -15  -2  17   92.23    3.48
 -15   2  17   92.27    3.63
 -15  -2  17   92.95    1.99
 -15  -2  16    6.89    0.93
  15   2 -16    6.59    1.17
 -15   2  16    6.49    1.15
 -15  -2  16    7.89    0.62
  15   2 -16    7.83    0.77
  15   2 -15   60.82    2.98
 -15  -2  15   61.13    2.60
 -15  -2  15   64.80    1.83
 -15   2  15   67.05    3.09
  15   2 -15   63.84    2.12
  15   2 -14   18.15    1.69
 -15  -2  14   19.68    1.43
 -15   2  14   20.94    1.73
  15   2 -14   17.96    1.16
 -15  -2  14   17.02    0.97
  15   2 -13   91.45    3.67
 -15  -2  13   91.28    3.07
 -15   2  13   92.68    3.59
  15   2 -13   89.81    2.74
 -15  -2  13   89.67    2.41
  15   2 -12   46.81    2.60
 -15  -2  12   49.36    2.15
 -15   2  12   48.97    2.59
  15   2 -12   50.91    2.06
 -15  -2  12   47.41    1.76
  15   2 -11   55.01    2.84
 -15  -2  11   57.94    2.26
 -15   2  11   56.66    2.80
  15   2 -11   58.07    2.28
  15   2 -10    3.25    0.94
 -15  -2  10    4.06    0.73
  15   2 -10    3.09    0.67
 -15   2  10    2.54    0.95
 -15  -2   9   71.59    2.32
  15   2  -9   71.71    3.24
  15   2  -9   72.40    2.70
 -15   2   9   73.28    3.17
 -15  -2   8    3.03    0.54
  15   2  -8    1.68    0.79
 -15  -2   8    3.55    0.74
  15   2  -8    3.20    0.74
 -15   2   8    2.09    0.83
  15   2  -7   37.24    2.33
 -15  -2   7   38.65    1.50
 -15  -2   7   36.79    1.99
  15   2  -7   36.73    2.00
 -15   2   7   36.99    2.26
 -15  -2   6    3.10    0.66
  15  -2  -6    3.30    0.85
  15   2  -6    3.97    0.82
 -15   2   6    1.88    0.72
 -15  -2   5   49.17    2.18
 -15  -2   5   45.98    2.12
  15  -2  -5   48.88    2.68
 -15   2   5   49.46    2.64
  15   2  -5   48.22    2.37
  15   2  -4    1.62    0.77
 -15  -2   4    2.60    0.66
 -15  -2   4    1.87    0.67
  15  -2  -4    2.57    0.90
 -15   2   4    0.74    0.74
 -15  -2   3   41.49    1.91
 -15  -2   3   46.00    2.23
  15  -2  -3   43.49    2.56
  15   2  -3   38.36    2.20
 -15   2   3   42.88    2.47
  15   2  -2    2.63    0.81
 -15  -2   2    2.96    0.63
 -15  -2   2    3.58    0.83
  15  -2  -2    2.12    0.85
 -15  -2   1   57.58    2.15
  15  -2  -1   53.82    2.85
  15   2  -1   59.95    2.84
 -15  -2   0    0.67    0.46
  15   2   0   -0.93    0.77
  15  -2   0    1.21    0.74
  15  -2   1   70.06    3.32
  15   2   1   74.03    3.27
  15  -2   2    1.46    0.74
 -15   2  -2    1.05    0.57
  15   2   2    0.70    0.68
  15  -2   2   -0.02    0.70
  15  -2   3   49.02    2.34
 -15   2  -3   47.04    2.11
  15   2   3   49.63    2.77
  15  -2   3   47.73    2.76
  15  -2   4    1.74    0.70
 -15   2  -4    0.50    0.50
  15   2   4    0.64    0.80
  15  -2   4    1.95    0.94
  15  -2   5   34.40    1.93
 -15   2  -5   34.50    1.81
  15   2   5   34.24    2.38
  15  -2   5   35.49    2.49
 -15   2  -6    1.45    0.54
  15  -2   6    1.82    0.62
  15   2   6    1.61    0.91
  15  -2   6    2.33    0.93
  15  -2   7   21.10    1.54
 -15   2  -7   23.01    1.49
  15  -2   7   20.39    1.99
  15   2   7   21.47    1.99
  15  -2   8    0.90    0.63
  15   2   8    0.53    0.85
  15  -2   8    0.58    0.82
  15  -2   9   20.75    1.55
  15   2   9   19.26    1.97
  15  -2   9   17.82    1.82
  15  -2  10   -0.08    0.55
  15   2  10    0.89    0.93
  15  -2  10    2.18    0.97
  15  -2  11   30.21    1.84
  15   2  11   30.51    2.50
  15  -2  11   29.71    2.40
  15  -2  12    8.53    1.10
  15   2  12    7.98    1.44
  15  -2  12    7.23    1.43
  15  -2  13   21.03    2.19
  15   2  13   21.42    2.23
  15   2  14   13.82    1.86
  15  -2  14   15.62    1.89
  15   2  15   13.97    1.86
  15  -2  15   12.20    1.71
  15   2  16   -2.12    1.17
  15  -2  16    0.73    0.86
  15  -2  17   19.60    2.18
  15  -2  18   -0.54    0.80
 -15   3  31   34.47    2.75
 -15   3  30   21.57    2.19
 -15   3  29   19.46    2.03
 -15  -3  28    2.00    0.94
 -15   3  28    3.46    1.17
 -15  -3  27   18.91    2.04
 -15   3  27   15.79    1.91
 -15  -3  26    1.98    1.03
 -15   3  26    0.25    0.83
 -15  -3  25    7.53    1.38
 -15   3  25    4.61    1.16
 -15  -3  24   71.11    3.72
 -15   3  24   68.26    3.58
 -15  -3  23   29.13    2.32
 -15   3  23   34.12    2.53
 -15  -3  22    8.30    1.38
 -15   3  22    5.62    1.14
 -15  -3  21   34.44    2.41
 -15   3  21   30.40    2.35
 -15  -3  20   25.56    2.05
 -15   3  20   28.70    2.30
 -15  -3  19    6.06    1.14
 -15   3  19    6.04    1.18
  15   3 -18   49.29    2.77
 -15  -3  18   47.26    2.64
 -15   3  18   49.93    2.93
  15   3 -17   18.09    1.74
 -15  -3  17   19.45    1.69
 -15   3  17   19.24    1.87
  15   3 -16   23.79    1.96
 -15  -3  16   25.19    1.86
 -15   3  16   22.34    1.96
  15   3 -16   22.48    1.11
  15   3 -15   44.76    2.69
 -15  -3  15   50.06    2.49
 -15   3  15   50.92    2.91
  15   3 -15   47.85    1.76
  15   3 -14    3.97    0.97
 -15  -3  14    4.73    0.90
 -15   3  14    4.36    1.15
 -15  -3  14    3.42    0.35
  15   3 -14    5.20    0.69
  15   3 -13   10.43    1.35
 -15  -3  13   14.25    1.30
 -15  -3  13   12.59    0.69
 -15   3  13   12.95    1.56
 -15  -3  13   11.55    0.69
  15   3 -13   13.88    1.06
 -15  -3  12   24.33    1.62
  15   3 -12   25.49    2.02
 -15   3  12   25.35    2.05
 -15  -3  12   23.14    1.08
  15   3 -12   25.08    1.47
  15   3 -11   21.81    1.89
 -15  -3  11   20.21    1.09
 -15   3  11   21.29    1.91
  15   3 -11   20.59    1.38
  15   3 -10   50.22    2.79
 -15   3  10   51.35    2.90
 -15  -3  10   51.23    1.86
  15   3 -10   52.25    2.25
  15   3  -9   37.18    2.42
 -15   3   9   40.56    2.57
 -15  -3   9   35.10    1.62
  15   3  -9   35.89    1.93
 -15  -3   8   48.81    1.99
  15   3  -8   50.54    2.36
 -15   3   8   49.21    2.81
 -15  -3   7   33.11    1.70
 -15   3   7   37.62    2.48
  15   3  -7   35.34    2.02
  15   3  -6    6.85    1.02
 -15  -3   6    7.43    0.92
 -15   3   6    6.32    1.23
  15   3  -5    1.02    0.63
 -15  -3   5    0.96    0.54
 -15   3   5    0.72    0.69
 -15  -3   4   27.12    1.68
  15   3  -4   27.87    1.91
 -15   3   4   28.87    2.19
  15   3  -3    2.72    0.86
 -15  -3   3    2.40    0.68
 -15   3   3    3.22    0.98
  15   3  -2   41.99    2.44
 -15   3   2   49.81    2.90
  15   3  -1   24.16    1.92
 -15   3   1   24.28    2.07
  15   3   0   21.86    1.85
 -15   3   0   26.39    2.20
  15  -3   0   22.03    2.01
  15  -3   1   22.94    2.03
  15   3   1   20.39    1.82
 -15   3  -1   23.41    2.04
  15  -3   2   31.23    2.39
  15   3   2   31.58    2.26
 -15   3  -2   31.36    2.34
  15   3   3   16.96    1.71
  15  -3   3   17.04    1.84
  15   3   4   18.12    1.80
  15  -3   4   16.20    1.79
  15   3   5    3.28    0.94
  15  -3   5    3.30    1.04
  15   3   6    5.41    1.21
  15  -3   6    4.29    1.07
  15   3   7    2.36    0.96
  15  -3   7    2.40    0.94
  15   3   8    3.22    1.06
  15  -3   8    5.21    1.16
  15   3   9    1.74    0.93
  15  -3   9    0.83    0.87
  15   3  10   -0.13    0.82
  15  -3  10    2.53    1.09
  15   3  11   13.21    1.79
  15  -3  11   14.92    1.85
  15   3  12    1.03    1.02
  15  -3  12    0.24    0.84
  15   3  13    3.65    1.25
  15  -3  13    5.16    1.37
  15   3  14    1.19    1.02
  15  -3  14    0.64    0.81
  15  -3  15    0.01    0.81
  15  -3  16    5.10    1.24
  15  -3  17    5.58    1.35
 -15  -4  26   14.83    1.95
 -15  -4  25   34.12    2.74
 -15   4  25   29.69    2.62
 -15  -4  24   50.70    3.27
 -15   4  24   56.13    3.49
 -15  -4  23    6.94    1.48
 -15   4  23    3.87    1.25
 -15  -4  22    8.12    1.43
 -15   4  22   10.10    1.61
 -15  -4  21    6.74    1.24
 -15   4  21    5.74    1.29
 -15  -4  20    3.32    1.12
 -15   4  20    1.98    0.91
  15   4 -19   62.65    3.23
 -15  -4  19   61.99    3.31
 -15   4  19   68.22    3.71
  15   4 -18   57.00    3.11
 -15   4  18   63.66    3.58
  15   4 -17   26.55    2.13
 -15   4  17   26.07    2.38
  15   4 -16   66.16    3.35
 -15   4  16   65.22    3.63
  15   4 -15    1.78    0.95
 -15   4  15    1.99    1.08
  15   4 -14   39.49    2.59
 -15   4  14   38.60    2.72
  15   4 -13   27.38    2.19
 -15   4  13   32.27    2.54
  15   4 -13   31.28    1.63
  15   4 -12   47.29    2.82
  15   4 -12   47.98    2.84
 -15   4  12   51.36    3.14
  15   4 -12   48.46    2.14
  15   4 -11   84.62    3.74
  15   4 -11   82.72    3.77
 -15   4  11   84.76    4.03
  15   4 -11   86.52    3.01
  15   4 -10  143.19    4.82
  15   4 -10  139.78    4.96
 -15   4  10  151.82    5.38
  15   4 -10  148.18    4.20
  15   4  -9   38.06    2.44
 -15   4   9   32.33    2.50
  15   4  -9   35.10    2.02
  15   4  -8  128.92    4.46
 -15   4   8  134.65    5.07
  15   4  -8  130.38    4.12
  15   4  -7   16.85    1.68
  15   4  -7   14.64    1.45
 -15   4   7   14.40    1.74
  15   4  -6   43.52    2.47
 -15   4   6   45.36    2.92
  15   4  -6   41.53    2.36
  15   4  -5   34.13    2.17
  15   4  -5   34.14    2.18
 -15   4   5   33.91    2.53
  15   4  -4   89.38    3.44
  15   4  -4   87.17    3.57
 -15   4   4   99.92    4.34
  15   4  -3   29.16    1.92
  15   4  -3   27.70    2.07
 -15   4   3   27.61    2.37
  15   4  -2   82.20    3.19
  15   4  -2   78.71    3.50
 -15   4   2   94.56    4.19
  15   4  -1   29.28    1.89
  15   4  -1   33.91    2.34
 -15   4   1   30.55    2.46
  15   4   0   99.56    3.36
  15   4   0   91.54    3.91
 -15   4   0   99.63    4.35
  15   4   1   22.65    2.06
 -15   4  -1   20.76    2.12
  15   4   2   85.92    3.89
 -15   4  -2   94.29    4.24
  15   4   3   22.62    2.12
 -15   4  -3   22.54    2.23
  15   4   4   71.93    3.69
 -15   4  -4   75.23    3.84
  15   4   5   22.93    2.17
 -15   4  -5   19.99    2.10
  15   4   6   22.89    2.18
 -15   4  -6   23.70    2.22
  15   4   7    9.85    1.56
 -15   4  -7    9.91    1.59
  15   4   8   16.96    1.98
 -15   4  -8   21.95    2.18
  15   4   9    2.62    1.08
 -15   4  -9    2.11    1.07
  15   4  10   29.20    2.60
 -15   4 -10   31.15    2.62
 -15   4 -11    9.24    1.63
  15  -4  12   11.60    1.71
  15  -4  13    7.44    1.50
  15   5 -20    2.13    0.94
  15   5 -19   14.93    1.75
  15   5 -18   -0.49    0.98
  15   5 -18    1.65    0.78
  15   5 -17   19.73    2.12
 -15   5  17   20.46    2.19
  15   5 -17   15.79    1.77
  15   5 -16   -0.22    0.84
 -15   5  16    0.45    1.05
  15   5 -16    0.73    0.76
  15   5 -15   19.39    2.05
 -15   5  15   24.16    2.39
  15   5 -15   21.96    2.02
  15   5 -14    1.52    1.00
 -15   5  14    3.07    1.29
  15   5 -14    2.16    0.94
  15   5 -13   81.99    3.98
 -15   5  13   86.78    4.39
  15   5 -13   74.40    3.70
  15   5 -12    7.49    1.36
 -15   5  12    8.61    1.60
  15   5 -12    4.30    1.13
  15   5 -11   36.35    2.61
 -15   5  11   41.44    3.05
  15   5 -11   35.83    2.61
  15   5 -10    1.33    0.96
 -15   5  10    2.77    1.16
  15   5  -9   28.96    2.30
  15   5  -9   30.75    2.01
 -15   5   9   32.96    2.69
  15   5  -8    1.52    0.65
  15   5  -8    2.82    1.00
 -15   5   8    2.12    1.03
  15   5  -7   37.42    2.51
  15   5  -7   33.58    2.33
 -15   5   7   39.76    2.97
  15   5  -6    1.50    0.85
  15   5  -6    0.52    0.62
 -15   5   6    2.23    0.96
  15   5  -5   26.46    2.09
  15   5  -5   26.94    2.06
 -15   5   5   29.57    2.59
  15   5  -4    5.85    1.09
  15   5  -4    4.77    1.09
 -15   5   4    4.62    1.16
  15   5  -3   14.33    1.54
  15   5  -3   16.90    1.75
 -15   5   3   15.06    1.88
  15   5  -2    1.73    0.88
  15   5  -2    0.14    0.78
 -15   5   2   -0.75    1.04
  15   5  -1   24.60    1.89
  15   5  -1   18.53    1.88
 -15   5   1   24.60    2.35
  15   5   0    2.19    0.84
  15   5   0    1.04    0.87
 -15   5   0    2.90    1.18
  15   5   1   29.32    1.98
  15   5   1   26.82    2.32
 -15   5  -1   28.28    2.51
  15   5   2    0.75    0.85
 -15   5  -2    0.72    0.94
  15   5   3   16.09    1.86
 -15   5  -3   21.77    2.28
  15   5   4    1.05    0.88
 -15   5  -4    4.80    1.28
  15   5   5    1.20    0.77
 -15   5  -5    5.51    1.36
  15   5   6   -0.16    0.80
 -15   5  -6    3.07    1.13
  15   6 -14   28.29    2.39
  15   6 -13    6.91    1.37
  15   6 -12   59.38    3.47
  15   6 -11    8.12    1.51
  15   6 -11    7.01    1.41
  15   6 -10   31.57    2.61
  15   6  -9   16.23    1.97
  15   6  -8   50.95    3.37
  15   6  -7    3.71    1.15
  15   6  -6   19.30    2.06
  15   6  -5    4.32    1.16
  15   6  -4   24.81    2.18
  15   6  -4   23.77    2.14
  15   6  -3    7.33    1.37
  15   6  -3    8.03    1.39
  15   6  -2   45.98    2.90
  15   6  -2   45.20    3.01
  15   6  -1    2.61    1.15
  15   6   0   35.20    2.74
  15   6   1    5.77    1.38
  15   6   2   21.03    2.28
 -16   0  31   -0.61    1.14
 -16   0  30    6.42    1.50
 -16   0  29    1.53    1.02
 -16   0  28   31.27    2.58
 -16   0  27    1.70    0.91
 -16   0  26    4.94    1.20
 -16   0  26    3.76    0.76
 -16   0  25    0.33    0.78
 -16   0  25   -0.20    0.53
 -16   0  24    0.70    0.53
 -16   0  23    0.24    0.51
 -16   0  22  503.69    8.86
 -16   0  21    0.89    0.59
 -16   0  21    0.86    0.50
 -16   0  20   89.40    3.00
 -16   0  20   82.02    2.79
 -16   0  19    1.05    0.65
 -16   0  19    0.18    0.42
 -16   0  18    0.75    0.50
 -16   0  18    0.52    0.49
 -16   0  17    0.96    0.51
 -16   0  17    0.66    0.55
 -16   0  16  211.15    4.93
 -16   0  16  197.09    4.85
 -16   0  15    2.64    0.76
 -16   0  15    1.18    0.67
 -16   0  14  800.37   12.45
 -16   0  14  779.74   12.51
 -16   0  13    2.22    0.68
  16   0 -13    1.06    0.57
 -16   0  13    1.68    0.68
  16   0 -12  391.04    7.59
 -16   0  12  381.94    7.40
 -16   0  12  385.98    7.61
  16   0 -11   -0.07    0.66
 -16   0  11    0.60    0.58
  16   0 -11    1.56    0.69
 -16   0  11    1.14    0.68
  16   0 -10   25.07    1.89
  16   0 -10   23.47    1.67
 -16   0  10   28.78    1.81
 -16   0  10   23.70    1.62
  16   0  -9    0.62    0.72
 -16   0   9    1.33    0.68
  16   0  -9    0.89    0.67
 -16   0   9    0.96    0.72
  16   0  -8  477.72    9.47
  16   0  -8  472.00    8.97
 -16   0   8  492.31    9.17
  16   0  -7    0.32    0.71
  16   0  -7    2.34    0.76
  16   0  -6  320.84    7.36
  16   0  -6  325.91    7.09
  16   0  -5    0.61    0.63
  16   0  -5    0.34    0.53
  16   0  -4   86.88    3.41
  16   0  -4   78.99    3.21
  16   0  -3    0.62    0.65
  16   0  -3    0.87    0.75
  16   0  -2  108.11    3.84
  16   0  -2  108.21    3.91
  16   0  -1    1.45    0.73
 -16   0   1    0.52    0.20
  16   0  -1    1.04    0.74
  16   0   0  268.01    6.51
 -16   0   0  258.60    5.15
  16   0   0  265.06    6.63
  16   0   1    0.56    0.73
 -16   0  -1   -0.02    0.39
  16   0   1    0.56    0.62
  16   0   2   97.42    3.67
 -16   0  -2   91.16    2.54
  16   0   2   92.16    3.75
 -16   0  -3    0.57    0.33
  16   0   3    1.02    0.83
 -16   0  -4   15.27    0.88
  16   0   4   14.04    1.58
 -16   0  -5    0.33    0.32
  16   0   5    0.02    0.74
  16   0   6   65.90    3.34
  16   0   7   -0.39    0.74
  16   0   8    0.75    0.80
  16   0   9    0.58    1.05
  16   0  10   58.54    3.36
  16   0  11   -0.23    0.82
  16   0  12    4.15    1.05
  16   0  13    0.47    0.97
  16   0  14   -0.13    0.95
  16   0  15    0.39    0.92
  16   0  16   57.98    3.61
  16   0  17   -0.19    0.84
 -16  -1  30   12.08    1.69
 -16   1  29    5.16    0.95
 -16  -1  29    2.83    1.02
 -16   1  28    8.94    1.19
 -16  -1  28    9.46    1.48
 -16   1  27    1.69    0.77
 -16  -1  27    2.49    0.87
 -16   1  26    9.52    1.20
 -16  -1  26    8.56    1.45
 -16   1  25    4.82    0.87
 -16  -1  25    6.27    1.18
 -16   1  24   25.50    1.85
 -16  -1  24   24.93    2.13
 -16  -1  23   22.48    1.22
 -16   1  23   15.97    1.52
 -16  -1  23   19.41    1.87
 -16  -1  22   26.85    1.31
 -16   1  22   23.55    1.75
 -16  -1  22   24.59    2.05
 -16  -1  21   -0.14    0.38
 -16   1  21    0.37    0.60
 -16  -1  21    0.08    0.74
 -16  -1  20  148.35    3.51
 -16   1  20  156.52    4.57
 -16  -1  20  160.58    3.59
 -16  -1  20  151.27    4.80
 -16  -1  19    5.26    0.66
 -16  -1  19    6.86    0.70
 -16   1  19    7.76    1.12
 -16  -1  19    5.22    0.99
 -16  -1  18    3.73    0.56
 -16  -1  18    5.72    0.66
 -16   1  18    6.79    1.04
 -16  -1  18    4.55    0.81
 -16  -1  17   85.81    2.71
 -16  -1  17   92.09    2.70
 -16   1  17   86.16    3.27
 -16  -1  17   86.99    3.32
 -16  -1  16   85.93    2.78
 -16  -1  16   93.07    3.34
 -16   1  16   93.10    3.42
 -16  -1  16   93.49    2.74
 -16  -1  15    3.67    0.89
 -16  -1  15    2.15    0.63
  16   1 -15    2.26    0.58
 -16   1  15    1.52    0.73
 -16  -1  15    2.92    0.58
 -16  -1  14  113.65    3.40
  16   1 -14  118.38    4.27
 -16  -1  14  117.49    3.60
 -16   1  14  122.26    3.95
  16   1 -14  121.80    3.44
 -16  -1  14  125.63    3.33
  16   1 -13    0.46    0.64
 -16  -1  13    1.17    0.63
 -16  -1  13    0.82    0.49
  16   1 -13    0.46    0.45
 -16   1  13   -0.26    0.71
 -16  -1  13    1.08    0.50
 -16  -1  12   12.15    1.08
  16   1 -12   12.82    1.46
 -16  -1  12   11.42    1.11
  16   1 -12   12.74    1.14
 -16   1  12   13.38    1.36
 -16  -1  12   11.31    1.02
 -16  -1  11  145.52    3.67
  16   1 -11  147.73    4.74
 -16  -1  11  140.64    3.97
  16   1 -11  145.55    4.00
 -16   1  11  129.05    4.14
 -16  -1  11  144.75    3.78
 -16  -1  10  171.12    3.93
  16   1 -10  174.04    5.24
 -16  -1  10  167.84    4.45
  16  -1 -10  171.45    4.88
  16   1 -10  173.03    4.50
 -16   1  10  169.11    4.79
 -16  -1   9   56.88    1.98
  16   1  -9   59.62    2.94
 -16  -1   9   55.66    2.51
 -16  -1   9   55.12    2.45
  16  -1  -9   49.42    2.53
  16   1  -9   54.55    2.41
 -16   1   9   46.23    2.42
 -16  -1   8   17.16    1.02
  16   1  -8   18.01    1.69
 -16  -1   8   16.55    1.37
 -16  -1   8   16.22    1.34
  16  -1  -8   16.94    1.53
 -16   1   8   17.36    1.52
  16   1  -8   17.28    1.42
 -16  -1   7   18.76    1.00
  16   1  -7   17.85    1.66
 -16  -1   7   17.37    1.35
 -16  -1   7   19.30    1.53
  16  -1  -7   20.72    1.68
 -16   1   7   21.33    1.68
  16   1  -7   19.97    1.56
  16  -1  -6   35.43    2.14
  16   1  -6   33.19    2.19
 -16  -1   6   34.47    1.24
 -16  -1   6   31.64    1.77
  16  -1  -6   36.03    2.19
  16   1  -6   32.11    1.97
 -16  -1   5    1.46    0.31
  16  -1  -5    0.57    0.61
  16   1  -5    0.93    0.68
 -16  -1   5    1.37    0.56
  16   1  -5    1.06    0.61
  16  -1  -5    1.54    0.74
  16  -1  -4    6.80    1.04
  16   1  -4    7.90    1.32
 -16  -1   4    6.10    0.38
 -16  -1   4    6.70    0.84
  16   1  -4    5.72    1.02
  16  -1  -4    7.21    1.15
  16   1  -3  213.88    5.85
  16  -1  -3  215.53    5.58
 -16  -1   3  208.01    4.68
  16   1  -3  215.01    5.62
  16  -1  -3  214.42    5.81
  16  -1  -2    8.43    1.11
 -16  -1   2    5.95    0.75
  16   1  -2    5.62    1.01
  16  -1  -2    7.50    1.19
  16  -1  -1   42.86    2.32
 -16  -1   1   41.72    1.77
  16   1  -1   43.71    2.45
  16  -1  -1   39.79    2.40
  16  -1   0   36.15    2.13
 -16  -1   0   31.41    1.48
  16   1   0   31.66    2.18
  16  -1   0   33.06    2.22
  16  -1   1   24.13    1.76
 -16   1  -1   22.67    1.14
 -16  -1  -1   20.98    1.14
  16   1   1   20.43    1.80
  16  -1   1   22.20    1.89
  16  -1   2   -0.13    0.61
 -16   1  -2    0.73    0.33
 -16  -1  -2    0.38    0.29
  16  -1   2    0.34    0.69
  16   1   2    1.09    0.77
  16  -1   3  119.33    4.00
 -16   1  -3  116.87    2.70
 -16  -1  -3  112.98    2.54
  16   1   3  112.71    4.25
  16  -1   3  107.90    4.22
 -16   1  -4    0.02    0.30
 -16  -1  -4    0.50    0.28
  16  -1   4   -0.08    0.59
  16   1   4    0.27    0.69
  16  -1   4    1.13    0.87
 -16   1  -5   43.25    1.49
  16  -1   5   39.13    2.24
  16   1   5   42.91    2.66
  16  -1   5   40.89    2.63
  16  -1   6   10.17    1.26
  16  -1   6   10.47    1.46
  16   1   6    6.65    1.23
  16  -1   7    7.20    1.08
  16   1   7    7.52    1.34
  16  -1   7    8.17    1.39
  16  -1   8    1.99    0.70
  16   1   8    2.95    0.95
  16  -1   8    1.91    0.90
  16  -1   9    2.46    0.72
  16   1   9    1.70    0.88
  16  -1   9    2.83    0.95
  16  -1  10    5.44    1.03
  16   1  10    6.30    1.42
  16  -1  10    5.06    1.24
  16  -1  11   24.87    1.84
  16  -1  11   25.54    2.28
  16   1  11   26.04    2.30
  16  -1  12    4.55    0.98
  16   1  12    3.45    1.03
  16  -1  12    4.83    1.24
  16  -1  13   57.11    3.49
  16   1  13   59.84    3.57
  16  -1  14   56.77    3.45
  16   1  14   47.59    3.20
  16   1  15    8.39    1.52
  16  -1  15    9.16    1.56
  16   1  16   -0.98    0.89
  16  -1  16   -0.37    0.83
  16  -1  17    2.80    1.09
 -16   2  32   -0.68    0.87
 -16   2  31    0.88    0.81
 -16  -2  30    1.49    1.12
 -16   2  30    0.35    0.82
 -16  -2  29    8.39    1.64
 -16   2  29    9.51    1.43
 -16  -2  28    5.21    1.20
 -16   2  28    3.15    1.05
 -16  -2  27    1.23    0.91
 -16   2  27   -0.13    0.72
 -16  -2  26    2.51    0.91
 -16   2  26    1.80    0.83
 -16  -2  25   10.19    1.50
 -16   2  25   11.28    1.45
 -16  -2  24    2.52    0.96
 -16   2  24    1.44    0.81
 -16  -2  23    0.15    0.69
 -16   2  23    0.23    0.73
 -16  -2  22    1.79    0.80
 -16   2  22    1.38    0.84
 -16  -2  21    2.33    0.94
 -16   2  21    0.71    0.70
 -16  -2  20   28.38    2.10
 -16   2  20   27.32    2.03
 -16  -2  19   39.38    2.35
 -16   2  19   38.12    2.40
 -16  -2  18   41.91    2.36
 -16   2  18   41.39    2.48
 -16  -2  18   44.63    1.32
  16   2 -17    5.20    1.04
 -16  -2  17    4.45    0.80
 -16  -2  17    6.76    0.58
 -16   2  17    3.71    0.92
  16   2 -17    6.23    0.68
 -16  -2  16    3.94    0.67
  16   2 -16    8.01    1.24
 -16   2  16    8.26    1.19
 -16  -2  16    7.19    0.67
  16   2 -16    7.73    0.78
 -16  -2  15    9.46    1.06
  16   2 -15   10.73    1.39
 -16  -2  15    9.87    0.77
  16   2 -15   11.10    0.94
 -16   2  15   10.65    1.37
  16   2 -14   17.38    1.74
 -16  -2  14   19.34    1.47
 -16   2  14   18.67    1.71
  16   2 -14   20.65    1.30
 -16  -2  14   19.21    1.10
  16   2 -13   43.88    2.64
 -16  -2  13   44.96    2.11
 -16   2  13   42.12    2.48
  16   2 -13   46.52    2.02
 -16  -2  13   43.70    1.73
  16   2 -12   22.71    1.89
 -16  -2  12   25.80    1.56
 -16   2  12   24.27    1.91
  16   2 -12   24.47    1.52
  16   2 -11    5.75    1.10
 -16  -2  11    7.03    0.88
  16   2 -11    5.75    0.84
 -16   2  11    5.54    1.01
 -16  -2  10   56.07    2.10
  16   2 -10   51.94    2.83
 -16   2  10   55.62    2.84
  16   2 -10   56.17    2.40
 -16  -2   9   27.10    1.38
  16   2  -9   24.98    2.00
  16   2  -9   26.90    1.71
 -16   2   9   25.59    2.03
 -16  -2   8   53.97    1.87
  16   2  -8   53.18    2.85
  16   2  -8   55.52    2.51
 -16   2   8   54.73    2.83
  16   2  -7    3.01    0.90
 -16  -2   7    2.94    0.66
 -16   2   7    1.99    0.80
  16   2  -7    3.74    0.79
  16   2  -6    4.10    1.00
 -16  -2   6    4.21    0.71
  16  -2  -6    4.12    0.94
  16   2  -6    3.66    0.81
 -16   2   6    3.28    0.97
 -16  -2   5    3.07    0.66
  16   2  -5    4.44    0.89
  16  -2  -5    3.70    0.97
 -16   2   5    4.38    1.05
 -16  -2   4   22.76    1.48
 -16  -2   4   24.91    1.64
  16  -2  -4   23.97    1.92
  16   2  -4   22.34    1.74
 -16   2   4   22.39    1.89
 -16  -2   3   28.50    1.62
  16  -2  -3   28.23    2.13
 -16   2   3   24.58    2.00
  16   2  -3   29.03    1.99
 -16  -2   2    0.03    0.41
  16   2  -2    1.23    0.73
  16  -2  -2   -0.28    0.66
 -16  -2   1    4.72    0.71
  16   2  -1    6.02    1.06
  16  -2  -1    5.17    1.08
 -16  -2   0    0.36    0.43
  16   2   0    1.41    0.85
  16  -2   0    0.93    0.78
  16   2   1    0.75    0.70
  16  -2   1    2.57    0.99
  16  -2   2  103.22    3.58
 -16   2  -2  105.39    3.24
  16  -2   2   99.70    4.13
  16   2   2  105.28    4.13
  16  -2   3   16.35    1.48
 -16   2  -3   14.90    1.20
  16   2   3   16.67    1.77
  16  -2   3   16.76    1.77
  16  -2   4    0.70    0.57
 -16   2  -4    0.06    0.50
  16   2   4    2.56    0.97
  16  -2   4    0.82    0.76
  16  -2   5   65.41    2.77
 -16   2  -5   61.18    2.43
  16  -2   5   61.25    3.35
  16   2   5   64.91    3.38
  16  -2   6    2.57    0.73
  16   2   6    1.23    0.92
  16  -2   6    1.91    0.90
  16  -2   7    8.67    1.06
  16   2   7   10.50    1.59
  16  -2   7    8.27    1.33
  16  -2   8    9.35    1.11
  16   2   8   10.47    1.55
  16  -2   8    9.17    1.48
  16  -2   9    3.95    0.88
  16   2   9    5.98    1.31
  16  -2   9    4.00    1.24
  16  -2  10   67.41    2.85
  16  -2  10   66.90    3.67
  16   2  10   74.95    3.92
  16  -2  11   48.51    2.40
  16  -2  11   43.55    2.99
  16   2  11   44.50    3.05
  16   2  12    2.57    1.06
  16  -2  12    1.83    1.02
  16   2  13   12.71    1.83
  16  -2  13   14.93    1.84
  16   2  14   13.26    1.92
  16  -2  14   15.00    1.89
  16  -2  15    0.06    0.81
  16  -2  16   20.55    2.22
 -16   3  31    0.12    0.96
 -16   3  30    0.84    0.97
 -16   3  29    0.40    1.22
 -16  -3  28    1.23    1.01
 -16   3  28    0.57    0.80
 -16  -3  27    0.31    0.90
 -16   3  27    0.16    0.82
 -16  -3  26    8.05    1.47
 -16   3  26    5.46    1.20
 -16  -3  25    1.13    0.96
 -16   3  25   -0.03    0.95
 -16  -3  24    1.20    0.89
 -16   3  24    0.25    0.91
 -16  -3  23   27.92    2.34
 -16   3  23   20.59    2.04
 -16  -3  22   -1.03    0.92
 -16   3  22    0.59    0.87
 -16  -3  21    0.35    0.76
 -16   3  21   -0.06    0.93
 -16  -3  20   42.78    2.65
 -16   3  20   41.55    2.76
  16   3 -19    5.36    1.07
 -16  -3  19    7.37    1.23
 -16   3  19    5.36    1.19
  16   3 -18    7.38    1.26
 -16  -3  18    9.16    1.30
 -16   3  18    9.17    1.44
  16   3 -17   45.57    2.77
 -16  -3  17   49.74    2.64
 -16   3  17   50.03    2.93
  16   3 -16    1.13    0.88
 -16  -3  16    2.23    0.79
 -16   3  16    0.40    0.83
  16   3 -16   -0.24    0.31
  16   3 -15   21.39    1.92
 -16  -3  15   22.67    1.68
 -16   3  15   20.03    1.90
  16   3 -15   20.35    1.22
  16   3 -14   31.24    2.31
 -16  -3  14   31.96    1.92
 -16   3  14   33.14    2.41
  16   3 -14   33.94    1.65
  16   3 -13    2.20    0.95
 -16  -3  13    0.84    0.48
  16   3 -13    0.67    0.38
 -16   3  13    0.02    0.77
 -16  -3  13    1.14    0.39
 -16  -3  12    0.12    0.57
  16   3 -12    0.47    0.42
 -16   3  12   -0.58    0.86
  16   3 -11    5.88    1.14
 -16   3  11    4.22    1.10
  16   3 -11    5.48    0.81
  16   3 -10    5.05    1.17
 -16  -3  10    4.18    0.64
  16   3 -10    5.03    0.89
 -16   3  10    2.71    0.98
  16   3  -9  133.56    4.77
 -16   3   9  133.22    4.79
 -16  -3   9  127.35    3.43
  16   3  -9  129.86    3.96
 -16  -3   8   37.96    1.87
 -16   3   8   42.82    2.70
  16   3  -8   38.98    2.14
 -16  -3   7   23.63    1.50
  16   3  -7   24.32    1.73
 -16   3   7   19.62    1.87
  16   3  -6   12.42    1.35
 -16  -3   6   13.61    1.23
 -16   3   6   11.41    1.49
  16   3  -5    1.91    0.77
 -16  -3   5    3.43    0.75
 -16   3   5    2.18    0.96
  16   3  -4   11.60    1.35
 -16  -3   4    9.76    1.14
 -16   3   4   11.19    1.54
  16   3  -3   34.62    2.24
 -16   3   3   32.66    2.39
  16   3  -2   10.12    1.43
 -16   3   2    6.61    1.24
  16   3  -1  174.44    5.40
 -16   3   1  170.13    5.75
  16  -3   0  105.15    4.43
 -16   3   0  109.53    4.50
  16   3   0  109.44    4.24
  16   3   1   10.35    1.38
  16  -3   1    8.94    1.44
 -16   3  -1    8.07    1.31
  16   3   2    1.24    0.77
  16  -3   2    0.48    0.70
 -16   3  -2    0.06    0.79
  16   3   3   16.05    1.77
  16  -3   3   14.55    1.75
  16   3   4   15.48    1.78
  16  -3   4   17.77    1.89
  16  -3   5   23.02    2.20
  16   3   5   25.18    2.19
  16   3   6    6.01    1.32
  16  -3   6    8.39    1.38
  16   3   7   19.39    2.02
  16  -3   7   14.41    1.78
  16   3   8    0.25    0.84
  16  -3   8   -0.19    0.89
  16   3   9    1.07    1.00
  16  -3   9    0.17    0.78
  16  -3  10   22.91    2.24
  16   3  10   25.09    2.39
  16   3  11   14.59    1.90
  16  -3  11   15.29    1.88
  16   3  12   12.18    1.85
  16  -3  12    7.23    1.41
  16  -3  13    8.77    1.53
  16  -3  14    7.25    1.42
 -16  -4  26    3.24    1.17
 -16  -4  25    0.60    0.95
 -16  -4  24    6.49    1.43
 -16   4  24    6.28    1.50
 -16  -4  23   25.74    2.32
 -16   4  23   25.41    2.44
 -16  -4  22   20.47    2.11
 -16   4  22   23.21    2.32
 -16  -4  21    1.34    0.88
 -16   4  21    2.51    1.03
  16   4 -20    0.88    0.84
 -16  -4  20    0.67    0.94
 -16   4  20    0.88    0.93
  16   4 -19   10.55    1.47
 -16  -4  19   12.39    1.57
 -16   4  19   13.49    1.87
  16   4 -18   10.73    1.47
 -16   4  18    9.72    1.62
  16   4 -17   26.28    2.20
 -16   4  17   29.67    2.58
  16   4 -16    6.01    1.22
 -16   4  16    3.81    1.26
  16   4 -15    4.84    1.13
 -16   4  15    6.05    1.43
  16   4 -14   11.45    1.54
 -16   4  14   14.58    1.84
  16   4 -13   -0.64    0.77
 -16   4  13   -0.36    0.79
  16   4 -12    2.53    0.95
 -16   4  12    2.02    1.01
  16   4 -12    2.70    0.64
  16   4 -11    2.83    0.90
  16   4 -11    4.16    0.79
 -16   4  11    2.73    1.06
  16   4 -10  100.24    4.23
 -16   4  10   93.82    4.33
  16   4 -10  100.55    3.47
 -16   4   9   27.53    2.35
  16   4  -9   26.00    1.81
  16   4  -8    2.04    0.76
 -16   4   8    1.58    0.96
 -16   4   7   21.96    2.11
  16   4  -7   20.33    1.69
  16   4  -6    0.36    0.63
 -16   4   6    1.04    0.97
  16   4  -5   22.16    1.85
 -16   4   5   19.34    2.02
  16   4  -4   38.13    2.45
 -16   4   4   41.80    2.88
  16   4  -3    3.23    1.03
 -16   4   3    2.39    0.95
  16   4  -2   74.28    3.51
 -16   4   2   78.32    3.91
  16   4  -1    0.71    0.77
 -16   4   1    2.03    1.04
  16   4   0   13.06    1.60
 -16   4   0   13.85    1.86
  16   4   1   25.17    2.16
 -16   4  -1   28.40    2.42
  16   4   2    7.51    1.34
 -16   4  -2   10.89    1.65
  16   4   3    3.20    1.11
 -16   4  -3    1.66    1.06
  16   4   4   54.78    3.28
 -16   4  -4   54.35    3.39
  16   4   5    3.21    1.15
 -16   4  -5    2.54    0.88
  16   4   6   16.18    1.99
 -16   4  -6   10.96    1.67
  16   4   7    0.30    0.90
 -16   4  -7   -0.38    0.93
  16   4   8    0.98    0.96
 -16   4  -8    0.46    0.93
  16   4   9    3.73    1.12
 -16   4  -9    2.22    0.96
  16   5 -20    0.74    0.81
  16   5 -19    7.14    1.28
  16   5 -18    2.71    0.93
  16   5 -17    1.49    0.87
  16   5 -16    1.78    0.93
  16   5 -15   -0.60    0.89
  16   5 -15    0.38    0.92
  16   5 -14    4.64    1.18
 -16   5  14    3.02    1.22
  16   5 -14    2.54    0.94
  16   5 -13   15.68    1.93
 -16   5  13   13.07    1.83
  16   5 -13   12.44    1.67
  16   5 -12   27.55    2.39
 -16   5  12   29.27    2.68
  16   5 -12   27.66    2.37
  16   5 -11    2.04    0.97
 -16   5  11    5.05    1.28
  16   5 -11    4.79    1.20
  16   5 -10    1.77    1.00
 -16   5  10    1.75    1.13
  16   5  -9    1.05    0.87
 -16   5   9   -0.13    0.93
  16   5  -8    0.03    0.77
  16   5  -8   -0.09    0.67
 -16   5   8    1.69    0.87
  16   5  -7    2.44    0.95
  16   5  -7    2.15    0.80
 -16   5   7    0.54    0.90
  16   5  -6    6.91    1.27
  16   5  -6    7.20    1.24
 -16   5   6    8.54    1.57
  16   5  -5    9.96    1.50
  16   5  -5   10.62    1.46
 -16   5   5    6.32    1.40
  16   5  -4   43.83    2.64
  16   5  -4   44.87    2.82
 -16   5   4   51.17    3.41
  16   5  -3    1.21    0.83
  16   5  -3    2.44    0.96
 -16   5   3   -0.65    0.98
  16   5  -2    0.37    0.69
  16   5  -2   -0.76    0.93
 -16   5   2    0.89    1.11
  16   5  -1    5.95    1.13
  16   5  -1    4.12    1.19
 -16   5   1    8.12    1.51
  16   5   0   22.47    2.16
 -16   5   0   27.07    2.61
  16   5   1   39.92    2.86
 -16   5  -1   42.57    3.16
  16   5   2   38.83    2.82
 -16   5  -2   46.45    3.25
  16   5   3   14.09    1.84
  16   5   4   35.09    2.81
  16   5   5    8.75    1.57
  16   6 -14   18.13    2.05
  16   6 -13    7.33    1.37
  16   6 -12   21.34    2.22
  16   6 -11    2.16    1.07
  16   6 -10   18.05    2.06
  16   6  -9    1.82    1.07
  16   6  -8   69.15    3.78
  16   6  -7   38.34    2.80
  16   6  -6    7.02    1.35
  16   6  -5    1.44    1.01
  16   6  -4    4.73    1.13
  16   6  -3    4.57    1.22
  16   6  -2   74.57    3.92
  16   6  -1   64.65    3.73
  16   6   0    5.80    1.44
 -17   0  30    2.32    1.27
 -17   0  29   16.49    2.05
 -17   0  28    0.13    0.84
 -17   0  27  109.00    4.77
 -17   0  26   -0.06    0.79
 -17   0  25   98.95    3.33
 -17   0  25   88.22    4.13
 -17   0  24    0.95    0.62
 -17   0  23   12.64    1.22
 -17   0  22    3.84    0.90
 -17   0  21  244.55    5.58
 -17   0  20    0.74    0.52
 -17   0  20    0.52    0.57
 -17   0  19   63.51    2.60
 -17   0  19   61.14    2.54
 -17   0  18    0.76    0.54
 -17   0  18   -0.30    0.51
 -17   0  17    0.34    0.52
 -17   0  17    1.03    0.63
 -17   0  16    1.16    0.63
 -17   0  16    0.40    0.55
 -17   0  15   71.40    2.81
 -17   0  15   72.74    2.89
 -17   0  14    2.89    0.78
 -17   0  14    1.87    0.77
  17   0 -13  261.44    6.06
 -17   0  13  265.61    6.14
 -17   0  13  259.92    5.92
 -17   0  12    3.09    0.83
  17   0 -12    0.02    0.55
 -17   0  12    2.10    0.77
  17   0 -11  232.40    6.29
  17   0 -11  228.46    5.69
 -17   0  11  230.32    5.56
  17   0 -10    0.69    0.78
  17   0 -10    1.67    0.72
 -17   0  10    1.62    0.77
  17   0  -9   18.83    1.74
  17   0  -9   19.07    1.61
  17   0  -8    0.26    0.66
  17   0  -8    0.81    0.59
  17   0  -7   35.90    2.34
  17   0  -7   36.14    2.18
  17   0  -6    1.16    0.75
  17   0  -6    0.28    0.61
  17   0  -5   84.64    3.57
  17   0  -5   83.53    3.43
  17   0  -4   -0.51    0.63
  17   0  -4    0.93    0.72
  17   0  -3   95.14    3.78
 -17   0   3   90.27    3.00
  17   0  -3   94.98    3.73
  17   0  -2    2.06    1.03
 -17   0   2    0.48    0.42
  17   0  -2    1.20    0.82
  17   0  -1   94.38    3.74
 -17   0   1   88.82    2.83
  17   0  -1   87.29    3.69
  17   0   0    1.60    0.88
 -17   0   0    1.03    0.48
  17   0   0    1.01    0.91
  17   0   1   76.88    3.39
 -17   0  -1   74.78    2.39
  17   0   1   74.58    3.48
  17   0   2    1.61    0.85
 -17   0  -2    0.40    0.38
  17   0   2    0.47    0.76
  17   0   3   52.93    2.80
 -17   0  -3   55.25    1.84
  17   0   3   52.10    2.95
  17   0   4    0.21    0.73
  17   0   5   44.32    2.81
  17   0   6   -0.41    0.75
  17   0   7   27.10    2.29
  17   0   8    1.38    1.01
  17   0   9   20.50    2.09
  17   0  10    0.73    0.97
  17   0  11    5.32    1.29
  17   0  12   -0.26    0.82
  17   0  13   20.99    2.21
  17   0  14    0.71    0.87
  17   0  15    6.38    1.52
 -17  -1  30    6.58    1.42
 -17   1  29   16.79    1.62
 -17  -1  29   17.35    2.08
 -17   1  28    1.85    0.74
 -17  -1  28    3.07    1.09
 -17   1  27   14.59    1.50
 -17  -1  27   12.49    1.71
 -17   1  26   55.64    2.79
 -17  -1  26   52.38    3.47
 -17   1  25    1.45    0.76
 -17  -1  25    4.47    1.16
 -17   1  24   96.49    3.69
 -17  -1  24   95.40    4.17
 -17   1  23    0.80    0.74
 -17  -1  23    3.13    1.10
 -17  -1  22   88.11    2.60
 -17   1  22   86.93    3.46
 -17  -1  22   81.88    3.66
 -17   1  21   16.13    1.53
 -17  -1  21   15.75    1.08
 -17  -1  21   14.99    1.56
 -17   1  20   10.47    1.30
 -17  -1  20   12.08    0.99
 -17  -1  20   11.67    1.33
 -17   1  19   12.52    1.35
 -17  -1  19   12.98    1.02
 -17  -1  19   11.66    1.28
 -17  -1  18    0.27    0.45
 -17  -1  18    0.05    0.52
 -17  -1  18   -0.31    0.46
 -17   1  18   -0.33    0.66
 -17  -1  17   13.96    1.16
 -17  -1  17   17.52    1.54
 -17  -1  17   15.48    1.11
 -17   1  17   14.29    1.44
 -17  -1  16  121.99    3.55
 -17  -1  16  119.60    3.90
 -17  -1  16  125.54    3.42
 -17   1  16  118.99    4.03
  17   1 -16  126.49    3.58
  17   1 -15    7.86    1.26
 -17  -1  15    9.00    1.13
 -17  -1  15    7.97    0.98
  17   1 -15    5.85    0.83
 -17   1  15    7.86    1.15
 -17  -1  15    6.38    0.85
 -17  -1  14   99.03    3.26
  17   1 -14  101.58    4.09
 -17  -1  14  101.38    3.31
 -17   1  14   98.74    3.66
  17   1 -14  104.00    3.32
 -17  -1  14  101.61    3.09
  17   1 -13   36.44    2.45
 -17  -1  13   32.66    1.80
 -17  -1  13   34.38    1.91
  17   1 -13   32.53    1.86
 -17   1  13   33.93    2.13
 -17  -1  13   33.19    1.75
 -17  -1  12   55.34    2.23
  17   1 -12   54.72    2.96
 -17  -1  12   55.23    2.47
  17   1 -12   55.14    2.44
 -17   1  12   51.51    2.60
 -17  -1  12   54.82    2.30
 -17  -1  11   11.93    1.04
  17   1 -11   11.04    1.47
 -17  -1  11   12.65    1.22
  17  -1 -11    9.93    1.32
 -17   1  11    9.24    1.25
  17   1 -11   10.96    1.21
 -17  -1  11   10.30    1.08
 -17  -1  10  186.51    4.10
  17   1 -10  183.46    5.60
 -17  -1  10  183.22    4.84
  17  -1 -10  174.47    5.12
  17   1 -10  182.95    4.86
 -17   1  10  174.76    5.06
 -17  -1   9   17.70    1.11
  17   1  -9   16.35    1.71
  17  -1  -9   18.50    1.65
  17   1  -9   16.58    1.47
 -17   1   9   17.00    1.63
 -17  -1   8   93.81    2.49
  17   1  -8   92.64    3.84
 -17  -1   8   87.14    3.23
  17  -1  -8   94.29    3.71
  17   1  -8   96.14    3.46
 -17   1   8   94.32    3.65
 -17  -1   7    3.97    0.52
  17   1  -7    3.94    0.99
 -17  -1   7    3.47    0.75
  17  -1  -7    4.36    1.03
  17   1  -7    4.00    0.94
 -17   1   7    5.83    1.03
  17  -1  -6   42.61    2.47
  17   1  -6   41.09    2.56
 -17  -1   6   43.26    1.37
 -17  -1   6   45.87    2.20
  17  -1  -6   40.48    2.45
  17   1  -6   42.92    2.34
  17   1  -5    7.57    1.26
  17  -1  -5    8.19    1.22
 -17  -1   5    6.21    0.45
 -17  -1   5    6.94    0.95
  17  -1  -5    6.21    1.17
  17   1  -5    6.75    1.14
  17  -1  -4   94.44    3.67
  17   1  -4   92.59    3.85
 -17  -1   4   95.07    3.07
  17  -1  -4   90.75    3.71
  17   1  -4   95.37    3.66
  17  -1  -3    6.50    1.17
  17   1  -3    6.61    1.29
 -17  -1   3    5.22    0.80
  17   1  -3    4.86    1.05
  17  -1  -3    7.52    1.23
  17   1  -2  197.26    5.77
  17  -1  -2  196.28    5.47
 -17  -1   2  187.32    4.39
  17   1  -2  196.18    5.61
  17  -1  -2  192.60    5.72
  17  -1  -1    8.98    1.25
 -17  -1   1    8.55    0.90
  17   1  -1    9.83    1.39
  17  -1  -1   11.68    1.57
  17  -1   0  190.57    5.44
 -17   1   0  203.71    4.04
 -17  -1   0  193.21    4.21
  17   1   0  197.11    5.80
  17  -1   0  197.85    5.90
  17  -1   1   16.12    1.63
 -17   1  -1   13.87    0.92
 -17  -1  -1   11.29    0.89
  17  -1   1   17.17    1.78
  17   1   1   14.91    1.67
  17  -1   2  153.58    4.80
 -17   1  -2  153.84    3.27
 -17  -1  -2  154.29    3.32
  17   1   2  163.31    5.30
  17  -1   2  158.99    5.29
  17  -1   3   13.97    1.51
  17  -1   3   13.00    1.64
  17   1   3   11.62    1.57
  17  -1   4  108.39    3.96
  17   1   4  103.57    4.31
  17  -1   4  110.87    4.45
  17  -1   5   14.59    1.53
  17  -1   5   13.02    1.65
  17   1   5   11.26    1.59
  17  -1   6  122.21    4.23
  17   1   6  121.60    4.78
  17  -1   6  118.38    4.76
  17  -1   7    6.20    1.16
  17  -1   7    5.61    1.31
  17   1   7    5.55    1.34
  17  -1   8  104.45    3.92
  17   1   8   98.58    4.40
  17  -1   8  104.20    4.53
  17  -1   9    2.22    0.87
  17   1   9    1.60    1.08
  17  -1   9    2.96    1.16
  17  -1  10   70.71    3.21
  17   1  10   73.08    3.89
  17  -1  10   74.83    3.92
  17  -1  11    6.49    1.09
  17   1  11    3.42    1.20
  17  -1  11    3.64    1.24
  17  -1  12   60.26    3.02
  17   1  12   62.16    3.70
  17  -1  12   60.19    3.57
  17  -1  13    5.68    1.22
  17   1  13    5.81    1.35
  17  -1  13    5.38    1.41
  17  -1  14   34.53    2.33
  17   1  14   36.63    2.92
  17  -1  14   36.87    2.97
  17  -1  15    1.30    1.22
 -17   2  31    6.05    1.36
 -17   2  30   58.92    3.32
 -17  -2  29   10.45    1.66
 -17   2  29    9.78    1.56
 -17  -2  28    2.85    1.11
 -17   2  28    1.84    0.91
 -17  -2  27   36.78    2.78
 -17   2  27   31.72    2.41
 -17  -2  26    1.98    0.96
 -17   2  26    0.86    0.80
 -17  -2  25   62.81    3.47
 -17   2  25   58.17    3.17
 -17  -2  24   23.10    2.12
 -17   2  24   22.87    2.05
 -17  -2  23   25.73    2.17
 -17   2  23   21.09    1.89
 -17  -2  22   19.47    1.95
 -17   2  22   17.10    1.71
 -17  -2  21   39.09    2.49
 -17   2  21   36.26    2.44
 -17  -2  20    3.67    1.04
 -17   2  20    2.05    0.93
 -17  -2  19   10.05    1.21
 -17   2  19   10.78    1.36
 -17  -2  18    8.93    1.13
 -17   2  18    9.90    1.37
  17   2 -17   15.85    1.67
 -17  -2  17   11.41    1.19
 -17   2  17   15.69    1.65
 -17  -2  17   15.66    0.96
  17   2 -17   15.61    1.11
 -17  -2  16    3.15    0.79
  17   2 -16    2.69    0.96
 -17   2  16    2.42    0.91
  17   2 -16    2.87    0.56
 -17  -2  16    2.87    0.55
  17   2 -15   83.09    3.73
 -17  -2  15   77.40    3.02
 -17   2  15   81.72    3.56
  17   2 -15   81.16    2.71
 -17  -2  15   79.90    2.36
 -17  -2  14    1.14    0.71
  17   2 -14   -0.65    0.69
 -17   2  14   -0.07    0.66
 -17  -2  14    1.46    0.49
  17   2 -14    0.93    0.55
  17   2 -13   77.08    3.59
 -17  -2  13   76.48    2.80
 -17   2  13   72.58    3.35
  17   2 -13   75.04    2.73
 -17  -2  13   74.04    2.44
  17   2 -12    9.86    1.41
 -17  -2  12   12.69    1.15
  17   2 -12   10.53    1.08
 -17   2  12    9.51    1.28
  17   2 -11   31.75    2.33
 -17  -2  11   32.19    1.66
 -17   2  11   28.78    2.13
  17   2 -11   31.15    1.86
  17   2 -10    6.38    1.20
 -17  -2  10    7.96    0.87
 -17   2  10    7.36    1.25
  17   2 -10    8.46    1.07
 -17  -2   9  139.13    3.32
  17   2  -9  141.08    4.89
 -17   2   9  130.83    4.58
  17   2  -9  139.07    4.18
  17   2  -8   12.50    1.57
 -17  -2   8   13.25    0.90
  17   2  -8   13.51    1.35
 -17   2   8   16.07    1.66
  17   2  -7   14.51    1.67
  17   2  -7   13.52    1.37
 -17   2   7   11.80    1.49
  17   2  -6    1.22    0.87
 -17  -2   6    1.86    0.70
  17  -2  -6    1.05    0.84
  17   2  -6    0.69    0.58
 -17   2   6    1.49    0.81
 -17  -2   5   27.94    1.70
  17  -2  -5   29.77    2.26
  17   2  -5   31.54    2.08
 -17   2   5   29.10    2.21
 -17  -2   4    2.02    0.67
  17  -2  -4    0.66    0.72
  17   2  -4    1.27    0.72
 -17   2   4   -0.20    0.76
 -17  -2   3   66.21    2.54
  17  -2  -3   63.35    3.27
  17   2  -3   65.27    3.08
 -17   2   3   67.96    3.33
 -17  -2   2    2.39    0.63
  17   2  -2    2.13    0.83
  17  -2  -2    3.14    1.00
 -17  -2   1   52.92    2.14
  17  -2  -1   58.02    3.17
  17   2  -1   54.25    2.90
 -17  -2   0    9.97    0.95
  17   2   0   11.09    1.43
  17  -2   0   12.29    1.56
 -17   2  -1   60.12    2.42
  17   2   1   60.51    3.15
  17  -2   1   58.54    3.23
  17  -2   2   15.72    1.49
  17   2   2   11.12    1.49
  17  -2   2   13.82    1.73
  17  -2   3   50.33    2.55
  17  -2   3   47.26    2.94
  17   2   3   47.59    2.88
  17  -2   4   14.92    1.45
  17   2   4   15.06    1.74
  17  -2   4   14.68    1.75
  17  -2   5   31.57    2.02
  17  -2   5   29.89    2.49
  17   2   5   31.73    2.47
  17  -2   6    9.10    1.20
  17   2   6    9.70    1.50
  17  -2   6   10.18    1.53
  17  -2   7   27.24    1.86
  17  -2   7   25.36    2.26
  17   2   7   26.94    2.34
  17  -2   8    4.19    0.91
  17   2   8    4.81    1.24
  17  -2   8    2.90    1.09
  17  -2   9   25.30    1.81
  17  -2   9   24.74    2.32
  17   2   9   22.93    2.29
  17  -2  10    5.53    0.95
  17   2  10    4.71    1.19
  17  -2  10    6.43    1.28
  17   2  11   11.79    1.82
  17  -2  11   12.71    1.77
  17   2  12    4.00    1.35
  17  -2  12    6.38    1.42
  17  -2  13   29.31    2.60
  17  -2  14    9.03    1.64
 -17   3  30   25.10    2.45
 -17   3  29   19.04    2.12
 -17  -3  28   32.21    2.77
 -17   3  28   29.95    2.66
 -17  -3  27   32.99    2.70
 -17   3  27   30.92    2.59
 -17  -3  26   15.70    1.89
 -17   3  26   12.66    1.71
 -17  -3  25   40.63    2.85
 -17   3  25   36.78    2.76
 -17  -3  24   37.80    2.70
 -17   3  24   40.54    2.83
 -17  -3  23    5.28    1.16
 -17   3  23    5.11    1.23
 -17  -3  22   48.07    2.92
 -17   3  22   49.29    3.05
 -17  -3  21    1.18    0.78
 -17   3  21    0.54    1.48
 -17  -3  20   32.57    2.32
 -17   3  20   33.36    2.53
  17   3 -19   79.32    3.77
 -17  -3  19   75.04    3.44
 -17   3  19   79.65    3.87
  17   3 -18   33.48    2.45
 -17  -3  18   34.17    2.22
 -17   3  18   31.02    2.41
  17   3 -17   11.17    1.53
 -17  -3  17   10.88    1.30
 -17   3  17   11.95    1.65
  17   3 -16  102.24    4.28
 -17  -3  16  104.60    3.74
 -17   3  16   98.20    4.24
 -17  -3  15    2.33    0.67
  17   3 -15    2.88    1.01
 -17   3  15    4.05    1.13
  17   3 -15    2.73    0.60
  17   3 -14   94.38    4.13
 -17  -3  14   97.17    3.41
 -17   3  14   96.01    4.16
  17   3 -14   98.22    3.06
 -17  -3  13   22.08    1.53
  17   3 -13   23.63    2.13
 -17   3  13   26.21    2.26
  17   3 -13   24.75    1.54
  17   3 -12  116.09    4.58
 -17   3  12  116.70    4.58
  17   3 -12  114.71    3.56
  17   3 -11   25.86    2.21
 -17   3  11   32.20    2.48
  17   3 -11   28.89    1.80
  17   3 -10   84.94    3.93
 -17   3  10   81.88    3.82
  17   3 -10   85.97    3.20
  17   3  -9   10.75    1.57
  17   3  -9   10.91    1.22
 -17   3   9   12.06    1.61
  17   3  -8  139.06    5.02
 -17  -3   8  129.97    3.75
 -17   3   8  143.43    5.12
  17   3  -8  143.31    4.38
 -17  -3   7   15.15    1.30
 -17   3   7   18.56    1.89
  17   3  -7   17.51    1.57
 -17  -3   6   66.07    2.72
  17   3  -6   72.08    3.16
 -17   3   6   73.32    3.61
  17   3  -5   10.84    1.38
 -17   3   5   12.61    1.58
  17   3  -4   42.24    2.53
 -17   3   4   44.23    2.81
  17   3  -3    4.23    1.11
 -17   3   3    6.89    1.42
 -17   3   2   58.16    3.30
  17   3  -2   56.88    3.02
  17   3  -1    7.23    1.28
 -17   3   1    5.02    1.22
  17  -3   0   60.82    3.41
  17   3   0   60.34    3.24
 -17   3   0   62.29    3.48
  17  -3   1   25.52    2.33
  17   3   1   21.23    2.00
 -17   3  -1   24.90    2.22
  17  -3   2   31.60    2.51
  17   3   2   31.08    2.40
 -17   3  -2   36.87    2.70
  17   3   3   18.74    1.94
  17  -3   3   25.05    2.27
  17  -3   4   25.61    2.33
  17   3   4   26.82    2.29
  17   3   5    9.73    1.54
  17  -3   5    9.23    1.50
  17   3   6   11.28    1.64
  17  -3   6   11.18    1.66
  17   3   7    1.29    0.93
  17  -3   7    1.23    0.83
  17   3   8    4.66    1.27
  17  -3   8    1.51    0.85
  17   3   9    3.11    1.25
  17  -3   9    1.28    1.00
  17   3  10    7.82    1.66
  17  -3  10    8.17    1.50
  17  -3  11    4.85    1.26
  17  -3  12   12.45    1.88
 -17  -4  25   19.40    2.16
 -17  -4  24    1.26    0.96
 -17  -4  23   72.46    3.85
 -17   4  23   70.83    3.97
 -17  -4  22   64.38    3.55
 -17   4  22   69.81    3.94
 -17  -4  21    6.68    1.40
 -17   4  21    4.95    1.33
  17   4 -20    9.79    1.49
 -17  -4  20   13.33    1.69
 -17   4  20   10.36    1.67
  17   4 -19   16.79    1.86
 -17   4  19   21.58    2.23
  17   4 -18    5.60    1.22
 -17   4  18    7.75    1.50
  17   4 -17   42.94    2.83
 -17   4  17   39.99    2.92
  17   4 -16   46.43    3.00
 -17   4  16   52.17    3.29
  17   4 -15   25.26    2.26
 -17   4  15   24.33    2.26
  17   4 -14   36.21    2.64
 -17   4  14   40.66    2.89
  17   4 -13    8.31    1.43
 -17   4  13    8.02    1.50
  17   4 -12   16.53    1.84
 -17   4  12   21.26    2.20
  17   4 -12   19.92    1.47
  17   4 -11   17.98    1.96
 -17   4  11   19.90    2.06
  17   4 -11   19.81    1.55
  17   4 -10   16.43    1.83
 -17   4  10   17.99    2.04
  17   4 -10   18.75    1.55
  17   4  -9   54.83    3.24
 -17   4   9   62.00    3.51
  17   4  -9   58.58    2.79
 -17   4   8   57.34    3.40
  17   4  -8   50.73    2.67
  17   4  -7   16.68    1.60
 -17   4   7   13.85    1.83
  17   4  -6   14.90    1.59
 -17   4   6   14.67    1.88
  17   4  -5    5.74    1.05
 -17   4   5    6.90    1.40
  17   4  -4    0.42    0.72
 -17   4   4    0.45    0.87
  17   4  -3   10.74    1.44
 -17   4   3   13.77    1.79
  17   4  -2    4.59    1.07
 -17   4   2    5.60    1.30
  17   4  -1   18.51    1.91
 -17   4   1   18.68    2.03
  17   4   0   13.65    1.71
 -17   4   0   13.64    1.87
  17   4   1   11.37    1.58
 -17   4  -1   11.55    1.69
  17   4   2    8.30    1.45
 -17   4  -2    9.63    1.58
  17   4   3    7.53    1.41
 -17   4  -3    8.88    1.58
  17   4   4    1.96    1.00
 -17   4  -4    0.24    0.97
  17   4   5    8.21    1.51
 -17   4  -5    7.65    1.43
  17   4   6   -0.35    0.82
 -17   4  -6   -0.12    1.04
  17   4   7    3.60    1.21
  17   5 -20   22.78    2.17
  17   5 -19   29.15    2.45
  17   5 -18   -1.04    0.93
  17   5 -17   41.19    2.87
  17   5 -16    0.36    1.09
  17   5 -15    8.73    1.50
  17   5 -14    5.53    1.24
  17   5 -13   23.06    2.22
  17   5 -12   21.91    2.20
  17   5 -11   59.99    3.52
  17   5 -10    7.83    1.40
  17   5  -7    6.76    1.18
  17   5  -6   25.89    2.14
  17   5  -5    6.56    1.21
  17   5  -4   26.38    2.25
  17   5  -3   13.82    1.69
  17   5  -2   21.06    2.09
  17   5  -1   12.70    1.74
  17   5   0   26.42    2.40
  17   5   1    9.70    1.55
  17   5   2   29.89    2.54
  17   5   3   10.97    1.72
  17   6  -9    5.57    1.36
  17   6  -8    5.31    1.29
  17   6  -7   14.48    1.87
  17   6  -6   16.37    1.95
 -18   0  30   -0.36    0.98
 -18   0  29   -1.02    1.10
 -18   0  28    7.35    1.45
 -18   0  27   -0.36    0.84
 -18   0  26   29.21    2.45
 -18   0  25    0.33    0.56
 -18   0  25    0.88    0.86
 -18   0  24   46.80    2.24
 -18   0  24   44.63    2.86
 -18   0  23    0.88    0.66
 -18   0  22   12.95    1.27
 -18   0  21   -0.22    0.57
 -18   0  20   27.27    1.76
 -18   0  19   -0.99    0.63
 -18   0  19   -0.13    0.58
 -18   0  18   81.81    3.07
 -18   0  18   79.17    3.07
 -18   0  17    0.29    0.52
 -18   0  17   -0.45    0.62
 -18   0  16    2.18    0.71
 -18   0  15    0.33    0.54
  18   0 -14   23.45    1.70
 -18   0  14   24.30    1.69
  18   0 -13    0.33    0.61
 -18   0  13   -0.20    0.56
  18   0 -12   40.30    2.24
 -18   0  12   38.15    2.14
  18   0 -11    0.40    0.71
  18   0 -11    0.01    0.60
 -18   0  11    0.44    0.61
  18   0 -10   72.43    3.37
  18   0 -10   68.33    3.02
 -18   0  10   70.62    2.97
  18   0  -9    0.30    0.67
  18   0  -9   -0.59    0.59
  18   0  -8   56.95    3.00
  18   0  -8   58.33    2.82
  18   0  -7   -0.10    0.67
  18   0  -7    0.01    0.71
  18   0  -6   30.57    2.18
 -18   0   6   30.06    1.82
  18   0  -6   30.09    2.10
  18   0  -5   -0.24    0.73
 -18   0   5   -0.59    0.47
  18   0  -5    0.32    0.66
  18   0  -4   26.55    2.04
 -18   0   4   23.84    1.58
  18   0  -4   24.61    1.99
  18   0  -3    0.26    0.69
 -18   0   3    0.60    0.24
 -18   0   3   -0.12    0.45
  18   0  -3   -0.05    0.64
  18   0  -2    1.75    0.90
 -18   0   2    0.53    0.16
 -18   0   2    1.05    0.19
 -18   0   2    0.03    0.43
  18   0  -2    0.56    0.74
  18   0  -1    1.20    0.90
 -18   0   1    0.05    0.40
  18   0  -1    0.12    0.68
  18   0   0   50.84    2.83
 -18   0   0   52.47    2.09
  18   0   0   52.85    2.95
  18   0   1    0.65    0.77
  18   0   1    0.35    0.77
  18   0   2    3.15    0.95
  18   0   2    2.07    0.82
  18   0   3   -0.11    0.77
  18   0   3    0.74    0.82
  18   0   4    2.15    0.92
  18   0   4    0.63    0.74
  18   0   5   -0.03    0.77
  18   0   5    1.11    0.93
  18   0   6   -0.24    0.82
  18   0   7   -0.53    0.82
  18   0   8    3.27    1.07
  18   0   9   -0.81    0.95
  18   0  10    3.62    1.15
  18   0  11    0.97    1.02
  18   0  12   35.39    2.86
  18   0  13    0.43    0.89
 -18  -1  30    3.17    1.20
 -18  -1  29    1.07    0.93
 -18  -1  28    1.80    0.91
 -18   1  28    1.70    0.85
 -18  -1  27    1.35    1.00
 -18   1  27    0.17    0.73
 -18  -1  26   14.91    1.85
 -18   1  26   14.78    1.61
 -18  -1  25    1.44    0.87
 -18   1  25    0.67    0.65
 -18  -1  24    0.25    0.78
 -18   1  24    0.34    0.66
 -18  -1  23   24.73    2.06
 -18   1  23   23.99    1.84
 -18  -1  22    5.58    1.02
 -18   1  22    6.77    1.11
 -18  -1  21    4.87    1.00
 -18   1  21    4.17    0.91
 -18  -1  21    5.71    0.76
 -18  -1  20   26.65    1.97
 -18  -1  20   27.88    1.50
 -18   1  20   28.89    2.00
 -18  -1  19    2.86    0.76
 -18  -1  19    3.66    0.61
 -18   1  19    3.33    0.93
 -18   1  18    0.20    0.68
 -18  -1  18   -0.35    0.58
 -18  -1  17    2.01    0.75
 -18  -1  17    0.86    0.49
 -18   1  17    1.52    0.79
 -18  -1  17   -0.49    0.56
 -18  -1  16   70.17    2.73
 -18  -1  16   77.25    3.03
 -18  -1  16   78.17    2.72
 -18   1  16   69.95    3.11
  18   1 -16   78.95    2.87
 -18  -1  15   56.65    2.48
  18   1 -15   59.26    3.16
 -18  -1  15   58.74    2.56
 -18   1  15   58.70    2.84
  18   1 -15   59.06    2.50
 -18  -1  15   61.22    2.41
  18   1 -14    7.91    1.33
 -18  -1  14    7.81    0.95
 -18  -1  14    6.62    0.96
  18   1 -14    9.01    1.10
 -18   1  14    6.61    1.06
 -18  -1  14    7.26    0.91
 -18  -1  13   16.22    1.26
  18   1 -13   16.52    1.69
 -18  -1  13   15.47    1.34
  18   1 -13   15.16    1.33
 -18  -1  13   15.30    1.27
 -18   1  13   16.48    1.56
  18   1 -12   11.01    1.44
 -18  -1  12   11.85    1.05
  18   1 -12   12.11    1.24
 -18   1  12   10.97    1.29
 -18  -1  12   10.93    1.14
 -18  -1  11   13.83    1.09
  18   1 -11   14.34    1.62
  18  -1 -11   13.00    1.48
 -18  -1  11   15.55    1.31
 -18   1  11   12.90    1.44
  18   1 -11   14.41    1.38
 -18  -1  10  241.14    4.83
  18   1 -10  245.27    6.67
  18  -1 -10  231.57    6.20
  18   1 -10  235.53    5.83
 -18   1  10  232.63    6.10
 -18  -1   9   52.25    1.87
  18   1  -9   49.19    2.88
  18  -1  -9   53.81    2.82
  18   1  -9   48.13    2.50
 -18   1   9   51.90    2.75
  18   1  -8   21.63    1.91
 -18  -1   8   23.21    1.14
  18  -1  -8   21.55    1.81
  18   1  -8   20.23    1.61
 -18   1   8   22.30    1.89
 -18  -1   7    3.94    0.49
  18   1  -7    2.36    0.88
 -18  -1   7    3.43    0.73
  18  -1  -7    4.10    1.00
  18   1  -7    3.62    0.91
 -18   1   7    4.39    0.98
  18  -1  -6   55.59    2.89
 -18  -1   6   53.34    1.44
  18   1  -6   53.29    2.92
 -18  -1   6   51.05    2.37
  18  -1  -6   55.08    2.91
  18   1  -6   52.93    2.69
  18   1  -5    0.81    0.82
  18  -1  -5    1.05    0.82
 -18  -1   5    1.25    0.53
  18  -1  -5    0.99    0.83
  18   1  -5    1.26    0.75
  18  -1  -4   46.97    2.63
  18   1  -4   49.67    2.85
 -18  -1   4   48.24    2.18
  18  -1  -4   49.04    2.75
  18   1  -4   46.32    2.61
  18  -1  -3    2.47    0.75
  18   1  -3    2.74    0.97
 -18  -1   3    4.06    0.73
  18   1  -3    2.75    0.88
  18  -1  -3    2.77    0.90
  18  -1  -2   95.01    3.76
  18   1  -2   92.28    3.94
 -18  -1   2   92.54    2.93
  18   1  -2   94.95    3.88
  18  -1  -2   90.18    3.90
  18   1  -1   59.09    3.13
  18  -1  -1   57.78    2.92
 -18  -1   1   52.26    2.09
  18   1  -1   55.64    3.01
  18  -1  -1   58.43    3.14
  18  -1   0  107.14    4.00
  18   1   0  104.35    4.21
  18  -1   0  108.23    4.34
  18  -1   1   56.97    2.92
  18   1   1   55.65    3.07
  18  -1   1   59.32    3.20
  18  -1   2   15.41    1.58
  18  -1   2   12.08    1.61
  18   1   2   14.91    1.71
  18  -1   3    9.50    1.31
  18  -1   3    9.68    1.42
  18   1   3    8.72    1.36
  18  -1   4   19.84    1.76
  18  -1   4   18.25    1.88
  18   1   4   17.81    1.93
  18  -1   5    6.71    1.14
  18   1   5    5.58    1.22
  18  -1   5    5.00    1.21
  18  -1   6   40.68    2.48
  18   1   6   38.58    2.75
  18  -1   6   39.35    2.74
  18  -1   7   34.56    2.28
  18   1   7   31.94    2.60
  18  -1   7   36.89    2.73
  18  -1   8   22.78    1.87
  18   1   8   25.48    2.31
  18  -1   8   27.26    2.39
  18  -1   9    3.48    1.09
  18   1   9    2.97    1.10
  18  -1   9    3.68    1.05
  18  -1  10    3.44    0.95
  18   1  10    5.66    1.33
  18  -1  10    4.85    1.32
  18  -1  11    4.24    1.04
  18  -1  11    2.94    1.03
  18   1  11    5.62    1.32
  18  -1  12    3.61    0.92
  18  -1  12    7.06    1.49
  18   1  12    5.79    1.46
  18  -1  13    1.69    0.79
 -18   2  30   -0.13    0.88
 -18  -2  29    6.11    1.42
 -18   2  29    5.30    1.06
 -18  -2  28    1.92    0.96
 -18   2  28   -0.30    0.85
 -18  -2  27    1.12    0.97
 -18   2  27   -1.14    0.79
 -18  -2  26    5.12    1.17
 -18   2  26    3.23    0.98
 -18  -2  25    8.88    1.50
 -18   2  25    7.31    1.32
 -18  -2  24   31.09    2.41
 -18   2  24   23.54    2.07
 -18  -2  23    3.91    1.25
 -18   2  23    1.86    0.91
 -18  -2  22    2.25    0.89
 -18   2  22    1.72    0.80
 -18  -2  21   43.32    2.61
 -18   2  21   44.15    2.70
 -18  -2  20   12.61    1.40
 -18   2  20   12.50    1.53
 -18  -2  19   12.16    1.31
 -18   2  19   12.18    1.49
 -18  -2  18   38.03    2.22
 -18   2  18   36.94    2.47
 -18  -2  17    0.82    0.55
  18   2 -17   -1.48    0.90
 -18   2  17    0.74    0.77
  18   2 -17    0.34    0.39
 -18  -2  16   11.59    1.27
  18   2 -16    9.00    1.37
 -18  -2  16   11.57    0.94
 -18   2  16   10.14    1.44
  18   2 -16    9.75    0.96
  18   2 -15    9.21    1.38
 -18  -2  15   14.88    1.38
 -18  -2  15   10.92    0.93
 -18   2  15   12.35    1.49
  18   2 -15   10.49    1.01
  18   2 -14   21.58    1.97
 -18  -2  14   25.02    1.65
 -18   2  14   22.98    1.95
  18   2 -14   24.71    1.59
 -18  -2  14   25.05    1.40
 -18  -2  13    2.45    0.75
  18   2 -13   -0.40    0.90
  18   2 -13    1.46    0.60
 -18   2  13    1.65    0.83
 -18  -2  13    1.77    0.55
  18   2 -12  123.52    4.73
 -18  -2  12  124.74    3.49
 -18   2  12  116.30    4.41
  18   2 -12  122.35    3.81
  18   2 -11    7.42    1.29
 -18  -2  11    7.48    0.84
  18   2 -11    6.95    0.98
 -18   2  11    8.86    1.30
 -18  -2  10   31.07    1.51
  18   2 -10   29.76    2.31
 -18   2  10   27.69    2.15
  18   2 -10   28.96    1.89
 -18  -2   9   20.71    1.16
  18   2  -9   22.31    2.05
 -18   2   9   17.36    1.70
  18   2  -9   21.41    1.66
  18   2  -8  140.66    5.01
 -18   2   8  132.50    4.74
  18   2  -8  131.23    4.27
  18   2  -7   63.05    3.33
  18   2  -7   59.34    2.87
 -18   2   7   63.66    3.23
  18  -2  -7   66.18    3.37
  18   2  -6    5.52    1.20
  18  -2  -6    5.82    1.24
  18   2  -6    5.08    0.99
 -18   2   6    5.33    1.15
  18   2  -5    0.12    0.77
 -18  -2   5   -0.40    0.60
  18  -2  -5   -1.93    0.99
  18   2  -5   -0.21    0.69
 -18   2   5    0.24    0.69
 -18  -2   4   78.35    2.91
  18  -2  -4   78.93    3.72
  18   2  -4   77.05    3.43
 -18   2   4   83.95    3.79
 -18  -2   3    4.35    0.80
  18  -2  -3    2.61    1.09
  18   2  -3    3.03    0.91
 -18   2   3    2.71    1.01
  18  -2  -2  144.77    5.15
  18   2  -2  142.16    4.86
  18  -2  -1   21.26    2.09
  18   2  -1   18.91    1.83
  18  -2   0   28.37    2.34
  18   2   0   29.05    2.22
  18   2   1    1.12    0.87
  18  -2   1    0.71    0.91
  18  -2   2   85.37    4.08
  18   2   2   88.81    4.00
  18  -2   3   27.38    1.95
  18  -2   3   27.81    2.40
  18   2   3   25.49    2.17
  18  -2   4   67.30    3.06
  18  -2   4   67.57    3.65
  18   2   4   69.30    3.64
  18  -2   5   12.42    1.39
  18   2   5    8.32    1.41
  18  -2   5   10.70    1.70
  18  -2   6   23.54    1.85
  18   2   6   24.58    2.23
  18  -2   6   25.26    2.31
  18  -2   7    1.92    0.79
  18   2   7    2.82    1.18
  18  -2   7    0.48    0.81
  18  -2   8   18.80    1.61
  18   2   8   22.37    2.22
  18  -2   8   23.25    2.29
  18  -2   9    2.53    0.71
  18   2   9    1.32    0.98
  18  -2   9    2.54    1.08
  18   2  10   15.94    2.00
  18  -2  10   16.11    1.98
  18  -2  11    0.93    0.96
 -18   3  29   -0.24    1.09
 -18   3  28   -1.02    1.12
 -18  -3  27    6.04    1.36
 -18   3  27    6.29    1.45
 -18  -3  26    0.22    0.89
 -18   3  26    0.60    0.92
 -18  -3  25   -0.28    0.95
 -18   3  25    0.60    0.87
 -18  -3  24    2.42    0.96
 -18   3  24    1.02    0.86
 -18  -3  23   -0.52    0.80
 -18   3  23   -0.76    0.89
 -18  -3  22    1.51    0.83
 -18   3  22   -0.37    0.87
 -18  -3  21    1.31    0.78
 -18   3  21   -0.42    0.81
 -18  -3  20   18.29    1.76
 -18   3  20   19.51    2.01
  18   3 -19   12.46    1.64
 -18  -3  19   11.67    1.39
 -18   3  19   12.16    1.66
  18   3 -18   30.88    2.43
 -18  -3  18   29.30    2.07
 -18   3  18   27.00    2.30
  18   3 -17   15.38    1.76
 -18  -3  17   13.26    1.36
 -18   3  17   13.31    1.74
  18   3 -16    1.66    1.01
 -18  -3  16   -0.25    0.63
 -18   3  16   -1.29    1.00
 -18  -3  15   -0.80    0.60
  18   3 -15    1.19    0.90
 -18   3  15    0.97    0.94
  18   3 -14    1.45    0.80
 -18  -3  14   -0.28    0.71
  18   3 -14    2.50    0.58
 -18   3  14    1.55    0.91
  18   3 -13    9.83    1.48
 -18   3  13    9.81    1.50
  18   3 -13    7.94    0.97
  18   3 -12    0.74    0.76
 -18   3  12    0.87    0.90
  18   3 -12    1.15    0.58
  18   3 -11   97.72    4.28
 -18   3  11   98.24    4.30
  18   3 -11   98.62    3.48
  18   3 -10   13.00    1.70
  18   3 -10   12.83    1.30
 -18   3  10   13.89    1.73
  18   3  -9    0.64    0.78
 -18   3   9    0.58    0.83
  18   3  -9    1.23    0.70
  18   3  -8   22.38    2.14
  18   3  -8   16.98    1.58
 -18   3   8   17.57    1.89
  18   3  -7    8.63    1.42
  18   3  -7   10.20    1.28
 -18   3   7    8.33    1.44
  18   3  -6    3.32    0.90
 -18   3   6    6.23    1.32
 -18   3   5   37.15    2.69
  18   3  -5   35.28    2.32
  18   3  -4   12.35    1.49
 -18   3   4   12.11    1.70
  18   3  -3    1.83    0.83
 -18   3   3    1.76    1.04
  18   3  -2   12.31    1.54
 -18   3   2   12.49    1.72
  18   3  -1    4.05    1.02
  18  -3  -1    1.24    0.81
 -18   3   1    3.14    1.19
  18   3   0   -0.82    0.73
  18  -3   0    0.20    0.98
 -18   3   0    0.98    1.05
  18   3   1   20.00    1.98
  18  -3   1   17.38    1.95
 -18   3  -1   20.52    2.11
  18  -3   2   42.51    3.03
  18   3   2   40.65    2.84
 -18   3  -2   44.89    3.01
  18  -3   3   42.24    2.98
  18   3   3   41.26    2.85
 -18   3  -3   39.37    2.92
  18   3   4   18.18    2.04
  18  -3   4   18.28    2.06
  18   3   5   12.96    1.74
  18  -3   5   12.59    1.73
  18   3   6   12.47    1.71
  18  -3   6   10.14    1.64
  18   3   7    0.83    0.94
  18  -3   7    0.20    0.81
  18   3   8    0.19    1.04
  18  -3   8   -0.71    1.06
  18  -3   9    4.72    1.32
 -18  -4  25    4.14    1.18
 -18  -4  24   12.16    1.72
 -18  -4  23   10.46    1.64
 -18  -4  22   32.12    2.61
 -18  -4  21    9.57    1.54
 -18   4  21    3.24    1.16
  18   4 -20    2.18    1.02
 -18   4  20    1.10    0.92
  18   4 -19   -0.22    0.77
 -18   4  19    0.38    0.94
  18   4 -18   25.47    2.32
 -18   4  18   27.32    2.52
  18   4 -17    2.37    0.90
 -18   4  17    3.48    1.25
  18   4 -16   25.87    2.35
 -18   4  16   24.73    2.41
  18   4 -15   -0.22    0.85
 -18   4  15   -0.32    0.91
  18   4 -14   32.63    2.56
 -18   4  14   32.28    2.69
  18   4 -13    5.62    1.29
 -18   4  13    6.47    1.40
  18   4 -12   10.32    1.59
 -18   4  12   11.10    1.66
  18   4 -11   -0.60    0.94
 -18   4  11    0.58    0.90
  18   4 -11    1.39    0.64
  18   4 -10   17.44    1.98
 -18   4  10   18.92    2.07
  18   4 -10   17.70    1.56
  18   4  -9    1.89    0.95
 -18   4   9    1.73    0.99
  18   4  -9    4.10    1.00
 -18   4   8   76.60    4.05
  18   4  -8   83.72    3.50
  18   4  -7    9.89    1.36
 -18   4   7   11.36    1.67
  18   4  -6   12.66    1.50
 -18   4   6   12.45    1.77
  18   4  -5    2.39    0.86
 -18   4   5    3.40    1.24
  18   4  -4    4.30    1.04
 -18   4   4    7.58    1.48
  18   4  -3   15.44    1.73
 -18   4   3   18.21    2.07
  18   4  -2   17.84    1.89
 -18   4   2   18.37    2.10
  18   4  -1    0.27    0.73
 -18   4   1    0.08    0.84
  18   4   0   43.56    2.95
 -18   4   0   45.11    3.13
 -18   4  -1   28.33    2.55
  18   4   1   28.36    2.45
  18   4   2    9.71    1.58
 -18   4  -2   10.51    1.71
  18   4   3    0.56    0.83
 -18   4  -3    1.15    1.02
  18   4   4    1.13    1.02
  18   4   5   -0.30    0.89
  18   5 -20    6.79    1.39
  18   5 -19   17.50    2.01
  18   5 -18    2.94    1.08
  18   5 -17   -1.00    0.90
  18   5 -16   19.55    2.11
  18   5 -15    7.10    1.45
  18   5 -14   -0.99    0.96
  18   5 -13    4.98    1.28
  18   5 -12    6.85    1.41
  18   5 -11    1.67    0.97
  18   5 -10   19.41    2.13
  18   5  -6   -0.02    0.70
  18   5  -5    0.67    0.82
  18   5  -4    4.36    1.09
  18   5  -3    2.03    0.99
  18   5  -2   42.89    2.96
  18   5  -1    4.09    1.28
  18   5   0   27.49    2.47
  18   5   1    6.79    1.50
 -19   0  29    5.01    1.31
 -19   0  28   -1.35    0.90
 -19   0  27   31.92    2.64
 -19   0  26    2.14    1.02
 -19   0  25   72.29    3.72
 -19   0  24    0.53    0.79
 -19   0  24    2.71    0.84
 -19   0  23  131.36    4.93
 -19   0  23  141.32    4.18
 -19   0  22    2.08    0.75
 -19   0  21  100.80    3.52
 -19   0  20    0.71    0.64
 -19   0  19    2.15    0.69
 -19   0  18    0.78    0.61
 -19   0  17   79.62    3.11
 -19   0  16    2.13    0.71
 -19   0  15   53.50    2.58
  19   0 -14    2.61    0.80
 -19   0  14    1.36    0.74
  19   0 -13  111.93    3.97
 -19   0  13  113.92    3.89
  19   0 -12    1.23    0.73
 -19   0  12    0.63    0.65
  19   0 -11  181.60    5.77
  19   0 -11  179.81    5.22
 -19   0  11  174.83    5.06
  19   0 -10    1.79    0.88
  19   0 -10    1.64    0.90
 -19   0  10    2.34    0.81
  19   0  -9   92.33    3.97
  19   0  -9   93.09    3.73
 -19   0   9   87.36    3.51
  19   0  -8    0.91    0.87
  19   0  -8    1.06    0.80
  19   0  -7   32.01    2.34
  19   0  -7   31.30    2.18
  19   0  -6   -0.09    0.71
  19   0  -6    0.52    0.71
  19   0  -5   22.56    2.03
 -19   0   5   23.36    1.05
 -19   0   5   22.43    1.59
  19   0  -5   22.24    1.89
  19   0  -4    0.05    0.74
 -19   0   4    1.09    0.31
 -19   0   4    1.29    0.62
  19   0  -4    1.10    0.87
  19   0  -3   78.12    3.64
 -19   0   3   72.22    2.77
  19   0  -3   78.11    3.60
  19   0  -2    0.34    0.70
 -19   0   2    0.95    0.54
  19   0  -2   -0.95    0.81
  19   0  -1   85.08    3.82
  19   0  -1   86.09    3.92
  19   0   0    2.00    0.97
  19   0   0    0.65    0.89
  19   0   1   47.37    2.84
  19   0   1   48.16    2.96
  19   0   2    1.20    0.74
  19   0   2    0.40    0.81
  19   0   3   21.76    1.93
  19   0   3   23.80    2.19
  19   0   4    0.60    0.79
  19   0   4   -0.34    0.79
  19   0   5   15.26    1.70
  19   0   5   15.88    1.88
  19   0   6    0.21    0.82
  19   0   6    0.82    0.83
  19   0   7   15.57    1.76
  19   0   7   17.06    2.02
  19   0   8    0.11    0.92
  19   0   9    4.21    1.20
  19   0  10   -0.45    1.12
 -19  -1  29    2.53    1.05
 -19  -1  28   47.60    3.18
 -19  -1  27    1.50    1.01
 -19   1  27    1.95    0.85
 -19  -1  26   27.51    2.39
 -19   1  26   27.90    2.10
 -19  -1  25   11.39    1.57
 -19   1  25   15.08    1.64
 -19  -1  24   56.01    3.17
 -19   1  24   52.87    2.79
 -19  -1  23    5.76    1.16
 -19   1  23    5.27    1.03
 -19  -1  22  186.66    5.76
 -19   1  22  192.67    5.55
 -19  -1  21   12.15    1.48
 -19   1  21    7.70    1.20
 -19  -1  20   54.31    2.83
 -19  -1  20   57.99    2.28
 -19   1  20   57.20    2.88
 -19  -1  19    7.16    1.11
 -19  -1  19    5.15    0.69
 -19   1  19    8.21    1.24
 -19  -1  18    5.09    0.94
 -19   1  18    6.15    1.07
 -19  -1  18    4.70    0.66
 -19  -1  17    3.10    0.86
 -19   1  17    2.74    0.89
 -19  -1  17    3.13    0.77
 -19  -1  16   61.22    2.72
 -19   1  16   59.16    2.95
 -19  -1  16   62.21    2.53
  19   1 -16   60.70    2.63
  19   1 -15    2.19    1.10
 -19  -1  15    1.93    0.75
  19   1 -15    1.96    0.74
 -19   1  15    1.47    0.82
 -19  -1  15    1.95    0.65
  19   1 -14  183.38    5.93
 -19  -1  14  176.84    4.57
  19   1 -14  182.38    4.94
 -19   1  14  176.41    5.30
 -19  -1  14  180.70    4.66
  19   1 -13    4.13    1.12
 -19  -1  13    7.29    0.94
  19   1 -13    4.89    0.92
 -19   1  13    4.87    1.05
 -19  -1  13    3.07    0.76
 -19  -1  12  184.00    4.37
  19   1 -12  181.20    5.86
  19   1 -12  178.60    5.02
 -19   1  12  172.67    5.27
 -19  -1  12  182.50    4.84
 -19  -1  11    6.19    0.84
  19   1 -11    5.60    1.21
  19  -1 -11    8.79    1.37
 -19   1  11    8.08    1.28
  19   1 -11    4.92    0.95
 -19  -1  11    6.12    1.01
 -19  -1  10   95.77    2.73
  19   1 -10   98.74    4.61
  19  -1 -10   96.69    3.92
  19   1 -10   94.37    3.62
 -19   1  10   89.54    3.72
 -19  -1   9    2.75    0.57
  19   1  -9    3.11    1.05
  19   1  -9    1.60    0.76
  19  -1  -9    2.47    0.87
 -19   1   9    3.55    0.99
  19   1  -8  114.37    4.56
 -19  -1   8  110.82    2.64
  19  -1  -8  116.60    4.36
  19   1  -8  110.69    4.03
 -19   1   8  112.77    4.27
  19   1  -7    6.65    1.26
 -19  -1   7    8.43    0.61
  19   1  -7    7.70    1.20
  19  -1  -7    9.15    1.39
 -19   1   7   10.98    1.44
  19  -1  -6   56.44    3.03
  19   1  -6   57.76    3.21
  19  -1  -6   53.72    2.98
  19   1  -6   59.00    3.01
  19  -1  -5    4.74    1.08
  19   1  -5    4.13    1.07
 -19  -1   5    4.00    0.78
  19  -1  -5    6.28    1.24
  19   1  -5    4.82    1.06
  19  -1  -4   82.47    3.66
  19   1  -4   82.30    3.83
 -19  -1   4   78.20    2.89
  19  -1  -4   83.19    3.80
  19   1  -4   78.26    3.56
  19  -1  -3    7.91    1.36
  19   1  -3    7.99    1.43
 -19  -1   3    7.55    0.96
  19  -1  -3    8.33    1.38
  19   1  -3    7.70    1.34
  19  -1  -2   93.50    3.90
  19   1  -2   97.96    4.20
  19  -1  -2   96.12    4.18
  19   1  -2   97.21    4.08
  19  -1  -1    7.61    1.38
  19   1  -1    7.38    1.40
  19   1  -1    4.96    1.26
  19  -1  -1    7.06    1.34
  19   1   0   92.59    4.12
  19  -1   0   95.30    3.90
  19   1   0   92.70    4.10
  19  -1   0  101.18    4.32
  19  -1   1    7.49    1.24
  19   1   1    7.36    1.34
  19  -1   1    8.13    1.40
  19  -1   2   75.04    3.48
  19   1   2   75.19    3.77
  19  -1   2   76.87    3.85
  19  -1   3    5.16    1.05
  19  -1   3    3.79    1.17
  19   1   3    4.34    1.21
  19  -1   4   42.44    2.60
  19   1   4   40.61    2.86
  19  -1   4   41.19    2.91
  19  -1   5    4.65    1.13
  19  -1   5    5.08    1.23
  19   1   5    5.74    1.41
  19  -1   6   24.30    2.04
  19   1   6   27.87    2.45
  19  -1   6   28.69    2.51
  19  -1   7    1.73    0.87
  19  -1   7    5.25    1.26
  19   1   7    2.16    1.03
  19  -1   8   11.47    1.51
  19  -1   8   13.81    1.87
  19   1   8   14.40    1.91
  19  -1   9    0.22    0.74
  19  -1   9    0.60    1.00
  19   1   9   -0.45    0.89
  19  -1  10    7.56    1.30
  19  -1  10    6.36    1.38
  19   1  10    5.91    1.40
  19  -1  11   -0.89    0.78
  19  -1  12   11.30    1.48
 -19  -2  29    6.54    1.49
 -19   2  29    7.40    1.38
 -19  -2  28   27.33    2.49
 -19   2  28   27.87    2.33
 -19  -2  27   14.29    1.85
 -19   2  27   12.08    1.63
 -19  -2  26   27.74    2.47
 -19   2  26   27.53    2.27
 -19  -2  25   25.08    2.27
 -19   2  25   22.84    2.03
 -19  -2  24    4.26    1.26
 -19   2  24    0.16    0.84
 -19  -2  23  120.66    4.66
 -19   2  23  120.15    4.66
 -19  -2  22    1.76    0.79
 -19   2  22    0.29    0.74
 -19  -2  21    4.71    0.97
 -19   2  21    6.28    1.24
 -19  -2  20   32.54    2.19
 -19   2  20   40.15    2.59
 -19  -2  19    4.56    0.89
 -19   2  19    4.81    1.11
 -19  -2  18    3.34    0.89
 -19   2  18    2.46    0.88
  19   2 -17   68.86    3.60
 -19  -2  17   66.64    2.95
 -19   2  17   67.02    3.38
  19   2 -17   68.56    2.58
 -19  -2  16    9.31    1.21
  19   2 -16    7.21    1.36
 -19   2  16    8.29    1.41
  19   2 -16    5.71    0.87
  19   2 -15   67.24    3.55
 -19  -2  15   62.61    2.67
 -19   2  15   61.36    3.24
  19   2 -15   60.97    2.58
 -19  -2  15   61.82    2.28
  19   2 -14   19.59    2.03
 -19  -2  14   16.77    1.40
  19   2 -14   16.06    1.36
 -19   2  14   14.58    1.66
 -19  -2  14   15.94    1.23
  19   2 -13   27.88    2.33
 -19  -2  13   27.60    1.64
 -19   2  13   24.05    2.08
  19   2 -13   27.80    1.80
 -19  -2  13   29.15    1.65
 -19  -2  12    9.33    0.98
  19   2 -12    9.24    1.48
  19   2 -12    8.69    1.15
 -19   2  12    9.14    1.40
  19   2 -11   96.06    4.28
 -19  -2  11   94.69    2.83
 -19   2  11   94.82    4.05
  19   2 -11   96.87    3.56
  19   2 -10   11.74    1.60
 -19  -2  10    9.89    0.90
  19   2 -10    8.54    1.17
 -19   2  10   12.60    1.63
  19   2  -9   88.77    4.11
 -19   2   9   77.53    3.66
  19   2  -9   85.31    3.45
  19   2  -8    7.48    1.41
 -19   2   8    6.78    1.24
  19   2  -8    4.65    0.97
  19   2  -7   45.24    2.92
 -19   2   7   43.78    2.77
  19   2  -7   45.12    2.59
  19  -2  -7   48.00    2.91
  19   2  -6   33.33    2.54
  19  -2  -6   39.69    2.69
  19   2  -6   33.47    2.29
 -19   2   6   34.49    2.48
  19   2  -5    9.43    1.51
  19  -2  -5    9.32    1.47
  19   2  -5    8.70    1.27
 -19   2   5    7.95    1.34
  19   2  -4   12.04    1.64
  19  -2  -4   11.48    1.65
  19   2  -4    9.03    1.32
 -19   2   4   13.71    1.69
  19  -2  -3   49.87    3.09
  19   2  -3   50.87    2.90
 -19   2   3   49.48    3.02
  19   2  -2    9.04    1.38
  19  -2  -2    9.63    1.55
  19  -2  -1   66.96    3.61
  19   2  -1   68.90    3.51
  19  -2   0   20.34    2.11
  19   2   0   18.46    1.89
  19  -2   1   50.48    3.18
  19   2   1   49.14    3.06
  19  -2   2   25.32    2.36
  19   2   2   24.07    2.21
  19  -2   3   37.07    2.36
  19  -2   3   38.20    2.84
  19   2   3   37.65    2.77
  19  -2   4   19.97    1.77
  19  -2   4   18.15    2.01
  19   2   4   16.15    1.94
  19  -2   5   26.54    2.00
  19  -2   5   27.98    2.51
  19   2   5   28.31    2.49
  19  -2   6    6.66    1.10
  19   2   6    5.67    1.34
  19  -2   6    5.27    1.29
  19  -2   7   14.96    1.54
  19   2   7   16.50    2.05
  19  -2   7   21.30    2.30
  19  -2   8    3.41    0.92
  19   2   8    1.08    0.96
  19  -2   8    2.24    1.07
  19  -2   9   16.18    2.10
 -19  -3  27   11.61    1.69
 -19   3  27   10.24    1.67
 -19  -3  26   65.16    3.73
 -19   3  26   68.33    3.81
 -19  -3  25   18.59    2.04
 -19   3  25   22.58    2.25
 -19  -3  24   99.86    4.39
 -19   3  24   99.06    4.56
 -19  -3  23   27.86    2.31
 -19   3  23   27.97    2.41
 -19  -3  22   24.44    2.10
 -19   3  22   27.90    2.41
 -19  -3  21    4.14    1.00
 -19   3  21    3.76    1.15
 -19  -3  20   28.91    2.14
 -19   3  20   31.79    2.59
  19   3 -19    2.91    1.16
 -19  -3  19    4.48    0.96
 -19   3  19    4.05    1.31
  19   3 -18  116.96    4.87
 -19  -3  18  102.67    3.90
 -19   3  18  107.69    4.65
  19   3 -17   58.27    3.41
 -19  -3  17   57.69    2.78
 -19   3  17   62.71    3.55
  19   3 -16  124.69    5.04
 -19  -3  16  123.06    4.05
 -19   3  16  119.10    4.89
  19   3 -15   21.82    2.21
 -19  -3  15   18.86    1.51
 -19   3  15   25.62    2.27
  19   3 -14   32.05    2.63
 -19  -3  14   31.59    1.86
 -19   3  14   31.31    2.57
  19   3 -14   32.42    1.86
  19   3 -13    7.11    1.41
  19   3 -13    8.11    1.07
 -19   3  13    9.58    1.56
  19   3 -12   71.19    3.76
 -19   3  12   69.95    3.67
  19   3 -12   70.25    2.95
  19   3 -11    4.01    1.33
 -19   3  11    7.07    1.40
  19   3 -11    5.96    1.02
  19   3 -10  137.14    5.28
 -19   3  10  134.20    5.21
  19   3 -10  131.85    4.34
  19   3  -9   34.63    2.72
  19   3  -9   32.14    2.15
 -19   3   9   39.82    2.81
  19   3  -8   43.56    2.98
  19   3  -8   41.80    2.49
 -19   3   8   42.44    2.93
  19   3  -7   29.97    2.50
  19   3  -7   28.46    2.11
 -19   3   7   28.86    2.43
  19   3  -6   12.19    1.69
  19   3  -6    9.63    1.30
 -19   3   6   12.48    1.77
  19   3  -5    4.28    1.02
 -19   3   5    4.94    1.22
  19   3  -4   16.66    1.71
 -19   3   4   17.26    1.95
  19   3  -3    6.40    1.23
 -19   3   3    6.48    1.32
  19   3  -2   15.21    1.73
 -19   3   2   15.75    1.96
  19   3  -1    8.83    1.38
  19  -3  -1   11.99    1.72
 -19   3   1   13.56    1.90
  19   3   0   15.76    1.82
  19  -3   0   15.32    1.93
 -19   3   0   12.19    1.75
  19   3   1   19.33    2.02
  19  -3   1   23.56    2.31
 -19   3  -1   18.78    2.08
  19   3   2   10.67    1.59
  19  -3   2   12.03    1.77
 -19   3  -2    8.62    1.55
  19   3   3   12.27    1.81
  19  -3   3   12.17    1.74
 -19   3  -3   14.13    1.86
  19   3   4    6.73    1.44
  19  -3   4    4.00    1.41
  19   3   5    5.05    1.69
  19  -3   5    8.25    1.50
  19   3   6    2.49    1.13
 -19  -4  25    2.91    1.30
 -19  -4  24    3.54    1.29
 -19  -4  23   30.29    2.56
 -19  -4  22    4.85    1.37
  19   4 -20   21.99    2.23
  19   4 -19    3.37    1.12
  19   4 -18   15.30    1.90
 -19   4  18   14.40    2.01
  19   4 -17   23.89    2.28
 -19   4  17   23.58    2.39
  19   4 -16   12.48    1.75
 -19   4  16   12.92    1.85
  19   4 -15   17.81    2.03
 -19   4  15   19.69    2.21
  19   4 -14    8.59    1.52
 -19   4  14    8.10    1.65
  19   4 -13   40.52    2.97
 -19   4  13   36.20    2.87
  19   4 -12   42.09    3.13
 -19   4  12   49.40    3.35
  19   4 -11   12.03    1.76
 -19   4  11    8.02    1.46
  19   4 -10   18.25    2.04
  19   4 -10   18.25    1.64
 -19   4  10   19.39    2.19
  19   4  -9   11.01    1.66
  19   4  -9   12.31    1.42
 -19   4   9   13.99    1.90
  19   4  -8    8.50    1.55
  19   4  -8    9.03    1.32
 -19   4   8   11.08    1.68
 -19   4   7   24.08    2.40
  19   4  -7   23.26    1.96
  19   4  -6   14.42    1.60
 -19   4   6   16.15    2.07
  19   4  -5   12.17    1.60
 -19   4   5   11.78    1.92
  19   4  -4   10.66    1.49
 -19   4   4   11.77    1.77
  19   4  -3    5.43    1.14
 -19   4   3    4.43    1.14
  19   4  -2    6.57    1.28
 -19   4   2    5.87    1.44
  19   4  -1    9.73    1.59
  19   4   0   12.13    1.71
  19   4   1   13.60    1.86
  19   4   2   26.97    2.52
  19   4   3   12.51    1.79
  19   5  -5    3.59    1.14
  19   5  -4   23.27    2.18
  19   5  -3    3.65    1.18
  19   5  -2   26.33    2.42
  19   5  -1   12.90    1.74
 -20   0  29    0.25    0.91
 -20   0  28    0.15    1.04
 -20   0  27   -0.18    0.89
 -20   0  26   10.53    1.52
 -20   0  25   -1.80    1.10
 -20   0  24    7.35    1.18
 -20   0  23   -0.55    0.84
 -20   0  22   13.69    1.53
 -20   0  22   18.54    1.55
 -20   0  21    0.16    0.64
 -20   0  21   -0.73    0.63
 -20   0  20    2.61    0.78
 -20   0  19   -1.21    0.72
 -20   0  18   47.09    2.43
 -20   0  17    0.46    0.61
 -20   0  16   38.04    2.24
 -20   0  15    2.05    0.84
  20   0 -14    3.02    0.94
 -20   0  14    3.30    0.90
  20   0 -13   -0.05    0.64
 -20   0  13    0.03    0.61
  20   0 -12   46.51    2.61
 -20   0  12   47.56    2.55
  20   0 -11   -0.89    0.89
  20   0 -11    0.45    0.65
 -20   0  11    0.38    0.63
  20   0 -10   80.64    3.81
  20   0 -10   75.81    3.43
 -20   0  10   71.85    3.23
  20   0  -9    0.33    0.85
  20   0  -9    0.85    0.71
 -20   0   9    0.85    0.73
  20   0  -8   32.89    2.43
  20   0  -8   35.42    2.39
  20   0  -7    0.87    0.86
 -20   0   7    0.38    0.37
  20   0  -7   -0.99    0.87
  20   0  -6    6.43    1.16
  20   0  -6    6.27    1.21
  20   0  -5    0.36    0.71
  20   0  -5   -0.77    0.75
  20   0  -4    3.22    0.91
  20   0  -4    4.46    1.08
  20   0  -3   -1.36    0.87
  20   0  -3    0.83    0.75
  20   0  -2   42.13    2.72
  20   0  -2   41.05    2.70
  20   0  -1   -0.73    0.83
  20   0  -1    0.64    0.87
  20   0   0   18.67    1.88
  20   0   0   17.01    1.82
  20   0   1    0.00    0.74
  20   0   1    2.02    1.06
  20   0   2    1.40    0.85
  20   0   2    1.59    1.05
  20   0   3    1.11    0.93
  20   0   3    1.92    1.04
  20   0   4   53.49    3.12
  20   0   4   52.67    3.29
  20   0   5    0.52    1.31
  20   0   5    0.83    0.88
  20   0   6   13.25    1.63
  20   0   6   13.97    1.81
  20   0   7    0.72    0.87
  20   0   7    0.47    0.86
  20   0   8   32.44    2.50
  20   0   8   35.76    2.87
  20   0   9    0.05    0.78
  20   0  10    1.22    0.89
 -20  -1  29    1.25    0.98
 -20  -1  28    2.15    1.13
 -20  -1  27    9.52    1.56
 -20  -1  26    1.05    0.88
 -20   1  26    2.11    0.97
 -20  -1  25    0.02    0.77
 -20   1  25    0.05    0.69
 -20  -1  24    1.45    0.73
 -20   1  24    1.53    0.96
 -20  -1  23    1.04    0.70
 -20   1  23    2.90    0.97
 -20  -1  22   11.69    1.41
 -20   1  22   14.69    1.62
 -20  -1  21   25.21    2.01
 -20   1  21   25.27    2.12
 -20  -1  20    8.11    1.21
 -20   1  20    8.85    1.29
 -20  -1  19    0.67    0.71
 -20   1  19   -0.77    0.74
 -20  -1  19   -1.45    0.72
 -20  -1  18    5.44    0.98
 -20   1  18    4.64    0.99
 -20  -1  18    2.87    0.49
 -20  -1  17   17.90    1.55
 -20   1  17   17.95    1.72
 -20  -1  17   20.38    1.51
 -20  -1  16    2.14    0.72
  20   1 -16    1.99    0.68
 -20   1  16    1.67    0.79
 -20  -1  16    1.85    0.66
  20   1 -15    6.39    1.31
 -20  -1  15    6.08    0.91
  20   1 -15    5.98    1.02
 -20   1  15    4.86    1.05
 -20  -1  15    5.79    0.89
  20   1 -14    1.09    0.88
 -20  -1  14    0.97    0.57
  20   1 -14    1.00    0.67
 -20   1  14   -0.46    0.80
 -20  -1  14   -0.72    0.62
 -20  -1  13   17.94    1.35
  20   1 -13   19.46    2.00
  20   1 -13   15.05    1.45
 -20  -1  13   18.62    1.51
 -20   1  13   15.89    1.64
 -20  -1  12    4.08    0.73
  20   1 -12    4.36    1.14
  20   1 -12    6.15    1.10
 -20   1  12    3.13    0.96
 -20  -1  12    5.40    0.95
 -20  -1  11    2.38    0.58
  20   1 -11    2.24    0.97
  20  -1 -11    2.40    0.96
  20   1 -11    1.37    0.71
 -20   1  11    3.64    0.93
 -20  -1  11    0.94    0.61
  20   1 -10   81.53    3.89
 -20  -1  10   81.94    2.45
  20  -1 -10   75.85    3.58
  20   1 -10   76.92    3.33
 -20   1  10   78.35    3.53
  20   1  -9    0.91    0.95
  20   1  -9   -0.46    0.65
  20  -1  -9   -0.48    0.70
 -20   1   9    1.27    0.83
  20   1  -8   34.10    2.57
  20  -1  -8   26.35    2.14
  20   1  -8   25.83    2.04
 -20   1   8   30.01    2.26
  20   1  -7    0.92    0.86
  20   1  -7   -0.38    0.76
  20  -1  -7    0.60    0.72
 -20   1   7    0.45    0.78
  20  -1  -6    4.06    1.03
  20   1  -6    3.67    0.96
  20   1  -6    4.39    1.04
  20  -1  -6    3.41    0.99
 -20   1   6    3.60    0.98
  20  -1  -5    0.03    0.75
  20   1  -5   -0.29    0.92
  20   1  -5    0.48    0.72
  20  -1  -5    0.17    0.79
  20  -1  -4   15.86    1.68
  20   1  -4   17.23    1.84
  20   1  -4   17.70    1.76
  20  -1  -4   17.93    1.87
  20  -1  -3   31.26    2.31
  20   1  -3   33.00    2.50
  20  -1  -3   31.77    2.42
  20   1  -3   30.51    2.32
  20   1  -2    7.32    1.30
  20  -1  -2    7.98    1.32
  20  -1  -2    8.59    1.45
  20   1  -2    5.38    1.18
  20  -1  -1    0.11    0.70
  20   1  -1   -0.13    0.79
  20  -1  -1    0.25    0.78
  20   1  -1    0.79    0.86
  20   1   0    5.43    1.21
  20  -1   0    6.55    1.21
  20   1   0    4.51    1.09
  20  -1   0    7.18    1.47
  20   1   1    5.49    1.22
  20  -1   1    5.00    1.10
  20   1   1    5.61    1.20
  20  -1   1    7.49    1.38
  20  -1   2    1.45    0.94
  20   1   2    1.61    0.99
  20   1   2   -0.81    0.87
  20  -1   2    1.27    0.92
  20  -1   3   41.98    2.69
  20   1   3   45.79    3.06
  20  -1   3   43.95    2.97
  20  -1   4   15.21    1.76
  20  -1   4   14.17    1.88
  20   1   4   15.67    1.86
  20  -1   5    0.84    0.70
  20  -1   5    0.11    0.79
  20   1   5    2.54    1.07
  20  -1   6   33.01    2.38
  20   1   6   32.28    2.70
  20  -1   6   36.54    2.84
  20  -1   7    1.07    0.72
  20  -1   7    1.82    1.02
  20   1   7    4.08    1.28
  20  -1   8    2.10    0.96
  20  -1   8    0.20    0.87
  20   1   8   -0.74    0.95
  20  -1   9   -0.44    0.80
  20  -1  10   15.84    1.75
  20  -1  11   56.88    3.20
 -20  -2  28    3.25    1.25
 -20   2  28    0.99    0.81
 -20  -2  27    4.98    1.45
 -20   2  27   -0.35    0.81
 -20  -2  26    3.49    1.20
 -20   2  26   -0.93    0.93
 -20  -2  25    3.24    1.10
 -20   2  25    1.31    0.98
 -20  -2  24    4.12    1.07
 -20   2  24    4.41    1.06
 -20  -2  23   -0.79    0.74
 -20   2  23    3.39    1.20
 -20  -2  22    3.98    0.81
 -20   2  22    6.95    1.28
 -20  -2  21   -1.02    0.89
 -20   2  21    1.32    0.93
 -20  -2  20   -0.28    0.67
 -20   2  20    0.81    0.76
 -20  -2  19   20.91    1.74
 -20   2  19   16.92    1.81
 -20  -2  18   12.39    1.37
 -20   2  18    9.11    1.43
 -20  -2  17    9.36    1.20
  20   2 -17    6.75    1.37
 -20   2  17    6.45    1.25
 -20  -2  16    6.08    0.99
  20   2 -16    4.23    1.18
  20   2 -16    6.97    0.97
 -20   2  16    6.58    1.31
 -20  -2  15    3.26    0.81
  20   2 -15    3.27    1.16
 -20   2  15    2.00    1.04
  20   2 -15    1.31    0.57
  20   2 -14    3.56    1.07
 -20  -2  14    4.99    0.85
 -20   2  14    4.60    1.07
  20   2 -14    3.98    0.82
 -20  -2  14    3.48    0.65
 -20  -2  13   13.17    1.14
  20   2 -13   13.03    1.65
 -20   2  13   12.29    1.63
  20   2 -13   14.00    1.39
 -20  -2  13   11.06    1.08
  20   2 -12   12.03    1.64
  20   2 -12   10.36    1.26
 -20   2  12    9.62    1.44
  20   2 -11    1.01    0.92
  20   2 -11    0.88    0.64
 -20   2  11    1.30    1.02
  20   2 -10    2.19    1.01
  20   2 -10    2.95    0.82
 -20   2  10    3.29    1.13
  20   2  -9    5.10    1.17
  20   2  -9    1.23    0.67
 -20   2   9    2.44    0.98
  20   2  -8   15.83    1.86
  20   2  -8   12.26    1.41
 -20   2   8   15.38    1.80
  20   2  -7    3.43    1.24
  20  -2  -7    2.21    0.78
 -20   2   7    3.00    1.07
  20   2  -7    2.72    0.88
  20   2  -6    8.49    1.41
  20   2  -6    4.62    1.00
  20  -2  -6    9.20    1.39
 -20   2   6    6.77    1.28
  20   2  -5   27.14    2.39
  20  -2  -5   26.18    2.27
  20   2  -5   28.02    2.19
 -20   2   5   26.87    2.32
  20   2  -4   66.75    3.67
  20  -2  -4   66.89    3.61
  20   2  -4   67.78    3.42
 -20   2   4   75.14    3.78
  20   2  -3    0.99    0.84
  20  -2  -3    1.26    0.90
  20   2  -3    2.89    1.05
 -20   2   3    1.22    0.87
  20  -2  -2    3.33    1.07
  20   2  -2    1.34    0.81
 -20   2   2    4.33    1.20
  20  -2  -1    1.37    1.08
  20   2  -1    0.53    0.85
  20   2   0    5.49    1.26
  20  -2   0    4.82    1.27
  20  -2   1   33.58    2.69
  20   2   1   34.81    2.66
  20  -2   2   29.43    2.59
  20   2   2   30.35    2.54
  20   2   3    8.82    1.50
  20  -2   3    8.98    1.53
  20  -2   4    3.35    0.99
  20  -2   4    2.34    1.06
  20   2   4    2.91    1.16
  20  -2   5    2.32    0.90
  20  -2   5    4.31    1.28
  20   2   5    3.11    1.18
  20  -2   6    7.40    1.23
  20   2   6    8.76    1.51
  20  -2   6    7.74    1.57
  20  -2   7    5.01    1.02
 -20  -3  27    0.94    0.93
 -20  -3  26   -0.18    0.83
 -20   3  26    0.47    0.93
 -20  -3  25    1.01    0.92
 -20   3  25    2.89    1.21
 -20  -3  24    1.02    0.79
 -20   3  24   -1.36    0.89
 -20  -3  23   20.31    1.95
 -20   3  23   22.38    2.32
 -20  -3  22   12.99    1.56
 -20   3  22   12.65    1.75
 -20  -3  21    7.30    1.19
 -20   3  21    9.29    1.52
 -20  -3  20    0.43    0.61
 -20   3  20    1.08    0.93
  20   3 -19    0.81    0.93
 -20  -3  19   -0.53    0.74
 -20   3  19    0.43    0.88
  20   3 -18    4.49    1.38
 -20  -3  18    2.54    0.74
 -20   3  18    5.51    1.33
  20   3 -17   26.78    2.42
 -20   3  17   21.21    2.17
  20   3 -16   29.71    2.52
 -20   3  16   27.56    2.47
  20   3 -15   20.18    2.11
 -20   3  15   21.37    2.21
  20   3 -14    2.09    1.09
 -20   3  14   -0.16    0.84
  20   3 -13   11.46    1.69
  20   3 -13    8.91    1.08
 -20   3  13    7.28    1.39
  20   3 -12    6.10    1.23
 -20   3  12    5.59    1.26
  20   3 -12    4.60    0.85
  20   3 -11    8.12    1.46
 -20   3  11    4.46    1.26
  20   3 -11    6.01    1.03
  20   3 -10    0.94    0.85
  20   3 -10    1.13    0.75
 -20   3  10    0.87    0.87
  20   3  -9   66.96    3.78
  20   3  -9   65.93    3.16
 -20   3   9   66.37    3.71
  20   3  -8   27.70    2.49
  20   3  -8   24.06    1.96
 -20   3   8   27.05    2.37
  20   3  -7    0.73    0.87
  20   3  -7    1.42    0.87
 -20   3   7    1.28    0.85
  20   3  -6   30.28    2.60
  20   3  -6   26.48    2.13
 -20   3   6   24.73    2.35
  20   3  -5    2.84    1.02
  20   3  -5    4.77    1.07
 -20   3   5    6.71    1.37
  20   3  -4    1.03    0.84
 -20   3   4    2.10    1.04
  20   3  -3   15.52    1.76
 -20   3   3   13.37    1.87
  20   3  -2    0.38    0.83
 -20   3   2   -0.09    0.89
  20  -3  -1    6.78    1.57
  20   3  -1    5.60    1.19
 -20   3   1    9.49    1.56
  20  -3   0   17.58    2.08
  20   3   0   17.14    1.95
 -20   3   0   16.02    1.97
  20   3   1    5.41    1.29
  20  -3   1    5.21    1.37
 -20   3  -1    3.79    1.38
  20  -3   2   27.89    2.66
  20   3   2   30.56    2.57
 -20   3  -2   27.59    2.56
  20   3   3    3.72    1.26
  20   3   4    1.14    1.03
  20   4 -20    1.95    0.96
  20   4 -19   11.30    1.78
  20   4 -18   -0.84    1.04
  20   4 -17    1.46    1.04
  20   4 -16    1.30    1.12
  20   4 -15    4.05    1.25
  20   4 -14    4.04    1.24
  20   4 -13    4.23    1.13
  20   4 -12   13.05    1.89
  20   4 -11   14.86    1.99
  20   4 -10   11.27    1.71
  20   4  -9    3.81    1.22
  20   4  -9    2.24    0.85
  20   4  -8    2.90    1.12
  20   4  -8    2.80    0.90
  20   4  -7   11.33    1.73
  20   4  -7    8.50    1.35
  20   4  -6   -1.24    0.85
  20   4  -5   -0.02    0.73
  20   4  -4    0.23    0.75
  20   4  -3   10.73    1.54
  20   4  -2   12.80    1.78
  20   4  -1    0.06    0.90
  20   4   0    8.28    1.52
  20   4   1    6.04    1.41
  20   5  -4    1.31    0.98
  20   5  -3    5.61    1.32
  20   5  -2    6.17    1.47
 -21   0  28   -1.04    1.00
 -21   0  27   14.75    1.93
 -21   0  26   -0.90    0.99
 -21   0  25   44.90    2.94
 -21   0  24    1.19    0.75
 -21   0  23  108.93    4.50
 -21   0  22    3.60    1.07
 -21   0  21  126.16    4.70
 -21   0  21  132.74    4.29
 -21   0  20    4.63    1.25
 -21   0  20    0.68    0.64
 -21   0  19   28.80    2.11
 -21   0  19   32.95    2.13
 -21   0  18    1.05    0.68
 -21   0  18    0.03    0.64
 -21   0  17    0.70    0.66
 -21   0  17    0.96    0.74
 -21   0  16    1.18    0.75
 -21   0  15  175.41    5.21
  21   0 -14    0.69    0.72
 -21   0  14    2.35    0.91
  21   0 -13  106.45    4.14
 -21   0  13  107.53    4.01
 -21   0  12    3.09    0.72
  21   0 -12    1.11    0.66
 -21   0  12    3.08    0.97
  21   0 -11   46.59    3.03
 -21   0  11   47.64    2.08
  21   0 -11   43.81    2.67
 -21   0  11   45.73    2.63
  21   0 -10    2.39    1.10
  21   0 -10    1.69    0.90
 -21   0  10    1.86    0.83
  21   0  -9  130.34    5.06
  21   0  -9  124.09    4.66
 -21   0   9  124.07    4.50
  21   0  -8    0.82    0.93
  21   0  -8    0.38    0.74
  21   0  -7   36.25    2.63
  21   0  -7   34.85    2.46
  21   0  -6    0.30    0.83
  21   0  -6   -0.46    0.90
  21   0  -5   15.12    1.82
  21   0  -5   14.75    1.67
  21   0  -4    1.88    0.95
  21   0  -4   -0.47    0.76
  21   0  -3   20.78    2.03
  21   0  -3   22.65    2.10
  21   0  -2   -0.21    0.79
  21   0  -2    0.88    1.01
  21   0  -1   38.96    2.74
  21   0  -1   42.83    2.91
  21   0   0    0.15    0.75
  21   0   0    0.52    0.85
  21   0   1   35.98    2.90
  21   0   1   44.65    3.03
  21   0   2    0.33    0.78
  21   0   2    1.04    0.97
  21   0   3   16.00    1.85
  21   0   3   20.24    2.18
  21   0   4    0.42    0.91
  21   0   4    0.65    1.06
  21   0   5    3.45    1.12
  21   0   5    4.91    1.35
  21   0   6    0.20    0.74
  21   0   6    0.17    0.95
  21   0   7    4.31    1.24
  21   0   8   -0.37    0.82
  21   0   9    2.97    1.16
  21   0  10   -0.18    0.86
  21   0  11    6.48    1.42
  21   0  12    1.94    1.32
 -21  -1  28   13.06    1.80
 -21  -1  27    2.60    1.06
 -21  -1  26   43.69    2.97
 -21  -1  25    2.89    1.08
 -21   1  25    0.17    0.78
 -21  -1  24   87.14    4.04
 -21   1  24   92.90    3.89
 -21  -1  23    1.68    0.81
 -21   1  23    0.54    0.74
 -21  -1  22   38.28    2.56
 -21   1  22   39.35    2.52
 -21  -1  21    8.08    1.34
 -21   1  21    6.78    1.25
 -21  -1  20   52.59    2.84
 -21   1  20   51.48    2.92
 -21  -1  19    2.48    0.74
 -21   1  19    2.07    0.93
 -21  -1  18   31.96    2.07
 -21   1  18   33.06    2.34
 -21  -1  17    0.62    0.59
 -21   1  17    1.28    0.88
 -21  -1  17    1.20    0.69
 -21  -1  16   15.48    1.41
  21   1 -16   17.24    1.55
 -21  -1  16   17.61    1.50
 -21   1  16   16.41    1.72
  21   1 -15    1.77    0.98
 -21  -1  15    2.33    0.79
  21   1 -15    1.96    0.79
 -21   1  15    4.72    1.10
 -21  -1  15    2.09    0.75
 -21  -1  14   77.70    2.86
  21   1 -14   84.76    4.14
  21   1 -14   74.76    3.27
 -21   1  14   71.99    3.50
 -21  -1  14   77.07    3.12
  21   1 -13   13.30    1.83
  21   1 -13   13.79    1.48
 -21   1  13   14.48    1.62
 -21  -1  13   12.46    1.37
  21   1 -12  108.95    4.71
  21   1 -12  103.84    3.98
 -21   1  12  101.66    4.16
 -21  -1  12  106.15    3.83
  21   1 -11   10.60    1.62
  21  -1 -11   14.65    1.76
  21   1 -11   10.17    1.37
 -21   1  11   14.15    1.68
 -21  -1  11   10.39    1.34
  21   1 -10   81.59    4.01
  21  -1 -10   70.78    3.59
  21   1 -10   74.68    3.46
 -21   1  10   76.29    3.65
  21   1  -9    5.90    1.27
  21  -1  -9    4.57    1.10
 -21   1   9    5.22    1.19
  21   1  -9    5.41    1.10
  21   1  -8   59.01    3.47
  21  -1  -8   59.19    3.27
  21   1  -8   59.62    3.14
 -21   1   8   56.97    3.21
  21   1  -7   15.02    1.89
  21   1  -7   16.44    1.73
  21  -1  -7   16.98    1.89
 -21   1   7   18.75    1.90
  21   1  -6   21.21    2.15
  21  -1  -6   24.09    2.14
  21   1  -6   21.34    1.95
 -21   1   6   21.88    2.06
  21  -1  -5   10.25    1.50
  21   1  -5    9.25    1.48
  21   1  -5   10.89    1.55
  21  -1  -5    8.16    1.43
  21  -1  -4   14.70    1.71
  21   1  -4   12.33    1.65
  21   1  -4   16.50    1.78
  21  -1  -4   17.13    1.87
  21  -1  -3    1.13    0.89
  21   1  -3    1.42    1.02
  21   1  -3    1.04    0.92
  21  -1  -3    0.46    0.84
  21  -1  -2   51.19    3.06
  21   1  -2   53.45    3.29
  21  -1  -2   49.41    3.21
  21   1  -2   53.20    3.20
  21   1  -1    1.89    0.90
  21  -1  -1    2.29    0.89
  21  -1  -1    2.10    1.03
  21   1  -1    2.15    0.99
  21  -1   0   52.59    3.08
  21   1   0   48.06    3.19
  21  -1   0   50.54    3.27
  21   1   0   52.92    3.27
  21   1   1    1.91    1.00
  21  -1   1    3.11    1.08
  21  -1   1    5.72    1.32
  21   1   1    1.15    1.04
  21  -1   2   31.24    2.41
  21   1   2   31.58    2.61
  21  -1   2   28.24    2.49
  21   1   2   35.75    2.78
  21  -1   3    2.52    1.02
  21   1   3    2.09    1.07
  21   1   3    2.51    1.04
  21  -1   3    3.92    1.13
  21   1   4   19.30    2.15
  21  -1   4   18.88    1.91
  21   1   4   17.90    2.11
  21  -1   4   15.57    2.01
  21  -1   5    6.36    1.33
  21   1   5    1.74    1.13
  21  -1   5    2.50    1.08
  21  -1   6    9.77    1.52
  21  -1   7    1.13    0.87
  21  -1   8    5.88    1.25
  21  -1   9   -0.90    0.96
 -21  -2  28   19.60    2.24
 -21  -2  27   32.00    2.58
 -21   2  27   31.69    2.50
 -21  -2  26   31.76    2.56
 -21   2  26   31.10    2.46
 -21  -2  25   48.83    3.04
 -21   2  25   50.67    3.16
 -21  -2  24    5.28    1.08
 -21   2  24   12.66    1.64
 -21  -2  23   34.25    2.41
 -21   2  23   36.73    2.68
 -21  -2  22    1.81    0.65
 -21   2  22    3.97    1.12
 -21  -2  21   29.23    2.16
 -21   2  21   28.82    2.35
 -21  -2  20    0.94    0.80
 -21   2  20   -0.03    0.78
 -21  -2  19   60.40    2.95
 -21   2  19   55.52    3.27
 -21  -2  18   16.53    1.56
 -21   2  18   14.71    1.80
  21   2 -17   15.06    1.90
 -21   2  17   11.40    1.57
  21   2 -16   10.85    1.58
 -21   2  16   10.57    1.58
  21   2 -15   44.52    3.11
 -21   2  15   39.60    2.74
  21   2 -15   41.94    2.31
  21   2 -14   13.64    1.86
 -21   2  14   13.88    1.69
  21   2 -14   12.73    1.33
  21   2 -13   68.05    3.77
 -21   2  13   57.91    3.55
  21   2 -13   65.46    3.00
 -21  -2  13   62.94    2.67
  21   2 -12   16.87    1.99
  21   2 -12   16.78    1.58
 -21   2  12   14.42    1.70
  21   2 -11   85.88    4.30
 -21   2  11   81.67    3.94
  21   2 -11   84.98    3.58
  21   2 -10   10.70    1.69
  21   2 -10   12.21    1.46
 -21   2  10   15.03    1.77
  21   2  -9   31.99    2.64
 -21   2   9   29.77    2.45
  21   2  -9   33.04    2.30
  21   2  -8   13.13    1.79
  21   2  -8   12.60    1.53
 -21   2   8   13.42    1.74
  21   2  -7   52.89    3.37
  21  -2  -7   48.31    3.14
 -21   2   7   47.88    3.12
  21   2  -7   48.58    2.89
  21   2  -6   11.18    1.78
  21  -2  -6   12.43    1.69
  21   2  -6   12.73    1.59
 -21   2   6   13.11    1.75
  21   2  -5   20.15    2.16
  21  -2  -5   16.96    2.02
 -21   2   5   14.88    1.78
  21   2  -5   16.28    1.75
  21   2  -4   12.13    1.76
  21   2  -4   13.16    1.67
  21  -2  -4   11.45    1.70
 -21   2   4   13.99    1.86
  21   2  -3   20.38    2.18
  21  -2  -3   23.06    2.28
  21   2  -3   20.48    2.07
 -21   2   3   17.98    2.06
  21   2  -2    4.71    1.27
  21   2  -2    7.53    1.39
  21  -2  -2    6.73    1.48
 -21   2   2    6.31    1.37
  21   2  -1   49.36    3.31
  21  -2  -1   44.74    3.14
  21   2  -1   45.61    3.01
  21  -2   0    5.05    1.30
  21   2   0    2.88    1.11
  21  -2   1   51.76    3.40
  21   2   1   53.36    3.45
  21  -2   2    6.67    1.57
  21   2   2    4.68    1.27
  21   2   3   32.06    2.83
  21   2   4    2.21    1.00
  21  -2   5   15.41    1.71
 -21  -3  25    7.83    1.54
 -21   3  23    1.98    1.11
 -21   3  22   99.53    4.67
 -21   3  21   63.77    3.73
 -21   3  20   14.20    1.90
  21   3 -19    1.95    1.16
 -21   3  19   -0.53    0.84
  21   3 -18   29.84    2.63
 -21   3  18   26.04    2.46
  21   3 -17    4.64    1.30
 -21   3  17    6.98    1.50
  21   3 -16   55.69    3.60
 -21   3  16   56.34    3.48
  21   3 -15   35.34    2.84
 -21   3  15   40.01    2.93
  21   3 -14   52.31    3.44
 -21   3  14   49.07    3.24
  21   3 -13   21.27    2.24
 -21   3  13   23.34    2.32
  21   3 -12   18.96    2.13
  21   3 -12   15.64    1.55
 -21   3  12   14.02    1.79
  21   3 -11   16.49    2.04
 -21   3  11   16.82    1.98
  21   3 -11   14.28    1.51
  21   3 -10   26.85    2.46
 -21   3  10   24.66    2.37
  21   3 -10   28.63    2.12
  21   3  -9    4.55    1.14
  21   3  -9    6.63    1.15
 -21   3   9    8.38    1.57
  21   3  -8   38.46    2.94
  21   3  -8   32.16    2.33
 -21   3   8   35.53    2.83
  21   3  -7   20.51    2.25
  21   3  -7   20.16    1.91
 -21   3   7   24.86    2.36
  21   3  -6    5.25    1.33
  21   3  -6    5.78    1.20
 -21   3   6    3.41    1.16
  21   3  -5   19.81    2.23
  21   3  -5   19.22    1.94
 -21   3   5   19.11    2.17
  21   3  -4    2.68    1.16
  21   3  -4    1.74    0.90
 -21   3   4    0.76    1.01
  21   3  -3    2.83    0.98
 -21   3   3    4.62    1.30
  21   3  -2   12.60    1.65
 -21   3   2   15.85    1.99
  21   3  -1    4.72    1.25
  21   3   0   14.41    1.83
  21   3   1   12.62    1.81
  21   3   2   15.65    1.98
  21   4  -8   32.08    2.43
  21   4  -7   11.48    1.53
  21   4  -6   10.06    1.51
  21   4  -5   10.11    1.59
  21   4  -4   16.47    1.88
  21   4  -3   11.05    1.62
  21   4  -2   24.85    2.35
  21   4  -1   11.97    1.76
 -22   0  28   17.47    2.07
 -22   0  27    0.13    0.85
 -22   0  26   46.47    3.10
 -22   0  25    0.38    0.70
 -22   0  24   53.69    3.20
 -22   0  23    1.41    0.91
 -22   0  22   30.97    2.36
 -22   0  21    2.21    0.97
 -22   0  20   26.39    2.09
 -22   0  20   26.79    2.01
 -22   0  19    0.52    0.99
 -22   0  19    0.21    0.68
 -22   0  18  111.83    4.09
 -22   0  18  110.08    4.10
 -22   0  17    1.07    0.70
 -22   0  17    1.67    0.73
 -22   0  16  119.44    4.01
 -22   0  16  120.88    4.32
 -22   0  15    0.35    0.71
 -22   0  15   -0.18    0.97
  22   0 -14    4.98    1.41
 -22   0  14    6.28    1.08
  22   0 -13    0.02    0.80
 -22   0  13    0.44    0.67
  22   0 -12   14.01    1.61
 -22   0  12   16.15    1.64
  22   0 -11    0.12    0.76
 -22   0  11    1.15    0.84
  22   0 -10   74.57    3.91
  22   0 -10   77.02    3.68
 -22   0  10   75.17    3.55
  22   0  -9    0.99    0.87
 -22   0   9   -0.45    0.81
  22   0  -8    9.64    1.49
  22   0  -8    9.00    1.42
  22   0  -7   -0.63    0.81
  22   0  -7   -1.20    0.86
  22   0  -6    1.21    0.92
  22   0  -6    2.96    1.02
  22   0  -5   -0.56    0.89
  22   0  -5   -0.45    0.71
  22   0  -4   -0.12    0.82
  22   0  -4    0.52    0.76
  22   0  -3   -0.23    0.77
  22   0  -3   -0.70    1.07
  22   0  -2    0.82    0.90
  22   0  -2    0.16    0.92
  22   0  -1    0.25    0.80
  22   0  -1    1.12    0.84
  22   0   0   22.34    2.21
  22   0   0   22.08    2.24
  22   0   1    0.20    0.83
  22   0   1    1.06    0.90
  22   0   2   67.90    3.78
  22   0   2   70.21    3.93
  22   0   3    1.57    0.88
  22   0   3    0.88    0.98
  22   0   4    0.28    0.81
  22   0   5   -0.46    0.85
  22   0   6    7.01    1.52
  22   0   7    1.16    0.81
  22   0   8    7.25    1.35
  22   0   9   -0.25    0.82
  22   0  10   10.84    1.71
 -22  -1  28    1.13    0.93
 -22  -1  27    1.11    0.78
 -22  -1  26    5.41    1.27
 -22  -1  25    2.90    0.94
 -22  -1  24   16.07    1.75
 -22   1  24   16.24    1.70
 -22  -1  23    2.59    0.78
 -22   1  23    5.09    1.12
 -22  -1  22    6.43    1.21
 -22   1  22    6.57    1.23
 -22  -1  21    3.18    1.04
 -22   1  21    1.32    0.85
 -22  -1  20   12.78    1.47
 -22   1  20   10.78    1.48
 -22  -1  19   14.16    1.50
 -22   1  19   10.72    1.49
 -22  -1  18   33.36    2.12
 -22   1  18   33.85    2.41
 -22   1  17    2.07    0.85
  22   1 -16   14.29    1.50
 -22   1  16   13.83    1.63
 -22  -1  16   14.80    1.40
  22   1 -15    0.99    0.67
 -22   1  15    0.46    0.79
 -22  -1  15    1.45    0.67
  22   1 -14   15.86    1.89
  22   1 -14   16.22    1.63
 -22   1  14   13.81    1.64
 -22  -1  14   15.58    1.49
  22   1 -13    0.54    0.87
  22   1 -13    0.36    0.73
 -22   1  13    0.56    0.83
 -22  -1  13    0.27    0.61
  22   1 -12   16.37    1.92
  22   1 -12   19.25    1.81
 -22  -1  12   17.87    1.63
 -22   1  12   17.74    1.82
  22   1 -11    8.29    1.49
  22  -1 -11    4.25    0.99
  22   1 -11    8.48    1.41
 -22   1  11    7.54    1.64
 -22  -1  11    6.58    1.10
  22   1 -10    0.29    0.90
  22  -1 -10   -1.45    0.81
  22   1 -10   -0.07    0.67
 -22   1  10   -1.41    1.02
  22   1  -9   -0.30    0.93
  22  -1  -9   -0.25    0.86
 -22   1   9    0.55    0.76
  22   1  -9   -0.10    0.70
  22   1  -8   41.47    2.96
  22  -1  -8   42.24    2.90
  22   1  -8   39.42    2.64
 -22   1   8   37.38    2.86
  22   1  -7    5.68    1.31
  22   1  -7    2.77    0.93
  22  -1  -7    3.44    1.13
 -22   1   7    4.99    1.26
  22   1  -6   -0.30    1.03
  22   1  -6    1.10    0.76
  22  -1  -6    1.64    0.86
 -22   1   6    1.20    0.84
  22  -1  -5    1.33    0.80
  22   1  -5    0.25    0.82
  22   1  -5    0.73    0.85
  22  -1  -5    1.74    0.90
  22  -1  -4    0.36    0.77
  22   1  -4   -0.38    0.95
  22   1  -4   -0.27    0.73
  22  -1  -4   -0.26    0.76
  22  -1  -3    1.11    0.89
  22   1  -3    0.31    0.93
  22   1  -3    0.76    0.81
  22  -1  -3    1.55    0.97
  22  -1  -2    2.55    0.93
  22   1  -2    3.83    1.19
  22   1  -2    4.82    1.17
  22  -1  -2    4.51    1.25
  22  -1  -1   26.06    2.26
  22   1  -1   27.87    2.49
  22  -1  -1   26.83    2.47
  22   1  -1   23.72    2.27
  22   1   0   -0.57    0.89
  22  -1   0    0.44    0.83
  22   1   0   -0.57    0.88
  22  -1   0   -0.84    0.97
  22   1   1   -0.73    0.93
  22  -1   1   -0.81    0.77
  22   1   1    0.28    1.18
  22  -1   1    0.46    1.06
  22  -1   2    1.01    0.95
  22   1   2    1.88    1.01
  22   1   2    0.92    0.83
  22  -1   2    0.85    0.91
  22   1   3   13.92    1.88
  22  -1   3   14.81    1.79
  22   1   3   11.36    1.66
  22  -1   4    5.91    1.28
  22   1   4    7.61    1.42
  22   1   5    1.45    0.90
  22  -1   5    3.79    1.07
  22  -1   6    1.24    0.93
  22  -1   7    1.17    0.95
  22  -1   8    0.49    0.83
 -22  -2  27   -3.82    1.39
 -22  -2  26    0.41    0.93
 -22   2  26    3.05    1.02
 -22  -2  25    0.29    1.07
 -22   2  25    2.06    0.95
 -22  -2  24   -2.21    1.10
 -22   2  24    1.11    0.88
 -22   2  23    3.98    1.23
 -22   2  22    1.75    0.89
 -22   2  21    1.09    0.89
 -22   2  20   19.08    1.95
 -22   2  19    0.04    0.83
 -22   2  18    6.68    1.25
  22   2 -17    5.26    1.28
 -22   2  17    5.78    1.26
  22   2 -16    4.05    1.26
 -22   2  16    3.64    1.05
  22   2 -15    5.84    1.34
 -22   2  15    5.77    1.28
  22   2 -14    7.23    1.35
 -22   2  14    6.07    1.24
  22   2 -14    9.30    1.31
  22   2 -13   -0.13    0.85
 -22   2  13   -0.78    0.92
  22   2 -13   -0.57    0.61
  22   2 -12    2.77    1.04
 -22   2  12    2.38    1.01
  22   2 -12    4.10    0.90
  22   2 -11    0.86    0.90
  22   2 -11   -0.98    0.74
 -22   2  11    0.13    0.82
  22   2 -10   26.10    2.47
 -22   2  10   23.04    2.18
  22   2 -10   24.15    2.02
  22   2  -9   16.83    2.06
  22   2  -9   14.87    1.65
 -22   2   9   16.36    1.92
  22   2  -8   24.45    2.40
  22   2  -8   20.28    1.96
 -22   2   8   21.52    2.16
  22   2  -7    9.39    1.55
  22  -2  -7    8.88    1.46
  22   2  -7    7.73    1.39
 -22   2   7   11.60    1.71
  22   2  -6    3.79    1.20
  22  -2  -6    2.51    1.18
  22   2  -6    1.58    0.87
 -22   2   6    1.89    0.92
  22   2  -5    1.76    1.08
  22  -2  -5    0.46    0.84
  22   2  -5    1.30    0.92
 -22   2   5    0.51    0.87
  22   2  -4    1.14    0.99
  22  -2  -4    0.46    0.84
  22   2  -4    1.14    0.74
 -22   2   4   -0.81    0.95
  22   2  -3    7.85    1.52
  22   2  -3    7.95    1.44
  22  -2  -3    6.61    1.48
 -22   2   3    6.31    1.41
  22   2  -2    0.39    0.94
  22   2  -2    0.37    0.84
  22  -2  -2    0.39    0.99
 -22   2   2   -1.55    1.09
  22   2  -1    8.19    1.55
  22   2  -1    9.42    1.56
  22  -2  -1    7.23    1.43
  22   2   0    2.72    1.06
  22   2   1    0.32    0.93
  22   2   2    3.48    1.16
 -22   3  18   -0.43    0.89
 -22   3  17    1.06    1.02
 -22   3  16   -0.06    0.90
 -22   3  15   -0.16    0.90
 -22   3  14    1.33    0.88
 -22   3  13    4.19    1.25
 -22   3  12   14.81    1.86
  22   3 -11    0.91    0.82
 -22   3  11    2.53    1.13
  22   3 -10   -0.34    0.68
 -22   3  10    0.29    0.92
 -22   3   9    1.10    0.93
  22   3  -9    1.61    0.86
  22   3  -8    1.71    0.83
  22   3  -7    4.39    1.13
  22   3  -6    2.55    0.90
  22   3  -5   -0.49    0.79
  22   3  -4    8.70    1.46
  22   3  -3    0.90    0.84
  22   3  -2    3.03    1.12
  22   3  -1   16.08    2.00
  22   3   0    2.29    1.02
  22   4  -6   -0.18    0.81
  22   4  -5   12.63    1.79
  22   4  -4    0.91    0.97
  22   4  -3    7.48    1.44
 -23   0  27   37.31    2.91
 -23   0  26   -0.42    0.71
 -23   0  25   35.11    2.70
 -23   0  24    0.76    0.81
 -23   0  23   60.62    3.38
 -23   0  22    2.06    0.96
 -23   0  21   80.47    3.72
 -23   0  20    0.73    0.85
 -23   0  19   55.71    2.92
 -23   0  18    0.09    0.72
 -23   0  17   13.43    1.56
 -23   0  16    0.72    0.73
 -23   0  15   33.80    2.36
  23   0 -14    0.97    0.87
 -23   0  14    1.22    1.01
  23   0 -13   99.37    4.25
 -23   0  13  100.24    4.12
  23   0 -12    0.41    0.91
 -23   0  12    1.48    0.92
  23   0 -11   70.78    3.64
 -23   0  11   68.78    3.47
  23   0 -10    1.71    1.07
  23   0 -10    1.59    1.00
 -23   0  10    2.56    1.04
  23   0  -9   46.63    3.18
  23   0  -9   41.46    2.83
 -23   0   9   45.45    2.88
  23   0  -8    2.28    1.22
  23   0  -8    0.75    0.96
  23   0  -7   37.68    2.86
  23   0  -7   37.42    2.78
  23   0  -6   -0.11    0.89
  23   0  -6    1.35    1.00
  23   0  -5    9.40    1.61
  23   0  -5    7.52    1.43
  23   0  -4   -0.92    0.97
  23   0  -4    0.00    1.19
  23   0  -3   12.14    1.76
  23   0  -3   13.75    1.82
  23   0  -2    1.37    1.01
  23   0  -2    2.14    1.42
  23   0  -1   30.52    2.67
  23   0  -1   27.86    2.50
  23   0   0    0.12    0.83
  23   0   0    1.14    0.89
  23   0   1   28.76    2.56
  23   0   2    1.27    1.02
  23   0   3   16.78    2.00
  23   0   4    1.02    0.78
  23   0   5   14.87    1.93
  23   0   6   -0.75    0.88
 -23  -1  26    9.39    1.48
 -23  -1  25    1.86    0.70
 -23   1  22   56.63    3.16
 -23   1  21    0.84    0.84
 -23   1  20   28.91    2.32
 -23   1  19   -0.30    0.78
 -23   1  18    0.80    0.89
 -23   1  17    0.51    0.76
 -23   1  16   23.38    2.15
  23   1 -16   24.05    1.94
  23   1 -15    6.47    1.15
 -23   1  15    7.03    1.27
 -23  -1  15    9.19    1.24
  23   1 -14   42.43    3.12
  23   1 -14   39.26    2.57
 -23   1  14   40.43    2.78
 -23  -1  14   41.32    2.43
  23   1 -13    5.29    1.29
  23   1 -13    4.92    1.05
 -23   1  13    7.33    1.39
 -23  -1  13    7.57    1.19
  23   1 -12   33.11    2.73
  23   1 -12   27.83    2.20
 -23   1  12   31.27    2.48
 -23  -1  12   30.57    2.19
  23   1 -11    2.89    1.22
  23  -1 -11    2.27    1.01
  23   1 -11    1.72    0.91
 -23   1  11    3.73    1.15
 -23  -1  11    0.32    0.74
  23   1 -10   76.09    4.10
  23  -1 -10   75.73    3.94
  23   1 -10   71.88    3.62
 -23   1  10   70.01    3.69
  23   1  -9    2.33    1.25
  23  -1  -9    0.64    0.81
  23   1  -9    1.67    0.88
 -23   1   9    1.21    0.94
  23   1  -8   23.11    2.27
  23  -1  -8   21.12    2.21
 -23   1   8   21.60    2.17
  23   1  -8   19.46    2.02
  23   1  -7    0.85    0.91
  23   1  -7   -0.07    0.85
  23  -1  -7    0.11    1.10
 -23   1   7    0.19    0.90
  23   1  -6   31.50    2.67
  23  -1  -6   26.97    2.50
  23   1  -6   29.95    2.43
 -23   1   6   30.63    2.56
  23   1  -5    6.79    1.51
  23   1  -5    4.13    1.09
  23  -1  -5    7.05    1.41
 -23   1   5    8.42    1.54
  23  -1  -4    4.74    1.27
  23   1  -4    4.40    1.33
  23   1  -4    4.43    1.18
  23  -1  -4    4.82    1.07
  23  -1  -3    0.47    0.76
  23   1  -3    1.60    1.06
  23   1  -3    1.86    0.86
  23  -1  -3    0.66    0.92
  23  -1  -2   19.49    2.11
  23   1  -2   23.69    2.38
  23  -1  -2   21.41    2.32
  23   1  -2   25.87    2.41
  23  -1  -1    1.37    0.95
  23   1  -1    0.65    1.01
  23   1  -1    0.31    0.79
  23  -1   0   42.15    2.94
  23   1   0   43.89    3.29
  23   1   0   43.75    3.15
  23  -1   1    1.05    0.91
  23  -1   2   32.10    2.63
  23  -1   3    1.86    1.00
  23  -1   4   16.83    1.93
  23  -1   5    4.31    1.28
  23  -1   6    9.82    1.59
 -23   2  25   21.99    2.21
 -23   2  24    2.71    1.20
 -23   2  23   59.88    3.57
 -23   2  22    9.14    1.56
 -23   2  21   27.16    2.34
 -23   2  20    5.19    1.38
 -23   2  19    6.76    1.40
 -23   2  18    5.65    1.35
 -23   2  17   47.69    3.15
 -23   2  16   14.30    1.82
 -23   2  15   30.94    2.59
 -23   2  14   25.72    2.36
 -23   2  13   25.05    2.37
  23   2 -13   28.54    2.16
 -23   2  12    7.63    1.57
  23   2 -12    5.34    1.07
  23   2 -11   45.15    2.77
 -23   2  11   45.31    3.09
  23   2 -10    1.64    0.88
 -23   2  10    2.82    1.19
 -23   2   9   81.42    4.19
  23   2  -9   78.14    3.79
  23   2  -8   14.64    1.79
 -23   2   8   14.09    1.89
  23   2  -7   28.51    2.40
 -23   2   7   23.71    2.32
  23  -2  -7   24.82    2.49
  23  -2  -6   15.61    2.03
  23   2  -6    9.35    1.48
 -23   2   6   11.22    1.66
  23   2  -5   16.94    1.92
 -23   2   5   17.76    2.15
  23   2  -4    3.04    1.10
  23   2  -3   25.46    2.35
  23   2  -2   -0.33    0.78
  23   2  -1   48.74    3.33
  23   3  -9   14.97    1.74
  23   3  -8    8.59    1.46
  23   3  -7    4.82    1.13
  23   3  -6    8.63    1.46
  23   3  -5    5.21    1.24
  23   3  -4    3.02    1.08
  23   3  -3    9.29    1.53
 -24   0  17    1.68    0.78
 -24   0  16   10.43    1.41
 -24   0  15   -0.40    0.78
  24   0 -14   56.95    3.27
 -24   0  14   58.79    3.22
  24   0 -13    0.42    0.74
 -24   0  13   -0.17    0.84
  24   0 -12   35.75    2.66
 -24   0  12   36.67    2.62
  24   0 -11    0.77    1.05
 -24   0  11    0.89    0.95
  24   0 -10   24.83    2.49
  24   0 -10   27.84    2.41
 -24   0  10   26.62    2.32
  24   0  -9    1.51    1.21
  24   0  -9    1.79    1.05
 -24   0   9    2.25    1.12
  24   0  -8  145.17    5.79
  24   0  -8  140.16    5.48
 -24   0   8  143.04    5.37
  24   0  -7    0.23    0.83
  24   0  -7    2.55    1.04
  24   0  -6   48.28    3.32
  24   0  -6   43.75    3.08
  24   0  -5    0.75    1.03
  24   0  -5    1.99    1.00
  24   0  -4   10.24    1.63
  24   0  -4   11.35    1.71
  24   0  -3    1.12    1.16
  24   0  -2  141.99    5.68
  24   0  -1    2.36    1.21
 -24   1  21    2.49    1.03
 -24   1  20    3.98    1.10
 -24   1  19    1.28    0.93
 -24   1  18    2.02    0.98
 -24   1  17   17.22    1.91
 -24   1  16    0.53    0.87
  24   1 -15    2.63    0.93
 -24   1  15    4.05    1.05
  24   1 -14   -0.71    0.77
 -24   1  14    1.61    1.01
  24   1 -13    0.86    0.80
 -24   1  13    0.03    0.82
 -24  -1  13   -1.39    0.86
  24   1 -12    4.41    1.05
 -24   1  12    3.93    1.06
 -24  -1  12    4.32    1.03
  24  -1 -11   10.48    1.60
  24   1 -11    8.83    1.44
 -24   1  11    9.52    1.51
 -24  -1  11    8.01    1.36
  24  -1 -10    7.29    1.43
  24   1 -10    6.12    1.25
 -24   1  10    5.22    1.28
 -24  -1  10    6.27    1.20
  24  -1  -9   16.44    1.92
  24   1  -9   17.80    1.95
 -24   1   9   17.01    1.98
  24  -1  -8   -1.49    1.14
  24   1  -8    0.98    0.96
 -24   1   8   -0.16    0.87
  24  -1  -7    7.00    1.35
 -24   1   7    8.69    1.61
  24   1  -7    7.69    1.42
  24   1  -6   14.06    1.91
  24  -1  -6   15.41    2.05
 -24   1   6   12.81    1.72
  24   1  -5    5.23    1.31
 -24   1   5    1.26    0.91
  24   1  -4   23.26    2.32
  24  -1  -3    5.21    1.22
  24   1  -3    7.16    1.49
  24  -1  -2    0.52    0.91
  24  -1  -1    5.04    1.33
  24  -1   0    3.37    1.12
  24  -1   1    4.25    1.13
  24  -1   2    8.74    1.56
  24  -1   3    2.07    1.12
  24  -1   4    1.37    0.87
 -24   2  22    7.91    1.47
 -24   2  21   18.07    2.08
 -24   2  20    1.06    0.83
 -24   2  19    3.73    1.24
 -24   2  18    0.37    0.88
 -24   2  17    9.68    1.67
 -24   2  16    2.34    1.13
 -24   2  15    6.86    1.53
 -24   2  14   -0.83    0.93
 -24   2  13    6.02    1.37
 -24   2  12    1.66    1.13
  24   2 -12    0.67    0.83
 -24   2  11    1.73    0.93
  24   2 -11   -0.73    0.80
  24   2 -10   -1.27    0.86
  24   2  -9   13.10    1.68
  24   2  -8    0.58    0.75
  24   2  -7   20.99    2.14
  24   2  -6    0.13    0.86
  24   2  -5    2.41    1.03
  24   2  -4    3.74    1.14
  24   3  -8    1.19    0.80
  24   3  -7   -0.13    0.93
  24   3  -6   10.78    1.66
  24   3  -5    0.82    0.84
 -25   0  16   -0.19    0.82
 -25   0  15   14.24    1.76
  25   0 -14    2.22    1.08
 -25   0  14   -0.67    0.93
  25   0 -13   74.48    3.90
 -25   0  13   77.17    3.80
  25   0 -12    2.93    1.15
 -25   0  12    1.20    0.98
  25   0 -11   48.10    3.18
 -25   0  11   47.77    3.08
  25   0 -10    0.54    0.80
 -25   0  10    3.80    1.25
  25   0  -9   17.86    2.11
 -25   0   9   18.49    2.01
  25   0  -8    1.74    1.12
 -25   0   8    1.01    1.02
  25   0  -7   37.87    2.93
 -25   1  19    2.24    1.02
 -25   1  18   38.61    2.78
 -25   1  17    1.37    0.97
 -25   1  16   16.48    1.97
 -25   1  15   12.19    1.80
  25   1 -14   58.25    3.31
 -25   1  14   57.10    3.47
  25   1 -13    2.20    1.12
 -25   1  13    0.82    0.88
  25   1 -12   51.25    3.17
 -25   1  12   52.72    3.32
  25  -1 -11    0.29    0.84
  25   1 -11    0.31    0.88
 -25  -1  11    0.74    0.85
  25  -1 -10   67.22    3.94
  25   1 -10   69.45    3.81
 -25   1  10   65.47    3.79
 -25  -1  10   70.46    3.64
  25   1  -9    3.61    1.22
 -25   1   9    2.50    1.06
  25   1  -8   54.67    3.45
 -25   1   8   52.17    3.47
  25   1  -7    2.24    1.17
  25   1  -6   30.58    2.66
  25   2 -11   45.37    3.00
  25   2 -10   25.14    2.30
  25   2  -9   54.57    3.38
  25   2  -8   12.32    1.72
  25   2  -7   31.99    2.66
  26   0 -14   -0.23    0.79
 -26   0  14   -0.25    0.82
  26   0 -13   -0.03    0.77
 -26   0  13    0.19    0.82
  26   0 -12    3.50    1.12
 -26   0  12    4.64    1.24
  26   0 -11    1.37    0.89
 -26   0  11    0.93    0.94
 -26   0  10   17.58    2.02
 -26   0   9    0.01    0.91
 -26   0   8    8.60    1.58
 -26   1  17   -0.44    0.95
 -26   1  16    5.89    1.33
 -26   1  15    4.94    1.25
 -26   1  14   11.93    1.75
  26   1 -13    0.56    0.80
  26   1 -12    0.79    0.93
  26   1 -11   13.82    1.90
  26   1 -10    2.28    1.02
 -26  -1   9    3.36    1.23
   0   0   0    0.00    0.00


TITL pvl671_auto in P2/n
REM P2/n (#13 in standard setting)
CELL 0.71073  19.452979   5.814379  27.156160  90.0000 108.0536  90.0000
ZERR    5.00   0.000704   0.000205   0.001031   0.0000   0.0041   0.0000
LATT  1
SYMM -x+1/2, y,-z+1/2
SFAC C H N O S Co
UNIT 100.00 100.00 40.00 20.00 5.00 5.00
REM  CrysAlisPro recorded range (K): Min=140.0; max=140.0; aver:140.0
TEMP -133
TREF
HKLF 4
END
_computing_structure_solution     'SHELXT 2018/2 (Sheldrick, 2018)'
;
_shelx_hkl_checksum   52556

