 
data_pvl482
 
_audit_creation_method            'SHELXL-2018/3'
_shelx_SHELXL_version_number      '2018/3'
_chemical_name_systematic         ?
_chemical_name_common             ?
_chemical_melting_point           ?
_chemical_formula_moiety          ?
_chemical_formula_sum
 'C H N O S Zn' 
_chemical_formula_weight          140.46

loop_
 _atom_type_symbol
 _atom_type_description
 _atom_type_scat_dispersion_real
 _atom_type_scat_dispersion_imag
 _atom_type_scat_source
 'C'  'C'   0.0040   0.0018
 'International Tables Vol C Tables 4.2.6.8 and 6.1.1.4'
 'H'  'H'   0.0000   0.0000
 'International Tables Vol C Tables 4.2.6.8 and 6.1.1.4'
 'N'  'N'   0.0074   0.0036
 'International Tables Vol C Tables 4.2.6.8 and 6.1.1.4'
 'O'  'O'   0.0129   0.0068
 'International Tables Vol C Tables 4.2.6.8 and 6.1.1.4'
 'S'  'S'   0.1338   0.1366
 'International Tables Vol C Tables 4.2.6.8 and 6.1.1.4'
 'Zn'  'Zn'   0.2827   1.5937
 'International Tables Vol C Tables 4.2.6.8 and 6.1.1.4'
 
_space_group_crystal_system       monoclinic
_space_group_IT_number            15
_space_group_name_H-M_alt         'C 2/c'
_space_group_name_Hall            '-C 2yc'
 
_shelx_space_group_comment
;
The symmetry employed for this shelxl refinement is uniquely defined
by the following loop, which should always be used as a source of
symmetry information in preference to the above space-group names.
They are only intended as comments.
;
 
loop_
 _space_group_symop_operation_xyz
 'x, y, z'
 '-x, y, -z+1/2'
 'x+1/2, y+1/2, z'
 '-x+1/2, y+1/2, -z+1/2'
 '-x, -y, -z'
 'x, -y, z-1/2'
 '-x+1/2, -y+1/2, -z'
 'x+1/2, -y+1/2, z-1/2'
 
_cell_length_a                    36.463(7)
_cell_length_b                    7.5920(15)
_cell_length_c                    24.881(5)
_cell_angle_alpha                 90
_cell_angle_beta                  106.17(3)
_cell_angle_gamma                 90
_cell_volume                      6615(2)
_cell_formula_units_Z             62
_cell_measurement_temperature     293(2)
_cell_measurement_reflns_used     ?
_cell_measurement_theta_min       ?
_cell_measurement_theta_max       ?
 
_exptl_crystal_description        ?
_exptl_crystal_colour             ?
_exptl_crystal_density_meas       ?
_exptl_crystal_density_method     ?
_exptl_crystal_density_diffrn     2.186          
_exptl_crystal_F_000              4216
_exptl_transmission_factor_min    ?
_exptl_transmission_factor_max    ?
_exptl_crystal_size_max           ?
_exptl_crystal_size_mid           ?
_exptl_crystal_size_min           ?
_exptl_absorpt_coefficient_mu     6.830
_shelx_estimated_absorpt_T_min    ?
_shelx_estimated_absorpt_T_max    ?
_exptl_absorpt_correction_type    ?
_exptl_absorpt_correction_T_min   ?
_exptl_absorpt_correction_T_max   ?
_exptl_absorpt_process_details    ?
_exptl_absorpt_special_details    ?
_diffrn_ambient_temperature       293(2)
_diffrn_radiation_wavelength      0.745
_diffrn_radiation_type            ?
_diffrn_source                    ?
_diffrn_measurement_device_type   ?
_diffrn_measurement_method        ?
_diffrn_detector_area_resol_mean  ?
_diffrn_reflns_number             23961
_diffrn_reflns_av_unetI/netI      0.0382
_diffrn_reflns_av_R_equivalents   0.0344
_diffrn_reflns_limit_h_min        -50
_diffrn_reflns_limit_h_max        43
_diffrn_reflns_limit_k_min        -10
_diffrn_reflns_limit_k_max        10
_diffrn_reflns_limit_l_min        -30
_diffrn_reflns_limit_l_max        34
_diffrn_reflns_theta_min          1.219
_diffrn_reflns_theta_max          31.006
_diffrn_reflns_theta_full         26.551
_diffrn_measured_fraction_theta_max   0.992
_diffrn_measured_fraction_theta_full  0.991
_diffrn_reflns_Laue_measured_fraction_max    0.992
_diffrn_reflns_Laue_measured_fraction_full   0.991
_diffrn_reflns_point_group_measured_fraction_max   0.992
_diffrn_reflns_point_group_measured_fraction_full  0.991
_reflns_number_total              9114
_reflns_number_gt                 7533
_reflns_threshold_expression      'I > 2\s(I)'
_reflns_Friedel_coverage          0.000
_reflns_Friedel_fraction_max      .
_reflns_Friedel_fraction_full     .
 
_reflns_special_details
;
 Reflections were merged by SHELXL according to the crystal
 class for the calculation of statistics and refinement.
 
 _reflns_Friedel_fraction is defined as the number of unique
 Friedel pairs measured divided by the number that would be
 possible theoretically, ignoring centric projections and
 systematic absences.
;
 
_computing_data_collection        ?
_computing_cell_refinement        ?
_computing_data_reduction         ?
_computing_structure_solution     ?
_computing_structure_refinement 'SHELXL-2018/3 (Sheldrick, 2018)'
_computing_molecular_graphics     ?
_computing_publication_material   ?
_refine_special_details           ?
_refine_ls_structure_factor_coef  Fsqd
_refine_ls_matrix_type            full
_refine_ls_weighting_scheme       calc
_refine_ls_weighting_details
'w=1/[\s^2^(Fo^2^)+(0.0672P)^2^+12.1777P] where P=(Fo^2^+2Fc^2^)/3'
_atom_sites_solution_primary      ?
_atom_sites_solution_secondary    ?
_atom_sites_solution_hydrogens    mixed
_refine_ls_hydrogen_treatment     constr
_refine_ls_extinction_method      none
_refine_ls_extinction_coef        .
_refine_ls_number_reflns          9114
_refine_ls_number_parameters      534
_refine_ls_number_restraints      0
_refine_ls_R_factor_all           0.0551
_refine_ls_R_factor_gt            0.0439
_refine_ls_wR_factor_ref          0.1194
_refine_ls_wR_factor_gt           0.1125
_refine_ls_goodness_of_fit_ref    1.042
_refine_ls_restrained_S_all       1.042
_refine_ls_shift/su_max           0.001
_refine_ls_shift/su_mean          0.000
 
loop_
 _atom_site_label
 _atom_site_type_symbol
 _atom_site_fract_x
 _atom_site_fract_y
 _atom_site_fract_z
 _atom_site_U_iso_or_equiv
 _atom_site_adp_type
 _atom_site_occupancy
 _atom_site_site_symmetry_order  
 _atom_site_calc_flag
 _atom_site_refinement_flags_posn
 _atom_site_refinement_flags_adp
 _atom_site_refinement_flags_occupancy
 _atom_site_disorder_assembly
 _atom_site_disorder_group
Zn01 Zn 0.500000 1.04588(5) 0.250000 0.01752(9) Uani 1 2 d S T P . .
Zn02 Zn 0.25360(2) 0.18492(3) 0.17392(2) 0.01878(8) Uani 1 1 d . . . . .
S003 S 0.15220(2) 0.52094(10) -0.08005(3) 0.02799(14) Uani 1 1 d . . . . .
S004 S 0.65750(2) 1.48055(9) 0.43987(3) 0.02693(14) Uani 1 1 d . . . . .
O005 O 0.27249(5) 0.4456(2) 0.18098(7) 0.0197(3) Uani 1 1 d . . . . .
O006 O 0.31618(5) 0.2427(2) 0.18678(8) 0.0251(4) Uani 1 1 d . . . . .
O007 O 0.25069(5) -0.0458(2) 0.13407(7) 0.0201(3) Uani 1 1 d . . . . .
O008 O 0.41532(5) 1.0998(2) 0.23786(9) 0.0283(4) Uani 1 1 d . . . . .
O009 O 0.25171(6) 0.1706(2) 0.07474(8) 0.0251(4) Uani 1 1 d . . . . .
N00A N 0.19569(6) 0.2552(3) 0.14707(8) 0.0215(4) Uani 1 1 d . . . . .
O00B O 0.45732(5) 0.8861(2) 0.24008(8) 0.0245(4) Uani 1 1 d . . . . .
O00C O 0.26093(6) 0.1389(3) 0.25549(8) 0.0301(4) Uani 1 1 d . . . . .
H00A H 0.284677 0.145891 0.273099 0.045 Uiso 1 1 d R U . . .
H00B H 0.255071 0.032011 0.260192 0.045 Uiso 1 1 d R U . . .
N00D N 0.62677(5) 1.6369(3) 0.59894(8) 0.0176(4) Uani 1 1 d . . . . .
N00E N 0.14365(6) 0.3625(3) 0.09121(8) 0.0204(4) Uani 1 1 d . . . . .
C00F C 0.42368(7) 0.9440(3) 0.23453(9) 0.0189(4) Uani 1 1 d . . . . .
N00G N 0.13286(7) 0.2969(3) 0.13587(9) 0.0261(4) Uani 1 1 d . . . . .
N00H N 0.15778(6) 0.4532(3) -0.01694(9) 0.0247(4) Uani 1 1 d . . . . .
N00I N 0.10889(6) 0.5936(3) -0.09502(9) 0.0246(4) Uani 1 1 d . . . . .
C00J C 0.25026(6) -0.4293(3) 0.01265(9) 0.0179(4) Uani 1 1 d . . . . .
H00J H 0.250353 -0.548737 0.020949 0.021 Uiso 1 1 calc R U . . .
N00K N 0.03111(6) 0.6872(3) -0.08788(9) 0.0235(4) Uani 1 1 d . . . . .
N00L N 0.65569(6) 1.5486(3) 0.50067(9) 0.0228(4) Uani 1 1 d . . . . .
N00M N 0.60866(6) 1.6907(3) 0.63766(8) 0.0208(4) Uani 1 1 d . . . . .
N00N N 0.53396(5) 1.2992(2) 0.40329(8) 0.0179(4) Uani 1 1 d . . . . .
C00O C 0.56832(7) 1.5001(3) 0.54532(10) 0.0196(4) Uani 1 1 d . . . . .
H00O H 0.557939 1.523860 0.574712 0.023 Uiso 1 1 calc R U . . .
N00P N 0.49596(6) 1.2818(3) 0.40023(9) 0.0218(4) Uani 1 1 d . . . . .
C00Q C 0.25065(6) -0.1252(3) 0.04133(9) 0.0171(4) Uani 1 1 d . . . . .
C00R C 0.12492(7) 0.4849(3) -0.00431(10) 0.0205(4) Uani 1 1 d . . . . .
C00S C 0.54540(6) 1.4143(3) 0.49695(10) 0.0199(4) Uani 1 1 d . . . . .
H00S H 0.520680 1.380994 0.495966 0.024 Uiso 1 1 calc R U . . .
N00T N 0.61491(6) 1.4021(3) 0.41516(9) 0.0226(4) Uani 1 1 d . . . . .
N00U N -0.00584(6) 0.6872(3) -0.08671(11) 0.0302(5) Uani 1 1 d . . . . .
N00V N 0.50827(6) 1.1774(3) 0.32272(9) 0.0210(4) Uani 1 1 d . . . . .
C00W C 0.59687(7) 1.4260(3) 0.45494(9) 0.0186(4) Uani 1 1 d . . . . .
C00X C 0.18124(7) 0.3361(3) 0.09879(10) 0.0217(4) Uani 1 1 d . . . . .
H00X H 0.194889 0.369478 0.073958 0.026 Uiso 1 1 calc R U . . .
C00Y C 0.30738(7) 0.4018(3) 0.18746(9) 0.0187(4) Uani 1 1 d . . . . .
C00Z C 0.35483(7) 0.8494(3) 0.20579(9) 0.0187(4) Uani 1 1 d . . . . .
H00Z H 0.347894 0.967617 0.203019 0.022 Uiso 1 1 calc R U . . .
C010 C 0.03518(8) 0.7820(3) -0.13173(11) 0.0264(5) Uani 1 1 d . . . . .
H010 H 0.058071 0.799553 -0.140567 0.032 Uiso 1 1 calc R U . . .
C011 C 0.33731(7) 0.5418(3) 0.19756(9) 0.0184(4) Uani 1 1 d . . . . .
C012 C 0.25116(6) 0.0099(3) 0.08554(10) 0.0186(4) Uani 1 1 d . . . . .
N013 N 0.67163(6) 1.7570(3) 0.66632(9) 0.0230(4) Uani 1 1 d . . . . .
C014 C 0.25104(6) -0.3051(3) 0.05391(9) 0.0177(4) Uani 1 1 d . . . . .
H014 H 0.251810 -0.341404 0.089911 0.021 Uiso 1 1 calc R U . . .
C015 C -0.02205(8) 0.7830(4) -0.13127(12) 0.0315(6) Uani 1 1 d . . . . .
H015 H -0.048132 0.805928 -0.142244 0.038 Uiso 1 1 calc R U . . .
C016 C 0.55853(6) 1.3791(3) 0.45178(9) 0.0174(4) Uani 1 1 d . . . . .
C017 C 0.37583(7) 0.4951(3) 0.21416(10) 0.0197(4) Uani 1 1 d . . . . .
H017 H 0.382818 0.376909 0.216812 0.024 Uiso 1 1 calc R U . . .
C018 C 0.32681(6) 0.7204(3) 0.19303(9) 0.0173(4) Uani 1 1 d . . . . .
H018 H 0.301164 0.751989 0.181510 0.021 Uiso 1 1 calc R U . . .
C019 C 0.11624(7) 0.4452(3) 0.04664(10) 0.0208(4) Uani 1 1 d . . . . .
C01A C 0.09658(7) 0.5663(3) -0.04961(10) 0.0209(4) Uani 1 1 d . . . . .
C01B C 0.40375(7) 0.6249(3) 0.22674(10) 0.0208(4) Uani 1 1 d . . . . .
H01B H 0.429411 0.593465 0.237830 0.025 Uiso 1 1 calc R U . . .
N01C N 0.00181(7) 0.8461(3) -0.16014(10) 0.0309(5) Uani 1 1 d . . . . .
C01D C 0.16515(8) 0.2343(4) 0.16791(10) 0.0259(5) Uani 1 1 d . . . . .
H01D H 0.167022 0.180015 0.202085 0.031 Uiso 1 1 calc R U . . .
C01E C 0.08065(7) 0.4851(3) 0.05097(11) 0.0228(4) Uani 1 1 d . . . . .
H01E H 0.074598 0.459068 0.084014 0.027 Uiso 1 1 calc R U . . .
C01F C 0.60515(6) 1.5490(3) 0.55013(9) 0.0178(4) Uani 1 1 d . . . . .
C01G C 0.54082(7) 1.2364(3) 0.35652(10) 0.0193(4) Uani 1 1 d . . . . .
H01G H 0.564439 1.234667 0.349085 0.023 Uiso 1 1 calc R U . . .
C01H C 0.39340(7) 0.8028(3) 0.22277(10) 0.0190(4) Uani 1 1 d . . . . .
C01I C 0.63676(7) 1.7626(3) 0.67682(10) 0.0213(4) Uani 1 1 d . . . . .
H01I H 0.633139 1.813153 0.709017 0.026 Uiso 1 1 calc R U . . .
C01J C 0.62049(6) 1.5111(3) 0.50444(10) 0.0182(4) Uani 1 1 d . . . . .
C01K C 0.05259(7) 0.5655(3) 0.00625(11) 0.0233(5) Uani 1 1 d . . . . .
H01K H 0.028705 0.590995 0.010856 0.028 Uiso 1 1 calc R U . . .
C01L C 0.05984(7) 0.6064(3) -0.04336(10) 0.0220(4) Uani 1 1 d . . . . .
C01M C 0.66434(7) 1.6781(3) 0.61717(10) 0.0214(4) Uani 1 1 d . . . . .
H01M H 0.682316 1.654279 0.597965 0.026 Uiso 1 1 calc R U . . .
C01N C 0.48202(7) 1.2085(3) 0.35089(10) 0.0226(4) Uani 1 1 d . . . . .
H01N H 0.456324 1.180302 0.336524 0.027 Uiso 1 1 calc R U . . .
O1 O 0.000000 1.0445(11) -0.250000 0.0558(19) Uani 0.5 2 d S T P . .
 
loop_
 _atom_site_aniso_label
 _atom_site_aniso_U_11
 _atom_site_aniso_U_22
 _atom_site_aniso_U_33
 _atom_site_aniso_U_23
 _atom_site_aniso_U_13
 _atom_site_aniso_U_12
Zn01 0.01478(17) 0.02010(17) 0.01654(17) 0.000 0.00245(12) 0.000
Zn02 0.02147(14) 0.01590(13) 0.01794(13) -0.00158(9) 0.00376(10) -0.00242(9)
S003 0.0206(3) 0.0396(3) 0.0252(3) 0.0088(3) 0.0088(2) 0.0062(2)
S004 0.0192(3) 0.0397(3) 0.0230(3) -0.0080(2) 0.0078(2) -0.0079(2)
O005 0.0176(7) 0.0178(7) 0.0240(8) -0.0022(6) 0.0065(6) -0.0019(6)
O006 0.0246(9) 0.0159(7) 0.0324(9) -0.0004(7) 0.0038(7) -0.0008(6)
O007 0.0235(8) 0.0176(7) 0.0188(7) -0.0030(6) 0.0053(6) -0.0001(6)
O008 0.0234(9) 0.0182(8) 0.0407(10) -0.0025(7) 0.0050(8) -0.0012(7)
O009 0.0354(10) 0.0158(7) 0.0245(8) -0.0021(6) 0.0089(7) -0.0021(7)
N00A 0.0219(9) 0.0220(9) 0.0191(9) -0.0025(7) 0.0031(7) -0.0016(7)
O00B 0.0176(8) 0.0212(8) 0.0339(9) -0.0006(7) 0.0058(7) -0.0022(6)
O00C 0.0290(9) 0.0394(10) 0.0188(8) 0.0029(7) 0.0016(7) -0.0143(8)
N00D 0.0163(8) 0.0180(8) 0.0178(8) -0.0014(7) 0.0034(7) 0.0012(7)
N00E 0.0212(9) 0.0197(9) 0.0201(9) -0.0024(7) 0.0056(7) -0.0031(7)
C00F 0.0173(10) 0.0206(10) 0.0177(9) 0.0009(8) 0.0032(8) -0.0019(8)
N00G 0.0273(11) 0.0323(11) 0.0212(9) -0.0001(8) 0.0106(8) -0.0007(9)
N00H 0.0190(9) 0.0297(10) 0.0259(10) 0.0040(8) 0.0072(8) 0.0002(8)
N00I 0.0212(10) 0.0271(10) 0.0245(10) 0.0026(8) 0.0048(8) 0.0019(8)
C00J 0.0168(10) 0.0160(9) 0.0194(10) 0.0009(8) 0.0028(8) -0.0001(7)
N00K 0.0227(10) 0.0191(9) 0.0295(10) -0.0066(8) 0.0087(8) -0.0018(7)
N00L 0.0171(9) 0.0271(10) 0.0239(9) -0.0023(8) 0.0051(7) -0.0026(8)
N00M 0.0184(9) 0.0253(10) 0.0187(9) -0.0016(7) 0.0051(7) 0.0006(7)
N00N 0.0167(9) 0.0165(8) 0.0199(9) -0.0012(7) 0.0041(7) -0.0001(7)
C00O 0.0202(10) 0.0195(10) 0.0199(10) -0.0022(8) 0.0072(8) 0.0001(8)
N00P 0.0146(9) 0.0256(9) 0.0247(10) -0.0059(8) 0.0050(7) -0.0032(7)
C00Q 0.0155(9) 0.0163(9) 0.0189(10) -0.0002(8) 0.0039(7) 0.0011(7)
C00R 0.0178(10) 0.0195(10) 0.0233(11) -0.0009(8) 0.0044(8) -0.0021(8)
C00S 0.0161(10) 0.0198(10) 0.0238(10) -0.0014(8) 0.0051(8) -0.0003(8)
N00T 0.0195(9) 0.0275(10) 0.0204(9) -0.0018(8) 0.0051(7) -0.0026(8)
N00U 0.0186(10) 0.0350(12) 0.0358(12) -0.0067(10) 0.0057(9) 0.0024(9)
N00V 0.0169(9) 0.0224(9) 0.0226(9) -0.0055(7) 0.0035(7) -0.0016(7)
C00W 0.0174(10) 0.0175(9) 0.0199(10) -0.0002(8) 0.0036(8) 0.0010(8)
C00X 0.0222(11) 0.0208(10) 0.0215(10) -0.0009(8) 0.0054(8) -0.0022(8)
C00Y 0.0210(10) 0.0185(9) 0.0162(9) -0.0002(7) 0.0047(8) 0.0002(8)
C00Z 0.0215(10) 0.0156(9) 0.0185(10) 0.0010(7) 0.0047(8) 0.0006(8)
C010 0.0254(12) 0.0225(11) 0.0292(12) -0.0052(9) 0.0039(10) 0.0029(9)
C011 0.0206(10) 0.0169(9) 0.0177(9) -0.0003(7) 0.0049(8) 0.0008(8)
C012 0.0152(9) 0.0189(10) 0.0208(10) -0.0023(8) 0.0037(8) -0.0011(8)
N013 0.0219(10) 0.0244(10) 0.0207(9) -0.0026(8) 0.0027(7) -0.0018(8)
C014 0.0168(10) 0.0177(10) 0.0183(9) 0.0009(8) 0.0042(8) 0.0000(8)
C015 0.0214(12) 0.0361(14) 0.0338(14) -0.0090(11) 0.0024(10) 0.0060(10)
C016 0.0161(9) 0.0151(9) 0.0193(10) -0.0002(7) 0.0022(8) -0.0005(7)
C017 0.0211(10) 0.0163(9) 0.0221(10) 0.0022(8) 0.0066(8) 0.0017(8)
C018 0.0167(10) 0.0167(9) 0.0180(9) 0.0007(7) 0.0042(7) 0.0012(8)
C019 0.0206(10) 0.0200(10) 0.0208(10) -0.0031(8) 0.0041(8) -0.0027(8)
C01A 0.0182(10) 0.0197(10) 0.0243(11) -0.0023(8) 0.0049(8) -0.0019(8)
C01B 0.0191(10) 0.0191(10) 0.0233(10) 0.0027(8) 0.0042(8) 0.0013(8)
N01C 0.0283(11) 0.0300(11) 0.0299(11) -0.0080(9) 0.0010(9) 0.0068(9)
C01D 0.0287(12) 0.0296(12) 0.0207(11) -0.0002(9) 0.0090(9) -0.0010(10)
C01E 0.0229(11) 0.0229(10) 0.0238(11) -0.0035(9) 0.0083(9) -0.0038(9)
C01F 0.0186(10) 0.0158(9) 0.0177(9) -0.0003(7) 0.0029(8) -0.0007(8)
C01G 0.0177(10) 0.0188(9) 0.0215(10) -0.0019(8) 0.0056(8) 0.0010(8)
C01H 0.0189(10) 0.0176(9) 0.0201(10) 0.0022(8) 0.0050(8) 0.0001(8)
C01I 0.0224(11) 0.0214(10) 0.0194(10) -0.0016(8) 0.0046(8) 0.0009(8)
C01J 0.0156(9) 0.0162(9) 0.0218(10) 0.0012(8) 0.0036(8) -0.0002(8)
C01K 0.0178(10) 0.0228(10) 0.0296(12) -0.0070(9) 0.0068(9) -0.0018(8)
C01L 0.0182(10) 0.0198(10) 0.0270(11) -0.0063(9) 0.0048(9) -0.0014(8)
C01M 0.0179(10) 0.0211(10) 0.0247(11) -0.0013(8) 0.0050(8) -0.0008(8)
C01N 0.0173(10) 0.0245(11) 0.0247(11) -0.0048(9) 0.0038(8) -0.0035(9)
O1 0.065(5) 0.062(5) 0.041(4) 0.000 0.015(4) 0.000
 
_geom_special_details
;
 All esds (except the esd in the dihedral angle between two l.s. planes)
 are estimated using the full covariance matrix.  The cell esds are taken
 into account individually in the estimation of esds in distances, angles
 and torsion angles; correlations between esds in cell parameters are only
 used when they are defined by crystal symmetry.  An approximate (isotropic)
 treatment of cell esds is used for estimating esds involving l.s. planes.
;
 
loop_
 _geom_bond_atom_site_label_1
 _geom_bond_atom_site_label_2
 _geom_bond_distance
 _geom_bond_site_symmetry_2
 _geom_bond_publ_flag
Zn01 O00B 1.9342(18) . ?
Zn01 O00B 1.9343(18) 2_655 ?
Zn01 N00V 2.014(2) . ?
Zn01 N00V 2.014(2) 2_655 ?
Zn02 O007 2.0009(16) . ?
Zn02 O00C 2.0026(19) . ?
Zn02 O005 2.0866(17) . ?
Zn02 N00A 2.099(2) . ?
Zn02 O006 2.2571(19) . ?
Zn02 O009 2.4517(19) . ?
Zn02 C00Y 2.511(2) . ?
Zn02 C012 2.550(2) . ?
S003 N00H 1.610(2) . ?
S003 N00I 1.615(2) . ?
S004 N00T 1.617(2) . ?
S004 N00L 1.617(2) . ?
O005 C00Y 1.281(3) . ?
O006 C00Y 1.252(3) . ?
O007 C012 1.284(3) . ?
O008 C00F 1.230(3) . ?
O009 C012 1.251(3) . ?
N00A C00X 1.321(3) . ?
N00A C01D 1.362(3) . ?
O00B C00F 1.274(3) . ?
N00D C01M 1.354(3) . ?
N00D N00M 1.373(3) . ?
N00D C01F 1.417(3) . ?
N00E C00X 1.345(3) . ?
N00E N00G 1.371(3) . ?
N00E C019 1.416(3) . ?
C00F C01H 1.508(3) . ?
N00G C01D 1.313(3) . ?
N00H C00R 1.342(3) . ?
N00I C01A 1.343(3) . ?
C00J C014 1.388(3) . ?
C00J C00Q 1.397(3) 7_545 ?
N00K C010 1.349(4) . ?
N00K N00U 1.356(3) . ?
N00K C01L 1.434(3) . ?
N00L C01J 1.343(3) . ?
N00M C01I 1.319(3) . ?
N00N C01G 1.344(3) . ?
N00N N00P 1.373(3) . ?
N00N C016 1.423(3) . ?
C00O C01F 1.366(3) . ?
C00O C00S 1.418(3) . ?
N00P C01N 1.314(3) . ?
C00Q C014 1.400(3) . ?
C00Q C012 1.500(3) . ?
C00R C019 1.422(3) . ?
C00R C01A 1.439(3) . ?
C00S C016 1.365(3) . ?
N00T C00W 1.344(3) . ?
N00U C015 1.320(4) . ?
N00V C01G 1.327(3) . ?
N00V C01N 1.355(3) . ?
C00W C016 1.423(3) . ?
C00W C01J 1.444(3) . ?
C00Y C011 1.494(3) . ?
C00Z C018 1.387(3) . ?
C00Z C01H 1.397(3) . ?
C010 N01C 1.318(3) . ?
C011 C017 1.395(3) . ?
C011 C018 1.405(3) . ?
N013 C01M 1.321(3) . ?
N013 C01I 1.368(3) . ?
C015 N01C 1.360(4) . ?
C017 C01B 1.389(3) . ?
C019 C01E 1.366(3) . ?
C01A C01L 1.424(3) . ?
C01B C01H 1.398(3) . ?
C01E C01K 1.422(3) . ?
C01F C01J 1.429(3) . ?
C01K C01L 1.368(4) . ?
 
loop_
 _geom_angle_atom_site_label_1
 _geom_angle_atom_site_label_2
 _geom_angle_atom_site_label_3
 _geom_angle
 _geom_angle_site_symmetry_1
 _geom_angle_site_symmetry_3
 _geom_angle_publ_flag
O00B Zn01 O00B 102.31(11) . 2_655 ?
O00B Zn01 N00V 109.83(9) . . ?
O00B Zn01 N00V 106.41(8) 2_655 . ?
O00B Zn01 N00V 106.41(8) . 2_655 ?
O00B Zn01 N00V 109.83(9) 2_655 2_655 ?
N00V Zn01 N00V 120.57(12) . 2_655 ?
O007 Zn02 O00C 108.84(8) . . ?
O007 Zn02 O005 147.42(7) . . ?
O00C Zn02 O005 97.61(8) . . ?
O007 Zn02 N00A 98.93(8) . . ?
O00C Zn02 N00A 101.86(9) . . ?
O005 Zn02 N00A 93.71(7) . . ?
O007 Zn02 O006 98.75(7) . . ?
O00C Zn02 O006 92.63(8) . . ?
O005 Zn02 O006 60.46(6) . . ?
N00A Zn02 O006 152.08(8) . . ?
O007 Zn02 O009 58.64(6) . . ?
O00C Zn02 O009 166.08(8) . . ?
O005 Zn02 O009 92.46(6) . . ?
N00A Zn02 O009 86.97(8) . . ?
O006 Zn02 O009 83.99(7) . . ?
O007 Zn02 C00Y 124.91(8) . . ?
O00C Zn02 C00Y 95.72(8) . . ?
O005 Zn02 C00Y 30.62(7) . . ?
N00A Zn02 C00Y 123.71(8) . . ?
O006 Zn02 C00Y 29.84(7) . . ?
O009 Zn02 C00Y 88.06(7) . . ?
O007 Zn02 C012 29.78(7) . . ?
O00C Zn02 C012 138.22(8) . . ?
O005 Zn02 C012 119.89(7) . . ?
N00A Zn02 C012 93.89(8) . . ?
O006 Zn02 C012 90.83(7) . . ?
O009 Zn02 C012 28.88(6) . . ?
C00Y Zn02 C012 107.22(8) . . ?
N00H S003 N00I 100.59(12) . . ?
N00T S004 N00L 100.84(11) . . ?
C00Y O005 Zn02 93.30(13) . . ?
C00Y O006 Zn02 86.36(14) . . ?
C012 O007 Zn02 99.51(14) . . ?
C012 O009 Zn02 79.91(14) . . ?
C00X N00A C01D 103.8(2) . . ?
C00X N00A Zn02 121.25(18) . . ?
C01D N00A Zn02 134.89(17) . . ?
C00F O00B Zn01 120.90(15) . . ?
C01M N00D N00M 109.61(19) . . ?
C01M N00D C01F 131.7(2) . . ?
N00M N00D C01F 118.67(19) . . ?
C00X N00E N00G 110.1(2) . . ?
C00X N00E C019 130.2(2) . . ?
N00G N00E C019 119.8(2) . . ?
O008 C00F O00B 125.0(2) . . ?
O008 C00F C01H 121.0(2) . . ?
O00B C00F C01H 114.0(2) . . ?
C01D N00G N00E 102.3(2) . . ?
C00R N00H S003 106.99(17) . . ?
C01A N00I S003 106.73(17) . . ?
C014 C00J C00Q 120.0(2) . 7_545 ?
C010 N00K N00U 110.6(2) . . ?
C010 N00K C01L 129.2(2) . . ?
N00U N00K C01L 120.0(2) . . ?
C01J N00L S004 106.65(16) . . ?
C01I N00M N00D 102.43(19) . . ?
C01G N00N N00P 110.26(19) . . ?
C01G N00N C016 131.3(2) . . ?
N00P N00N C016 118.39(19) . . ?
C01F C00O C00S 122.1(2) . . ?
C01N N00P N00N 102.4(2) . . ?
C00J C00Q C014 120.0(2) 7_545 . ?
C00J C00Q C012 119.7(2) 7_545 . ?
C014 C00Q C012 120.4(2) . . ?
N00H C00R C019 127.3(2) . . ?
N00H C00R C01A 112.8(2) . . ?
C019 C00R C01A 120.0(2) . . ?
C016 C00S C00O 122.0(2) . . ?
C00W N00T S004 106.58(16) . . ?
C015 N00U N00K 101.4(2) . . ?
C01G N00V C01N 104.4(2) . . ?
C01G N00V Zn01 128.34(17) . . ?
C01N N00V Zn01 126.88(16) . . ?
N00T C00W C016 126.9(2) . . ?
N00T C00W C01J 113.0(2) . . ?
C016 C00W C01J 120.1(2) . . ?
N00A C00X N00E 109.2(2) . . ?
O006 C00Y O005 119.9(2) . . ?
O006 C00Y C011 120.7(2) . . ?
O005 C00Y C011 119.4(2) . . ?
O006 C00Y Zn02 63.80(13) . . ?
O005 C00Y Zn02 56.07(11) . . ?
C011 C00Y Zn02 174.96(17) . . ?
C018 C00Z C01H 120.4(2) . . ?
N01C C010 N00K 109.7(3) . . ?
C017 C011 C018 119.9(2) . . ?
C017 C011 C00Y 119.8(2) . . ?
C018 C011 C00Y 120.2(2) . . ?
O009 C012 O007 121.9(2) . . ?
O009 C012 C00Q 120.5(2) . . ?
O007 C012 C00Q 117.6(2) . . ?
O009 C012 Zn02 71.21(13) . . ?
O007 C012 Zn02 50.72(11) . . ?
C00Q C012 Zn02 168.25(16) . . ?
C01M N013 C01I 103.5(2) . . ?
C00J C014 C00Q 120.0(2) . . ?
N00U C015 N01C 115.8(2) . . ?
C00S C016 N00N 119.9(2) . . ?
C00S C016 C00W 118.0(2) . . ?
N00N C016 C00W 122.0(2) . . ?
C01B C017 C011 120.0(2) . . ?
C00Z C018 C011 119.8(2) . . ?
C01E C019 N00E 121.0(2) . . ?
C01E C019 C00R 118.4(2) . . ?
N00E C019 C00R 120.6(2) . . ?
N00I C01A C01L 127.2(2) . . ?
N00I C01A C00R 112.9(2) . . ?
C01L C01A C00R 119.9(2) . . ?
C017 C01B C01H 120.2(2) . . ?
C010 N01C C015 102.6(2) . . ?
N00G C01D N00A 114.6(2) . . ?
C019 C01E C01K 121.7(2) . . ?
C00O C01F N00D 120.1(2) . . ?
C00O C01F C01J 118.0(2) . . ?
N00D C01F C01J 121.9(2) . . ?
N00V C01G N00N 108.6(2) . . ?
C00Z C01H C01B 119.7(2) . . ?
C00Z C01H C00F 120.0(2) . . ?
C01B C01H C00F 120.3(2) . . ?
N00M C01I N013 114.7(2) . . ?
N00L C01J C01F 127.3(2) . . ?
N00L C01J C00W 112.9(2) . . ?
C01F C01J C00W 119.7(2) . . ?
C01L C01K C01E 121.7(2) . . ?
C01K C01L C01A 118.3(2) . . ?
C01K C01L N00K 120.7(2) . . ?
C01A C01L N00K 120.9(2) . . ?
N013 C01M N00D 109.8(2) . . ?
N00P C01N N00V 114.3(2) . . ?
 
_refine_diff_density_max    2.187
_refine_diff_density_min   -1.255
_refine_diff_density_rms    0.098

_shelx_res_file
;
TITL pvl482_a.res in C2/c
    pvl482.res
    created by SHELXL-2018/3 at 11:45:22 on 25-Jan-2022
REM Old TITL pvl482 in C2/c
REM SHELXT solution in C2/c: R1 0.087, Rweak 0.005, Alpha 0.061
REM <I/s> 0.413 for 154 systematic absences, Orientation as input
REM Formula found by SHELXT: C72 N23 O16 S4 Zn3
CELL 0.745 36.4634 7.592 24.881 90 106.173 90
ZERR 62 0.0073 0.0015 0.005 0 0.03 0
LATT 7
SYMM -X,+Y,0.5-Z
SFAC C H N O S Zn
DISP C 0.004 0.0018 12.639
DISP H -0 0 0.6258
DISP N 0.0074 0.0036 21.8413
DISP O 0.0129 0.0068 36.524
DISP S 0.1338 0.1366 605.2052
DISP Zn 0.2827 1.5937 6610.3338
UNIT 62 62 62 62 62 62
ACTA

L.S. 6
PLAN  10
BOND
list 4
fmap 2
REM <olex2.extras>
REM <HklSrc "%.\\pvl482.hkl">
REM </olex2.extras>

WGHT    0.067200   12.177700
FVAR       0.07078
ZN01  6    0.500000    1.045882    0.250000    10.50000    0.01478    0.02010 =
         0.01654    0.00000    0.00245    0.00000
ZN02  6    0.253600    0.184920    0.173917    11.00000    0.02147    0.01590 =
         0.01794   -0.00158    0.00376   -0.00242
S003  5    0.152203    0.520938   -0.080049    11.00000    0.02059    0.03965 =
         0.02518    0.00882    0.00878    0.00624
S004  5    0.657501    1.480546    0.439867    11.00000    0.01924    0.03970 =
         0.02303   -0.00805    0.00785   -0.00794
O005  4    0.272486    0.445582    0.180976    11.00000    0.01758    0.01784 =
         0.02403   -0.00216    0.00646   -0.00193
O006  4    0.316178    0.242652    0.186777    11.00000    0.02455    0.01590 =
         0.03239   -0.00038    0.00384   -0.00084
O007  4    0.250691   -0.045798    0.134072    11.00000    0.02352    0.01764 =
         0.01881   -0.00302    0.00533   -0.00005
O008  4    0.415322    1.099811    0.237856    11.00000    0.02341    0.01825 =
         0.04072   -0.00250    0.00498   -0.00118
O009  4    0.251707    0.170555    0.074743    11.00000    0.03541    0.01583 =
         0.02450   -0.00205    0.00894   -0.00215
N00A  3    0.195690    0.255231    0.147068    11.00000    0.02186    0.02197 =
         0.01910   -0.00249    0.00311   -0.00160
O00B  4    0.457316    0.886089    0.240081    11.00000    0.01760    0.02120 =
         0.03389   -0.00062    0.00584   -0.00218
O00C  4    0.260932    0.138867    0.255486    11.00000    0.02902    0.03939 =
         0.01877    0.00291    0.00160   -0.01428
AFIX   7
H00A  2    0.284677    0.145891    0.273099    11.00000   -1.50000
H00B  2    0.255071    0.032011    0.260192    11.00000   -1.50000
AFIX   0
N00D  3    0.626773    1.636904    0.598936    11.00000    0.01632    0.01798 =
         0.01778   -0.00144    0.00343    0.00118
N00E  3    0.143654    0.362453    0.091208    11.00000    0.02123    0.01970 =
         0.02014   -0.00236    0.00557   -0.00314
C00F  1    0.423682    0.944023    0.234528    11.00000    0.01731    0.02065 =
         0.01767    0.00088    0.00315   -0.00187
N00G  3    0.132863    0.296875    0.135868    11.00000    0.02727    0.03229 =
         0.02118   -0.00013    0.01058   -0.00069
N00H  3    0.157783    0.453198   -0.016940    11.00000    0.01901    0.02966 =
         0.02594    0.00400    0.00719    0.00016
N00I  3    0.108894    0.593613   -0.095018    11.00000    0.02120    0.02706 =
         0.02451    0.00256    0.00484    0.00192
C00J  1    0.250263   -0.429270    0.012651    11.00000    0.01683    0.01595 =
         0.01944    0.00088    0.00276   -0.00012
AFIX  43
H00J  2    0.250353   -0.548737    0.020949    11.00000   -1.20000
AFIX   0
N00K  3    0.031110    0.687177   -0.087885    11.00000    0.02273    0.01906 =
         0.02952   -0.00659    0.00868   -0.00176
N00L  3    0.655689    1.548561    0.500674    11.00000    0.01710    0.02715 =
         0.02386   -0.00226    0.00511   -0.00258
N00M  3    0.608664    1.690701    0.637662    11.00000    0.01844    0.02534 =
         0.01868   -0.00164    0.00508    0.00056
N00N  3    0.533961    1.299159    0.403288    11.00000    0.01669    0.01654 =
         0.01991   -0.00117    0.00405   -0.00010
C00O  1    0.568319    1.500101    0.545317    11.00000    0.02021    0.01950 =
         0.01994   -0.00219    0.00723    0.00014
AFIX  43
H00O  2    0.557939    1.523860    0.574712    11.00000   -1.20000
AFIX   0
N00P  3    0.495964    1.281765    0.400227    11.00000    0.01459    0.02564 =
         0.02475   -0.00595    0.00502   -0.00323
C00Q  1    0.250649   -0.125218    0.041335    11.00000    0.01549    0.01634 =
         0.01887   -0.00019    0.00390    0.00107
C00R  1    0.124922    0.484934   -0.004314    11.00000    0.01782    0.01954 =
         0.02334   -0.00091    0.00443   -0.00207
C00S  1    0.545402    1.414309    0.496947    11.00000    0.01608    0.01976 =
         0.02376   -0.00143    0.00514   -0.00028
AFIX  43
H00S  2    0.520680    1.380994    0.495966    11.00000   -1.20000
AFIX   0
N00T  3    0.614909    1.402053    0.415164    11.00000    0.01952    0.02753 =
         0.02037   -0.00180    0.00514   -0.00265
N00U  3   -0.005844    0.687229   -0.086708    11.00000    0.01855    0.03504 =
         0.03578   -0.00672    0.00575    0.00236
N00V  3    0.508270    1.177399    0.322723    11.00000    0.01687    0.02239 =
         0.02261   -0.00552    0.00354   -0.00164
C00W  1    0.596874    1.426011    0.454942    11.00000    0.01738    0.01752 =
         0.01994   -0.00017    0.00357    0.00098
C00X  1    0.181239    0.336076    0.098786    11.00000    0.02218    0.02084 =
         0.02152   -0.00086    0.00539   -0.00223
AFIX  43
H00X  2    0.194889    0.369478    0.073958    11.00000   -1.20000
AFIX   0
C00Y  1    0.307378    0.401831    0.187460    11.00000    0.02103    0.01852 =
         0.01625   -0.00021    0.00470    0.00023
C00Z  1    0.354828    0.849370    0.205786    11.00000    0.02152    0.01561 =
         0.01851    0.00103    0.00466    0.00061
AFIX  43
H00Z  2    0.347894    0.967617    0.203019    11.00000   -1.20000
AFIX   0
C010  1    0.035181    0.782033   -0.131730    11.00000    0.02536    0.02251 =
         0.02917   -0.00517    0.00386    0.00294
AFIX  43
H010  2    0.058071    0.799553   -0.140567    11.00000   -1.20000
AFIX   0
C011  1    0.337307    0.541821    0.197558    11.00000    0.02056    0.01687 =
         0.01769   -0.00025    0.00493    0.00078
C012  1    0.251163    0.009850    0.085543    11.00000    0.01521    0.01890 =
         0.02076   -0.00231    0.00371   -0.00114
N013  3    0.671626    1.757018    0.666323    11.00000    0.02193    0.02436 =
         0.02072   -0.00256    0.00274   -0.00181
C014  1    0.251036   -0.305107    0.053912    11.00000    0.01678    0.01769 =
         0.01827    0.00087    0.00416    0.00002
AFIX  43
H014  2    0.251810   -0.341404    0.089911    11.00000   -1.20000
AFIX   0
C015  1   -0.022046    0.783017   -0.131273    11.00000    0.02135    0.03609 =
         0.03383   -0.00898    0.00239    0.00600
AFIX  43
H015  2   -0.048132    0.805928   -0.142244    11.00000   -1.20000
AFIX   0
C016  1    0.558533    1.379149    0.451783    11.00000    0.01609    0.01507 =
         0.01928   -0.00018    0.00219   -0.00050
C017  1    0.375831    0.495089    0.214163    11.00000    0.02109    0.01631 =
         0.02212    0.00221    0.00655    0.00175
AFIX  43
H017  2    0.382818    0.376909    0.216812    11.00000   -1.20000
AFIX   0
C018  1    0.326810    0.720387    0.193026    11.00000    0.01674    0.01671 =
         0.01801    0.00074    0.00417    0.00117
AFIX  43
H018  2    0.301164    0.751989    0.181510    11.00000   -1.20000
AFIX   0
C019  1    0.116244    0.445245    0.046637    11.00000    0.02055    0.01995 =
         0.02082   -0.00312    0.00413   -0.00265
C01A  1    0.096575    0.566332   -0.049613    11.00000    0.01818    0.01972 =
         0.02427   -0.00231    0.00491   -0.00191
C01B  1    0.403749    0.624922    0.226736    11.00000    0.01913    0.01906 =
         0.02331    0.00274    0.00420    0.00135
AFIX  43
H01B  2    0.429411    0.593465    0.237830    11.00000   -1.20000
AFIX   0
N01C  3    0.001814    0.846108   -0.160142    11.00000    0.02833    0.03002 =
         0.02994   -0.00802    0.00101    0.00680
C01D  1    0.165154    0.234275    0.167915    11.00000    0.02870    0.02958 =
         0.02067   -0.00023    0.00897   -0.00102
AFIX  43
H01D  2    0.167022    0.180015    0.202085    11.00000   -1.20000
AFIX   0
C01E  1    0.080646    0.485147    0.050968    11.00000    0.02288    0.02287 =
         0.02376   -0.00352    0.00833   -0.00382
AFIX  43
H01E  2    0.074598    0.459068    0.084014    11.00000   -1.20000
AFIX   0
C01F  1    0.605149    1.548978    0.550132    11.00000    0.01855    0.01581 =
         0.01766   -0.00033    0.00293   -0.00073
C01G  1    0.540820    1.236425    0.356523    11.00000    0.01768    0.01878 =
         0.02152   -0.00189    0.00558    0.00097
AFIX  43
H01G  2    0.564439    1.234667    0.349085    11.00000   -1.20000
AFIX   0
C01H  1    0.393400    0.802779    0.222769    11.00000    0.01885    0.01760 =
         0.02013    0.00224    0.00496    0.00009
C01I  1    0.636756    1.762635    0.676825    11.00000    0.02236    0.02142 =
         0.01944   -0.00161    0.00464    0.00086
AFIX  43
H01I  2    0.633139    1.813153    0.709017    11.00000   -1.20000
AFIX   0
C01J  1    0.620492    1.511125    0.504437    11.00000    0.01565    0.01619 =
         0.02185    0.00115    0.00360   -0.00016
C01K  1    0.052594    0.565534    0.006252    11.00000    0.01777    0.02275 =
         0.02959   -0.00703    0.00677   -0.00178
AFIX  43
H01K  2    0.028705    0.590995    0.010856    11.00000   -1.20000
AFIX   0
C01L  1    0.059845    0.606371   -0.043356    11.00000    0.01817    0.01982 =
         0.02704   -0.00625    0.00484   -0.00135
C01M  1    0.664342    1.678051    0.617169    11.00000    0.01787    0.02105 =
         0.02475   -0.00129    0.00500   -0.00081
AFIX  43
H01M  2    0.682316    1.654279    0.597965    11.00000   -1.20000
AFIX   0
C01N  1    0.482022    1.208461    0.350887    11.00000    0.01729    0.02455 =
         0.02468   -0.00483    0.00377   -0.00350
AFIX  43
H01N  2    0.456324    1.180302    0.336524    11.00000   -1.20000
AFIX   0

O1    4    0.000000    1.044481   -0.250000    10.25000    0.06471    0.06191 =
         0.04080    0.00000    0.01461    0.00000
HKLF 4




REM  pvl482_a.res in C2/c
REM wR2 = 0.1194, GooF = S = 1.042, Restrained GooF = 1.042 for all data
REM R1 = 0.0439 for 7533 Fo > 4sig(Fo) and 0.0551 for all 9114 data
REM 534 parameters refined using 0 restraints

END

WGHT      0.0672     12.2063

REM Highest difference peak  2.187,  deepest hole -1.255,  1-sigma level  0.098
Q1    1   0.5000  1.1428  0.2500  10.50000  0.05    2.19
Q2    1   0.5168  1.0558  0.2174  11.00000  0.05    0.56
Q3    1   0.5005  1.1450  0.2915  11.00000  0.05    0.55
Q4    1   0.4989  0.9176  0.2798  11.00000  0.05    0.54
Q5    1   0.2386  0.1847  0.2095  11.00000  0.05    0.54
Q6    1   0.4707  0.9582  0.2504  11.00000  0.05    0.50
Q7    1   0.2700  0.1939  0.1403  11.00000  0.05    0.50
Q8    1   0.0150  0.7011 -0.1076  11.00000  0.05    0.49
Q9    1   0.2786  0.2860  0.1667  11.00000  0.05    0.49
Q10   1   0.2614  0.2477  0.2220  11.00000  0.05    0.48
;
_shelx_res_checksum   80258

_shelx_hkl_file
;
   0   0   2   12.61    0.51
   0   0  -2   13.48    0.53
   0   0   3    0.17    0.35
   0   0  -3    0.49    0.32
   0   0   4    5.33    0.49
   0   0  -4    6.04    0.47
   0   0   5   -0.27    0.51
   0   0  -5    0.13    0.46
   0   0   6   38.82    1.54
   0   0  -6   40.51    1.56
   0   0  -7   -0.27    0.53
   0   0   8  133.70    4.53
   0   0  -8  131.30    4.45
   0   0   9   -0.18    0.48
   0   0  -9   -0.28    0.53
   0   0  10   76.91    2.72
   0   0 -10   79.17    2.80
   0   0  11    0.64    0.49
   0   0 -11   -0.39    0.53
   0   0  12 1007.00   32.78
   0   0  13    0.48    0.57
   0   0 -13   -0.31    0.58
   0   0  14  104.10    3.64
   0   0 -14  106.10    3.69
   0   0  15    0.82    0.59
   0   0 -15    0.56    0.58
   0   0  16  137.00    4.72
   0   0 -16  141.70    4.85
   0   0  17    0.41    0.60
   0   0 -17    0.00    0.56
   0   0  18    0.79    0.62
   0   0 -18   -0.21    0.59
   0   0  19    0.40    0.57
   0   0  20   40.03    1.70
   0   0  21   -0.11    0.75
   0   0  22  273.10    9.16
   0   0  23    0.57    0.78
   0   0  24  109.80    3.92
   0   0  25    0.40    0.75
   0   0  26  113.50    4.05
   0   0  27   -0.41    0.76
   0   0  28   10.50    0.95
   0   0  29    1.30    0.78
   0   0  30    8.52    0.86
   0   0  31   -0.79    0.90
   0   0  32   11.24    1.05
   0  -2   0    3.93    0.57
   0   2   0    3.82    0.57
   0  -2   1    1.17    0.51
   0  -2  -1    0.32    0.50
   0   2   1    0.90    0.47
   0   2  -1    0.08    0.53
   0  -2   5  265.20    8.80
   0   2   5  268.10    8.81
   0   2  -5  294.90    9.75
   0  -2   6  579.10   18.94
   0   2   6  596.90   19.45
   0   2  -6  616.50   20.14
   0  -2   7  150.30    5.12
   0   2   7  140.30    4.69
   0   2  -7  141.50    4.82
   0  -2   8   43.29    1.72
   0   2  -8   49.21    1.91
   0  -2   9   93.15    3.29
   0   2  -9   96.60    3.39
   0  -2  10    9.12    0.72
   0   2  10   10.05    0.66
   0   2 -10   10.27    0.78
   0  -2  11  180.20    6.08
   0   2  11  164.20    5.50
   0   2 -11  167.40    5.69
   0  -2  12    1.06    0.66
   0   2  12    2.83    0.51
   0   2 -12    2.95    0.66
   0  -2  13   97.64    3.46
   0   2  13  120.00    4.10
   0   2 -13  123.70    4.29
   0  -2  14   53.55    2.10
   0   2  14   65.43    2.38
   0   2 -14   67.71    2.49
   0  -2  15   12.03    0.92
   0   2  15   14.06    0.83
   0   2 -15   14.11    0.90
   0  -2  16  128.10    4.46
   0   2  16  131.40    4.51
   0   2 -16  129.00    4.47
   0  -2  17   69.13    2.57
   0   2  17   59.07    2.22
   0   2 -17   65.97    2.49
   0  -2  18    4.82    0.77
   0   2  18    4.07    0.64
   0   2 -18    4.32    0.72
   0  -2  19  142.70    4.94
   0   2  19  148.70    5.09
   0   2 -19  140.50    4.86
   0  -2  20  108.90    3.90
   0   2  20  111.90    3.96
   0   2 -20  103.30    3.68
   0  -2  21    3.39    0.74
   0   2  21    3.81    0.71
   0   2 -21    3.68    0.69
   0  -2  22    9.85    0.88
   0   2  22   12.42    0.94
   0   2 -22   10.93    0.84
   0  -2  23   44.96    1.85
   0   2  23   42.81    1.80
   0   2 -23   40.64    1.70
   0  -2  24   29.47    1.39
   0   2  24   29.93    1.47
   0   2 -24   30.64    1.38
   0  -2  25    1.57    0.74
   0   2  25    0.11    0.74
   0   2 -25   -0.01    0.63
   0  -2  26   19.16    1.17
   0   2  26   19.21    1.15
   0   2 -26   18.10    1.02
   0  -2  27   32.27    1.48
   0  -2  28    4.11    0.75
   0   2  28    4.12    0.85
   0   2 -28    5.02    0.68
   0  -2  29    3.15    0.75
   0   2  29    3.11    0.87
   0  -2  30   23.45    1.22
   0   2  30   22.23    1.32
   0  -2  31   -0.16    0.73
   0   2  31    0.48    0.89
   0  -2  32    6.15    0.84
   0   2  32    4.98    1.00
   0  -4   0  166.30    5.63
   0   4   0  167.80    5.64
   0  -4   1  185.60    6.26
   0  -4  -1  189.80    6.38
   0   4   1  192.10    6.41
   0   4  -1  191.80    6.43
   0  -4   2   11.62    0.78
   0  -4  -2   14.07    0.83
   0   4   2   12.12    0.74
   0   4  -2   11.47    0.80
   0  -4   3   63.38    2.34
   0  -4  -3   60.99    2.22
   0   4   3   64.74    2.33
   0   4  -3   60.07    2.24
   0  -4   4   60.10    2.23
   0  -4  -4   59.66    2.15
   0   4   4   60.67    2.20
   0   4  -4   59.90    2.25
   0  -4   5   68.48    2.51
   0  -4  -5   62.93    2.25
   0   4   5   63.21    2.26
   0   4  -5   70.19    2.58
   0  -4   6  116.20    4.04
   0  -4  -6  113.60    3.86
   0   4   6  118.60    4.03
   0   4  -6  118.80    4.15
   0  -4   7  851.20   27.78
   0   4   7  881.60   28.71
   0   4  -7  897.50   29.29
   0  -4   8   24.94    1.21
   0   4   8   23.99    1.04
   0   4  -8   25.23    1.25
   0  -4   9   49.00    1.93
   0   4   9   51.79    1.90
   0   4  -9   48.05    1.93
   0  -4  10    8.30    0.80
   0   4  10    7.49    0.61
   0   4 -10    7.71    0.82
   0  -4  11  182.00    6.20
   0   4  11  177.50    5.94
   0   4 -11  184.20    6.27
   0  -4  12    0.49    0.60
   0   4  12    0.50    0.48
   0   4 -12    0.34    0.64
   0  -4  13    5.92    0.75
   0  -4  14   68.07    2.53
   0   4  14   62.72    2.30
   0   4  14   63.57    2.29
   0   4 -14   63.70    2.42
   0  -4  15  124.50    4.34
   0   4  15  122.30    4.21
   0   4  15  112.80    3.89
   0   4 -15  113.40    3.99
   0  -4  16   40.11    1.71
   0   4  16   41.14    1.66
   0   4  16   37.95    1.58
   0  -4  17   19.09    1.10
   0   4  17   19.16    1.05
   0   4  17   21.99    1.12
   0   4 -17   20.26    1.11
   0  -4  18    0.49    0.67
   0   4  18   -0.79    0.74
   0   4  18    0.69    0.66
   0   4 -18    0.95    0.58
   0  -4  19   78.79    2.89
   0   4  19   88.88    3.18
   0   4  19   91.01    3.23
   0   4 -19   84.74    3.07
   0  -4  20    0.03    0.69
   0   4  20    0.93    0.76
   0   4  20    1.08    0.72
   0   4 -20   -0.02    0.56
   0  -4  21  102.80    3.67
   0   4  21  101.70    3.62
   0   4  21  104.60    3.69
   0   4 -21   98.95    3.52
   0  -4  22    0.30    0.64
   0   4  22    1.38    0.69
   0   4  22   -0.58    0.74
   0   4 -22    0.76    0.61
   0  -4  23    7.20    0.73
   0   4  23    4.87    0.92
   0   4  23    7.26    0.80
   0   4 -23    6.68    0.70
   0  -4  24    0.33    0.64
   0   4  24    0.86    0.73
   0   4  24   -1.21    0.84
   0   4 -24    0.65    0.61
   0  -4  25    5.63    0.74
   0   4  25    5.69    0.83
   0   4  25    3.17    0.95
   0   4 -25    3.94    0.66
   0  -4  26    3.48    0.75
   0   4  26    4.00    0.94
   0   4  26    3.06    1.07
   0   4 -26    3.01    0.64
   0  -4  27    0.27    0.65
   0   4  27    0.66    0.90
   0   4  27   -0.76    1.10
   0   4 -27    0.42    0.57
   0  -4  28    0.97    0.67
   0   4  28   -0.29    1.22
   0   4  28    0.17    0.88
   0   4 -28    0.20    0.61
   0  -4  29    1.54    0.68
   0   4  29    2.50    1.02
   0   4  29    1.41    1.21
   0   4 -29    0.95    0.60
   0  -4  30    0.70    0.64
   0   4  30    0.82    1.70
   0   4  30    2.16    1.20
   0   4 -30    1.64    0.70
   0  -6   0   53.22    2.07
   0   6   0   53.87    2.08
   0  -6   1   37.73    1.64
   0  -6  -1   37.00    1.54
   0   6   1   37.87    1.58
   0   6  -1   34.18    1.49
   0  -6   2    3.37    0.78
   0  -6  -2    3.70    0.64
   0   6   2    3.62    0.65
   0   6  -2    4.92    0.72
   0  -6   3   45.68    1.91
   0  -6  -3   45.88    1.78
   0   6   3   48.92    1.90
   0   6  -3   43.20    1.79
   0  -6   4   43.75    1.83
   0  -6  -4   39.24    1.59
   0   6   4   43.30    1.74
   0   6  -4   42.66    1.77
   0  -6   5   20.06    1.10
   0  -6  -5   20.24    1.05
   0   6   5   21.53    1.08
   0   6  -5   19.92    1.11
   0  -6   6   19.15    1.06
   0  -6  -6   18.59    1.01
   0   6   6   19.79    1.02
   0   6  -6   19.70    1.08
   0  -6   7   48.29    1.91
   0  -6  -7   47.28    1.85
   0   6   7   46.24    1.80
   0   6  -7   44.83    1.82
   0  -6   8   67.75    2.53
   0   6   8   64.77    2.37
   0   6  -8   63.84    2.43
   0  -6   9    1.05    0.59
   0   6   9   -0.11    0.58
   0   6  -9    1.56    0.65
   0  -6  10    8.78    0.81
   0  -6  11    0.66    0.61
   0   6  11    1.53    0.59
   0   6 -11    1.65    0.60
   0  -6  12   21.06    1.09
   0   6  12   21.63    1.05
   0   6 -12   20.55    1.12
   0  -6  13   94.78    3.40
   0   6  13   96.13    3.37
   0   6 -13   96.35    3.45
   0  -6  14    1.89    0.60
   0   6  14    2.47    0.66
   0   6 -14    1.21    0.60
   0  -6  15   20.56    1.12
   0   6  15   20.85    1.06
   0   6 -15   19.83    1.06
   0  -6  16    3.00    0.66
   0   6  16    1.07    0.63
   0   6  16    0.99    0.63
   0   6 -16    2.29    0.61
   0  -6  17    9.53    0.78
   0   6  17    7.61    0.82
   0   6  17    8.63    0.83
   0   6 -17    9.09    0.80
   0  -6  18   10.41    0.79
   0   6  18   10.80    0.85
   0   6  18   11.92    0.94
   0   6 -18   10.74    0.80
   0  -6  19    2.28    0.59
   0   6  19    1.56    0.65
   0   6  19    1.82    0.71
   0   6 -19    1.28    0.60
   0  -6  20   27.97    1.31
   0   6  20   26.14    1.35
   0   6  20   23.14    1.19
   0   6 -20   26.21    1.19
   0  -6  21    4.91    0.64
   0   6  21    2.84    0.71
   0   6  21    3.82    0.96
   0   6 -21    4.30    0.61
   0  -6  22   -0.01    0.57
   0   6  22    0.97    0.88
   0   6  22    0.45    0.73
   0   6 -22    0.41    0.52
   0  -6  23    8.00    0.68
   0   6  23    6.98    0.93
   0   6  23    7.38    1.11
   0   6 -23    9.31    0.71
   0  -6  24    5.78    0.67
   0   6  24    6.45    1.02
   0   6  24    5.26    1.22
   0   6 -24    8.56    0.73
   0  -6  25   14.64    0.87
   0   6  25   13.05    1.52
   0   6  25   10.78    1.28
   0   6 -25   12.57    0.78
   0  -6  26   10.36    0.72
   0   6  26   11.08    1.32
   0   6  26    7.29    1.50
   0   6 -26   10.59    0.71
   0  -6  27    2.08    0.56
   0   6  27    0.51    1.44
   0   6 -27    3.00    0.64
   0  -8   0   45.10    1.82
   0   8   0   43.49    1.77
   0  -8   1    0.49    0.60
   0  -8  -1   -0.22    0.64
   0   8   1    0.92    0.62
   0   8  -1    0.43    0.66
   0  -8   2    6.16    0.71
   0  -8  -2    6.58    0.79
   0   8   2    6.93    0.77
   0   8  -2    5.36    0.75
   0  -8   3   14.50    0.88
   0  -8  -3   16.79    0.99
   0   8   3   14.46    0.94
   0   8  -3   14.58    0.91
   0  -8   4    2.49    0.67
   0  -8  -4    2.04    0.67
   0   8   4    0.77    0.61
   0   8  -4    0.75    0.65
   0  -8   5    2.99    0.72
   0  -8  -5    1.69    0.72
   0   8   5    3.74    0.68
   0   8  -5    3.28    0.71
   0  -8   6   28.00    1.34
   0  -8  -6   26.36    1.29
   0   8   6   26.47    1.25
   0   8  -6   27.07    1.29
   0  -8   7    2.89    0.66
   0  -8  -7    4.19    0.79
   0   8   7    4.06    0.70
   0   8  -7    5.47    0.76
   0  -8   8   -1.03    0.65
   0   8   8    0.44    0.64
   0   8  -8   -0.74    0.64
   0  -8   9    1.07    0.56
   0   8   9    0.42    0.67
   0   8  -9    1.02    0.62
   0  -8  10   -0.33    0.64
   0   8  10    0.37    0.67
   0   8 -10    0.45    0.64
   0  -8  11    1.32    0.68
   0   8  11   -0.49    0.67
   0   8 -11    0.02    0.69
   0  -8  12   15.59    1.01
   0   8  12   14.27    1.05
   0   8 -12   13.12    0.90
   0  -8  13   31.42    1.40
   0  -8  14   19.71    1.01
   0  -8  15    0.54    0.57
   0   8  15    1.43    0.93
   0   8 -15    0.77    0.59
   0  -8  16   14.62    0.89
   0   8  16   12.74    1.16
   0   8 -16   14.33    0.88
   0  -8  17   -0.69    0.56
   0   8  17   -0.34    0.88
   0   8  17   -0.88    1.05
   0   8 -17   -0.58    0.55
   0  -8  18    2.82    0.56
   0   8  18    0.28    0.94
   0   8  18    1.50    1.19
   0   8 -18    1.79    0.55
   0  -8  19    4.45    0.60
   0   8  19    2.53    1.32
   0   8  19    2.10    0.93
   0   8 -19    4.49    0.60
   0  -8  20    6.72    0.56
   0   8  20    4.17    1.02
   0   8  20    5.86    1.37
   0  -8  21    0.77    0.54
   0   8  21   -0.33    1.41
   0   8  21    2.58    1.10
   0   8 -21    0.20    0.52
   0 -10   0    3.56    0.84
   0  10   0    1.32    0.84
   0 -10   1    0.06    0.86
   0 -10  -1    0.12    0.78
   0  10   1   -0.93    0.85
   0  10  -1    1.04    0.83
   0 -10   2    4.24    0.88
   0 -10  -2    3.96    0.92
   0  10   2    4.37    0.93
   0  10  -2    6.08    0.92
   0 -10   3    7.87    0.84
   0 -10  -3    7.43    1.03
   0  10   3    6.79    1.05
   0  10  -3    8.75    0.99
   0 -10   4    5.98    0.87
   0 -10  -4    3.18    0.95
   0  10   4    4.70    0.99
   0  10  -4    5.10    0.96
   0 -10   5    0.37    0.69
   0 -10  -5   -0.02    0.95
   0  10   5    0.50    0.96
   0  10  -5    1.77    0.88
   0 -10   6   -0.73    0.72
   0  10   6    0.26    1.02
   0  10  -6    1.36    0.82
   0 -10   7   13.35    0.94
   0  10   7   14.06    1.36
   0  10  -7   14.21    1.02
   0 -10   8   22.28    1.11
   0  10   8    4.11    1.29
   0  10  -8    5.50    0.80
   0 -10   9    4.09    0.73
   0  10   9    4.57    1.23
   0  10  -9    4.63    0.80
   0 -10  10    1.93    0.77
  -1  -1  33    0.40    0.91
  -1   1  33    0.82    1.02
  -1  -1  32    2.00    0.95
  -1   1  32    1.67    0.87
  -1  -1  31    8.55    1.01
  -1   1  31    9.94    1.03
  -1  -1  30   70.59    2.69
  -1   1  30   66.66    2.56
  -1  -1  29   48.12    1.93
  -1   1  29   46.81    1.97
  -1  -1  28    1.39    0.68
  -1   1  28   -0.20    0.80
  -1  -1  27   10.98    0.92
  -1   1  27   12.05    1.03
  -1  -1  26   19.31    1.14
  -1   1  26   17.50    1.15
  -1  -1  25   22.49    1.21
  -1   1  25   27.55    1.39
  -1  -1  24   17.19    1.07
  -1   1  24   17.87    1.16
  -1  -1  23   55.02    2.20
   1   1 -23   49.86    1.99
  -1   1  23   54.67    2.19
  -1  -1  22   31.00    1.48
   1   1 -22   29.67    1.39
  -1   1  22   28.04    1.38
  -1  -1  21    2.50    0.73
   1   1 -21    1.84    0.65
  -1   1  21    1.30    0.72
  -1  -1  20   19.97    1.10
   1   1 -20   20.83    1.16
  -1   1  20   21.98    1.23
  -1  -1  19   26.48    1.31
   1   1 -19   29.38    1.39
  -1   1  19   25.20    1.24
  -1  -1  18  130.00    4.53
   1   1 -18  128.90    4.48
  -1   1  18  121.90    4.23
  -1  -1  17   22.86    1.19
   1   1 -17   25.79    1.20
  -1   1  17   22.92    1.12
  -1  -1  16    1.45    0.58
   1   1 -16   -0.02    0.57
  -1   1  16    0.75    0.59
  -1  -1  15  110.20    3.86
   1   1 -15  115.80    4.02
  -1   1  15  114.70    3.97
  -1  -1  14  256.50    8.56
   1   1 -14  240.10    8.02
  -1   1  14  243.60    8.10
  -1  -1  13   86.82    3.10
   1   1 -13   82.84    2.95
  -1   1  13   80.25    2.84
  -1  -1  12  132.50    4.54
   1   1 -12  138.60    4.74
  -1   1  12  127.60    4.34
  -1  -1  11  190.80    6.41
   1   1 -11  191.30    6.43
  -1   1  11  181.60    6.07
  -1  -1  10   41.32    1.66
   1   1 -10   43.04    1.71
  -1   1  10   39.37    1.53
  -1  -1   9  233.30    7.78
   1   1  -9  232.20    7.73
  -1   1   9  232.40    7.69
  -1  -1   8  106.50    3.67
   1   1  -8  114.10    3.92
  -1   1   8  107.90    3.67
  -1  -1   7   95.54    3.34
  -1  -1   6   37.22    1.53
   1   1  -6   39.27    1.60
  -1  -1   5    5.49    0.65
   1   1  -5    6.26    0.72
  -1  -1   4   37.54    1.48
   1   1  -4   37.24    1.44
  -1  -1   3  214.80    7.08
   1   1  -3  224.80    7.40
  -1   1   3  210.10    6.89
  -1  -1   2  348.10   11.36
   1   1  -2  353.00   11.51
   1  -1  -1   33.91    1.23
  -1  -1   1   34.18    1.24
   1   1  -1   35.61    1.28
  -1   1   1   32.64    1.17
   1  -1   0  106.40    3.54
  -1  -1   0  104.00    3.44
   1   1   0  101.70    3.36
  -1   1   0  106.00    3.52
   1  -1   1   27.94    1.09
  -1  -1  -1   28.98    1.03
   1   1   1   28.09    0.99
  -1   1  -1   29.41    1.11
   1  -1   2   11.73    0.64
  -1  -1  -2   12.79    0.54
   1   1   2   12.23    0.52
  -1   1  -2   12.00    0.63
   1  -1   3  222.10    7.32
  -1   1  -3  180.80    5.99
   1  -1   4  235.30    7.76
  -1   1  -4  207.20    6.88
   1  -1   5   51.47    1.92
   1   1   5   48.01    1.71
  -1   1  -5   49.79    1.92
   1  -1   6  648.70   21.18
   1   1   6  625.70   20.38
  -1   1  -6  659.90   21.55
   1  -1   7    1.90    0.56
   1   1   7    1.72    0.46
  -1   1  -7    1.66    0.61
   1  -1   8  127.70    4.36
   1   1   8   98.62    3.37
  -1   1  -8  104.50    3.61
   1  -1   9  243.30    8.09
   1   1   9  300.90    9.89
  -1   1  -9  294.70    9.74
   1  -1  10   40.36    1.63
   1  -1  11  244.90    8.14
   1   1  11  239.90    7.95
  -1   1 -11  253.80    8.45
   1  -1  12  186.00    6.26
   1   1  12  189.20    6.33
  -1   1 -12  186.50    6.28
   1  -1  13   32.26    1.41
   1   1  13   26.53    1.18
  -1   1 -13   30.73    1.33
   1  -1  14    0.34    0.62
   1   1  14    1.87    0.52
  -1   1 -14    2.00    0.58
   1  -1  15   -0.11    0.54
   1   1  15    0.12    0.52
  -1   1 -15    0.71    0.57
   1  -1  16    9.15    0.80
   1   1  16   10.62    0.78
  -1   1 -16   10.47    0.81
   1  -1  17   19.11    1.04
   1   1  17   20.13    1.01
  -1   1 -17   22.81    1.11
   1  -1  18   57.98    2.26
   1   1  18   53.67    2.08
  -1   1 -18   57.04    2.18
   1  -1  19   18.58    1.10
   1   1  19   22.82    1.15
  -1   1 -19   20.68    1.12
   1  -1  20    9.64    0.87
   1   1  20    9.34    0.91
  -1   1 -20    9.65    0.79
   1  -1  21   48.05    1.95
   1   1  21   56.12    2.21
  -1   1 -21   52.14    2.03
   1  -1  22  111.30    3.96
   1   1  22  111.20    3.93
  -1   1 -22  102.70    3.66
   1  -1  23   11.44    0.94
   1   1  23   10.00    0.98
  -1   1 -23   10.88    0.84
   1  -1  24   18.73    1.16
   1   1  24   21.04    1.16
  -1   1 -24   20.01    1.08
   1  -1  25   18.71    1.16
   1   1  25   22.52    1.27
  -1   1 -25   23.28    1.23
   1  -1  26    0.47    0.80
   1   1  26    0.72    0.79
   1  -1  27   13.55    1.04
   1   1  27   13.29    1.03
   1  -1  28    5.16    0.86
   1   1  28    4.87    0.88
   1  -1  29    0.00    0.79
   1   1  29    0.00    0.70
   1  -1  30    2.06    0.82
   1   1  30    1.47    0.88
   1  -1  31    5.03    0.91
   1   1  31    4.66    0.89
   1  -1  32   -1.28    0.86
   1   1  32   -0.74    0.94
  -1  -3  31    2.44    0.76
  -1   3  31    2.16    0.97
  -1  -3  30    7.75    0.82
   1   3 -30    7.40    0.70
  -1   3  30    7.07    1.07
  -1  -3  29    3.50    0.74
   1   3 -29    2.69    0.67
  -1   3  29    3.65    0.97
  -1  -3  28   19.39    1.10
   1   3 -28   22.61    1.13
  -1   3  28   21.13    1.26
  -1  -3  27    0.28    0.72
   1   3 -27    0.21    0.65
  -1   3  27    0.86    0.81
  -1  -3  26   14.50    0.99
   1   3 -26   14.21    0.89
  -1   3  26   14.39    1.06
  -1  -3  25   12.97    0.94
   1   3 -25   12.21    0.86
  -1   3  25   10.21    0.94
  -1  -3  24   22.29    1.24
   1   3 -24   25.15    1.23
  -1   3  24   24.05    1.25
  -1  -3  23   13.40    0.97
   1   3 -23   10.59    0.84
  -1   3  23   13.00    0.99
  -1  -3  22   43.47    1.81
   1   3 -22   44.13    1.80
  -1   3  22   44.99    1.82
  -1  -3  21    7.28    0.79
   1   3 -21    7.23    0.76
  -1   3  21    7.40    0.80
  -1  -3  20   58.61    2.30
   1   3 -20   62.20    2.36
  -1   3  20   60.22    2.31
  -1  -3  19    0.87    0.73
   1   3 -19    0.51    0.59
  -1   3  19    1.10    0.69
  -1  -3  18    2.57    0.73
   1   3 -18    2.37    0.61
  -1   3  18    3.25    0.68
  -1  -3  17   56.08    2.18
   1   3 -17   55.34    2.14
  -1   3  17   54.27    2.06
  -1  -3  16   84.27    3.08
   1   3 -16   85.59    3.11
  -1   3  16   83.18    2.95
  -1  -3  15    9.03    0.81
  -1  -3  14   46.07    1.87
   1   3 -14   53.10    2.09
  -1   3  14   45.43    1.75
  -1   3  14   47.63    1.79
  -1  -3  13    8.17    0.76
   1   3 -13    7.44    0.74
  -1   3  13    7.22    0.65
  -1   3  13    6.14    0.65
  -1  -3  12   27.62    1.30
   1   3 -12   28.29    1.36
  -1   3  12   28.51    1.20
  -1  -3  11    1.67    0.59
   1   3 -11    2.46    0.62
  -1   3  11    0.46    0.50
  -1  -3  10  148.50    5.08
   1   3 -10  143.90    4.94
  -1   3  10  142.70    4.82
  -1  -3   9   23.04    1.13
   1   3  -9   23.53    1.17
  -1   3   9   21.55    0.98
  -1  -3   8  301.10    9.97
   1   3  -8  273.60    9.10
  -1   3   8  290.40    9.56
  -1  -3   7   91.52    3.25
   1   3  -7   98.30    3.46
  -1   3   7   96.35    3.30
  -1  -3   6   56.36    2.15
   1   3  -6   54.86    2.08
  -1   3   6   53.89    1.95
   1  -3  -5   30.19    1.25
  -1  -3   5   31.34    1.37
   1  -3  -4  288.10    9.50
  -1  -3   4  287.00    9.51
   1   3  -4  292.00    9.66
  -1   3   4  279.70    9.21
   1  -3  -3    1.16    0.51
  -1  -3   3    0.82    0.56
   1   3  -3    0.75    0.50
  -1   3   3    0.71    0.48
   1  -3  -2   97.69    3.35
  -1  -3   2   92.65    3.21
   1   3  -2   93.81    3.25
  -1   3   2   92.82    3.20
   1  -3  -1   26.01    1.13
  -1  -3   1   25.02    1.10
   1   3  -1   26.77    1.16
  -1   3   1   28.36    1.17
   1  -3   0    0.64    0.46
  -1  -3   0    1.01    0.48
   1   3   0    0.98    0.49
  -1   3   0    1.37    0.53
   1  -3   1   22.10    1.02
  -1  -3  -1   23.30    1.02
   1   3   1   22.98    1.01
  -1   3  -1   22.86    1.04
   1  -3   2   63.09    2.30
  -1  -3  -2   62.40    2.21
   1   3   2   60.86    2.15
  -1   3  -2   62.42    2.28
   1  -3   3   60.76    2.26
  -1  -3  -3   61.32    2.20
   1   3   3   62.91    2.21
  -1   3  -3   59.76    2.22
   1  -3   4  133.30    4.56
  -1  -3  -4  136.90    4.60
   1  -3   5   50.47    1.94
  -1  -3  -5   50.91    1.86
   1   3   5   50.83    1.82
  -1   3  -5   52.73    2.00
   1  -3   6  124.80    4.29
   1   3   6  129.50    4.35
  -1   3  -6  128.20    4.40
   1  -3   7   10.50    0.80
   1   3   7   10.03    0.60
  -1   3  -7   10.42    0.82
   1  -3   8    2.34    0.66
   1   3   8    2.00    0.45
  -1   3  -8    2.98    0.62
   1  -3   9   96.21    3.41
   1   3   9   98.17    3.34
  -1   3  -9   92.05    3.27
   1  -3  10   52.85    2.05
   1   3  10   54.78    1.97
  -1   3 -10   61.52    2.32
   1  -3  11    2.63    0.61
   1   3  11    2.89    0.50
  -1   3 -11    3.47    0.63
   1  -3  12    0.93    0.65
   1   3  12    0.22    0.47
   1   3  12    0.50    0.46
  -1   3 -12    0.52    0.65
   1  -3  13   16.33    0.98
   1   3  13   16.34    0.84
   1   3  13   17.39    0.87
  -1   3 -13   17.58    1.01
   1  -3  14   -0.11    0.58
   1   3  14   -0.28    0.47
  -1   3 -14   -0.57    0.65
   1  -3  15   13.37    0.92
   1   3  15   12.40    0.76
  -1   3 -15   14.45    0.95
   1  -3  16  133.70    4.66
   1   3  16  135.00    4.60
  -1   3 -16  139.20    4.83
   1  -3  17   38.84    1.70
   1   3  17   40.89    1.67
  -1   3 -17   37.54    1.57
   1  -3  18   65.79    2.52
   1   3  18   68.49    2.52
  -1   3 -18   64.74    2.44
   1  -3  19    3.20    0.79
   1   3  19    1.14    0.64
  -1   3 -19    1.76    0.58
   1  -3  20   28.62    1.35
   1   3  20   29.14    1.33
  -1   3 -20   28.02    1.31
   1  -3  21   11.53    0.89
   1   3  21   11.18    0.86
  -1   3 -21   10.68    0.83
   1  -3  22    5.59    0.82
   1   3  22    6.36    0.79
  -1   3 -22    5.58    0.68
   1  -3  23    0.85    0.64
   1   3  23    1.04    0.73
  -1   3 -23    0.56    0.56
   1  -3  24    2.31    0.67
   1   3  24    1.24    0.75
  -1   3 -24    1.78    0.65
   1  -3  25   28.37    1.34
   1   3  25   26.85    1.36
  -1   3 -25   27.06    1.25
   1  -3  26   19.39    1.15
   1   3  26   18.45    1.15
  -1   3 -26   19.21    1.03
   1  -3  27    0.42    0.69
   1   3  27   -0.12    0.79
  -1   3 -27    0.48    0.61
   1  -3  28   21.87    1.17
   1   3  28   22.10    1.34
  -1   3 -28   24.42    1.19
   1  -3  29   29.01    1.38
   1   3  29   28.46    1.51
  -1   3 -29   29.40    1.34
   1  -3  30   12.29    0.99
   1   3  30   14.76    1.23
  -1   3 -30   12.29    0.86
   1  -3  31    4.94    0.87
   1   3  31    5.80    1.04
  -1  -5  29    0.06    0.62
   1   5 -29    0.09    0.60
  -1   5  29   -0.22    1.16
  -1   5  29    3.15    1.68
  -1  -5  28    2.36    0.65
   1   5 -28    3.80    0.61
  -1   5  28    2.08    1.51
  -1   5  28    3.01    1.15
  -1  -5  27    2.43    0.61
   1   5 -27    1.40    0.62
  -1   5  27    1.17    1.07
  -1   5  27    1.99    1.26
  -1  -5  26   -0.30    0.66
   1   5 -26    0.22    0.52
  -1   5  26   -0.17    1.14
  -1   5  26    1.97    0.96
  -1  -5  25    5.01    0.76
   1   5 -25    5.11    0.64
  -1   5  25    5.32    0.97
  -1   5  25    3.50    1.12
  -1  -5  24    2.21    0.67
   1   5 -24    3.37    0.61
  -1   5  24    2.31    0.82
  -1   5  24    3.51    1.04
  -1  -5  23   21.29    1.16
   1   5 -23   21.56    1.09
  -1   5  23   22.75    1.31
  -1   5  23   21.85    1.21
  -1  -5  22   82.83    2.99
   1   5 -22   82.51    2.99
  -1   5  22   87.54    3.18
  -1   5  22   90.70    3.26
  -1  -5  21   49.99    1.97
  -1   5  21   53.08    2.12
  -1   5  21   54.91    2.13
  -1  -5  20    0.58    0.65
   1   5 -20    1.48    0.57
  -1   5  20    0.24    0.72
  -1   5  20   -0.58    0.77
  -1  -5  19    0.94    0.65
   1   5 -19   -0.40    0.56
  -1   5  19    0.86    0.71
  -1   5  19   -0.23    0.72
  -1  -5  18   66.45    2.49
   1   5 -18   64.49    2.43
  -1   5  18   67.46    2.52
  -1   5  18   65.82    2.44
  -1  -5  17    1.55    0.64
   1   5 -17    0.91    0.62
  -1   5  17    0.56    0.67
  -1   5  17    0.15    0.69
  -1  -5  16    2.00    0.70
   1   5 -16    0.17    0.61
  -1   5  16    0.46    0.67
  -1   5  16    1.14    0.67
  -1  -5  15    1.43    0.67
   1   5 -15    1.30    0.58
  -1   5  15   -0.26    0.62
  -1  -5  14   33.64    1.54
  -1  -5  13    7.33    0.78
   1   5 -13    8.32    0.78
  -1   5  13    6.83    0.74
  -1  -5  12    4.56    0.69
   1   5 -12    4.33    0.65
  -1   5  12    5.50    0.68
  -1  -5  11  136.90    4.74
   1   5 -11  136.10    4.73
  -1   5  11  141.50    4.81
  -1  -5  10  129.80    4.52
   1   5 -10  129.30    4.51
  -1   5  10  129.30    4.42
  -1  -5   9   26.89    1.29
   1   5  -9   27.49    1.33
  -1   5   9   26.82    1.20
  -1  -5   8   40.62    1.74
   1   5  -8   40.60    1.71
  -1   5   8   40.65    1.58
   1  -5  -7   10.44    0.70
  -1  -5   7   11.55    0.85
   1   5  -7   13.37    0.89
  -1   5   7   10.48    0.71
   1  -5  -6    5.27    0.61
  -1  -5   6    6.08    0.67
   1   5  -6    6.09    0.71
  -1   5   6    5.99    0.60
   1  -5  -5   28.70    1.29
  -1  -5   5   31.01    1.36
   1   5  -5   33.41    1.48
  -1   5   5   32.42    1.37
   1  -5  -4   43.25    1.73
  -1  -5   4   41.07    1.65
   1   5  -4   42.21    1.72
  -1   5   4   44.85    1.76
   1  -5  -3    5.01    0.67
  -1  -5   3    5.54    0.68
   1   5  -3    5.09    0.69
  -1   5   3    5.04    0.62
   1  -5  -2   60.67    2.27
  -1  -5   2   62.44    2.30
   1   5  -2   63.05    2.33
  -1   5   2   61.83    2.28
   1  -5  -1   18.22    0.97
  -1  -5   1   17.69    0.96
   1   5  -1   17.71    0.97
  -1   5   1   17.51    0.92
   1  -5   0    1.00    0.58
  -1  -5   0    1.94    0.57
   1   5   0    1.62    0.56
  -1   5   0    1.74    0.59
   1  -5   1   87.21    3.10
  -1  -5  -1   83.10    2.97
   1   5   1   87.80    3.09
  -1   5  -1   86.33    3.08
   1  -5   2   91.76    3.25
  -1  -5  -2   91.72    3.24
   1   5   2   90.84    3.18
  -1   5  -2   91.23    3.23
   1  -5   3   46.85    1.86
  -1  -5  -3   48.53    1.87
   1   5   3   48.72    1.85
  -1   5  -3   53.52    2.07
   1  -5   4   76.73    2.79
  -1  -5  -4   76.49    2.74
   1   5   4   75.80    2.69
  -1   5  -4   82.09    2.97
   1  -5   5   19.80    1.06
  -1  -5  -5   19.86    0.98
   1   5   5   19.77    0.94
  -1   5  -5   18.58    1.03
   1  -5   6    7.95    0.77
  -1  -5  -6    8.56    0.64
   1   5   6    9.38    0.64
  -1   5  -6    7.55    0.78
   1  -5   7    2.83    0.67
  -1  -5  -7    3.54    0.47
   1   5   7    2.98    0.52
  -1   5  -7    3.07    0.70
   1  -5   8    2.84    0.72
   1   5   8    2.92    0.52
  -1   5  -8    3.67    0.73
   1  -5   9    9.83    0.78
   1   5   9    9.96    0.68
  -1   5  -9   10.94    0.91
   1  -5  10   49.22    1.96
   1   5  10   47.39    1.77
  -1   5 -10   48.69    1.96
   1  -5  11    6.03    0.80
   1   5  11    6.10    0.59
  -1   5 -11    5.82    0.80
   1  -5  12  109.80    3.88
   1   5  12  118.30    4.04
  -1   5 -12  117.40    4.11
   1  -5  13   83.27    3.06
   1   5  13   85.92    3.00
  -1   5 -13   88.07    3.19
   1  -5  14   93.10    3.38
   1   5  14   92.03    3.21
  -1   5 -14   87.35    3.15
   1  -5  15    1.53    0.68
   1   5  15    1.72    0.61
   1   5  15    1.61    0.65
  -1   5 -15   -0.16    0.56
   1  -5  16   10.92    0.83
   1   5  16   11.97    0.85
   1   5  16   13.86    0.87
  -1   5 -16   12.43    0.86
   1  -5  17   15.58    0.96
   1   5  17   15.43    0.93
   1   5  17   15.77    0.95
  -1   5 -17   15.51    0.96
   1  -5  18   24.59    1.28
   1   5  18   26.73    1.28
   1   5  18   29.32    1.33
  -1   5 -18   24.80    1.21
   1  -5  19   24.75    1.26
   1   5  19   27.22    1.28
   1   5  19   27.98    1.28
  -1   5 -19   24.60    1.20
   1  -5  20   16.38    0.98
   1   5  20   15.86    1.03
   1   5  20   14.73    0.95
  -1   5 -20   15.07    0.91
   1  -5  21    5.74    0.73
   1   5  21    6.46    0.85
   1   5  21    4.86    0.76
  -1   5 -21    6.14    0.66
   1  -5  22   31.84    1.46
   1   5  22   33.18    1.47
   1   5  22   36.86    1.65
  -1   5 -22   33.52    1.43
   1  -5  23    6.81    0.71
   1   5  23    8.59    1.10
   1   5  23   10.00    0.91
  -1   5 -23    9.11    0.73
   1  -5  24   20.04    1.10
   1   5  24   20.66    1.23
   1   5  24   20.82    1.41
  -1   5 -24   18.83    0.99
   1  -5  25   15.51    0.94
   1   5  25   13.42    1.11
   1   5  25   15.29    1.35
  -1   5 -25   13.24    0.85
   1  -5  26   11.39    0.86
   1   5  26   11.19    1.36
   1   5  26   11.79    1.12
  -1   5 -26    9.34    0.74
   1  -5  27    5.41    0.70
   1   5  27    5.15    1.03
   1   5  27    5.98    1.44
  -1   5 -27    5.65    0.66
   1  -5  28    6.45    0.74
   1   5  28    5.39    1.15
   1   5  28    6.39    1.62
  -1   5 -28    7.07    0.69
  -1  -7  24    1.95    0.51
   1   7 -24    2.73    0.54
  -1   7  24    2.95    1.17
  -1   7  24    1.67    1.42
  -1  -7  23    6.41    0.62
   1   7 -23    6.91    0.60
  -1   7  23    4.43    1.10
  -1   7  23    6.33    1.45
  -1  -7  22    0.52    0.54
   1   7 -22    0.85    0.55
  -1   7  22   -0.11    1.16
  -1   7  22    0.23    0.96
  -1  -7  21   -0.10    0.47
   1   7 -21    0.28    0.55
  -1   7  21    0.22    0.87
  -1   7  21   -1.48    1.00
  -1  -7  20    2.17    0.58
   1   7 -20    1.85    0.60
  -1   7  20    1.44    0.97
  -1   7  20    0.34    0.83
  -1  -7  19    0.80    0.53
   1   7 -19    0.74    0.57
  -1   7  19   -0.65    0.78
  -1   7  19    0.78    0.77
  -1  -7  18    0.51    0.62
   1   7 -18    0.27    0.53
  -1   7  18    0.41    0.71
  -1   7  18    0.27    0.82
  -1  -7  17   52.14    2.00
  -1   7  17   59.31    2.32
  -1   7  17   56.82    2.18
  -1  -7  16   11.98    0.83
   1   7 -16   12.28    0.83
  -1   7  16   11.17    0.90
  -1  -7  15  119.30    4.18
   1   7 -15  122.60    4.26
  -1   7  15  129.40    4.43
  -1  -7  14    1.20    0.65
   1   7 -14    0.06    0.60
  -1   7  14    0.82    0.64
  -1  -7  13    0.96    0.65
   1   7 -13   -0.04    0.58
  -1   7  13    1.12    0.61
  -1  -7  12   13.32    0.89
   1   7 -12   16.54    1.02
  -1   7  12   15.39    0.91
  -1  -7  11   17.38    0.99
   1   7 -11   17.49    1.01
  -1   7  11   14.53    0.88
  -1  -7  10   23.00    1.18
   1   7 -10   25.13    1.28
  -1   7  10   25.18    1.21
  -1  -7   9    2.89    0.71
   1   7  -9    4.14    0.73
  -1   7   9    3.51    0.63
  -1  -7   8    0.67    0.69
   1   7  -8    0.71    0.59
  -1   7   8   -0.64    0.62
   1  -7  -7    4.80    0.69
  -1  -7   7    6.28    0.75
   1   7  -7    7.08    0.78
  -1   7   7    4.85    0.73
   1  -7  -6    0.50    0.56
  -1  -7   6    0.98    0.65
   1   7  -6    1.00    0.59
  -1   7   6    0.35    0.62
   1  -7  -5   38.02    1.55
  -1  -7   5   37.41    1.57
   1   7  -5   35.10    1.52
  -1   7   5   36.12    1.55
   1  -7  -4   29.66    1.35
  -1  -7   4   31.47    1.34
   1   7  -4   30.87    1.42
  -1   7   4   31.13    1.38
   1  -7  -3   47.87    1.92
  -1  -7   3   49.50    1.92
   1   7  -3   46.43    1.87
  -1   7   3   50.79    1.99
   1  -7  -2    3.29    0.69
  -1  -7   2    2.58    0.62
   1   7  -2    4.83    0.71
  -1   7   2    2.52    0.66
   1  -7  -1   17.23    1.03
  -1  -7   1   18.11    1.03
   1   7  -1   19.37    1.06
  -1   7   1   18.40    1.03
   1  -7   0    9.00    0.79
  -1  -7   0    9.18    0.81
   1   7   0    7.50    0.74
  -1   7   0    8.86    0.79
   1  -7   1    1.09    0.60
  -1  -7  -1    0.23    0.59
   1   7   1    0.06    0.59
  -1   7  -1    0.93    0.64
   1  -7   2    6.83    0.72
  -1  -7  -2    8.05    0.77
   1   7   2    8.17    0.77
  -1   7  -2    8.73    0.82
   1  -7   3    0.38    0.51
  -1  -7  -3   -0.04    0.58
   1   7   3    1.18    0.58
  -1   7  -3    1.30    0.68
   1  -7   4    1.99    0.66
  -1  -7  -4    2.48    0.58
   1   7   4    2.94    0.61
  -1   7  -4    2.55    0.70
   1  -7   5    3.83    0.72
  -1  -7  -5    1.60    0.59
   1   7   5    2.86    0.61
  -1   7  -5    2.64    0.70
   1  -7   6    0.62    0.69
  -1  -7  -6    1.69    0.62
   1   7   6    1.68    0.61
  -1   7  -6    0.82    0.60
   1  -7   7    4.69    0.74
  -1  -7  -7    4.50    0.71
   1   7   7    4.11    0.68
  -1   7  -7    4.66    0.74
   1  -7   8    0.79    0.57
   1   7   8    1.16    0.61
  -1   7  -8    0.68    0.62
   1  -7   9  171.50    5.84
   1   7   9  169.00    5.71
  -1   7  -9  163.30    5.60
   1  -7  10   21.15    1.11
   1   7  10   21.54    1.07
  -1   7 -10   17.96    1.06
   1  -7  11   43.87    1.75
   1   7  11   45.42    1.76
  -1   7 -11   42.63    1.76
   1  -7  12    5.63    0.72
   1   7  12    5.96    0.67
  -1   7 -12    6.99    0.78
   1  -7  13   10.13    0.87
   1   7  13   10.86    0.83
  -1   7 -13    8.31    0.76
   1  -7  14    0.88    0.65
   1   7  14    0.51    0.63
  -1   7 -14    0.75    0.62
   1  -7  15    7.25    0.69
   1  -7  16   14.73    0.90
   1   7  16   12.95    0.87
   1   7  16   14.43    0.91
  -1   7 -16   16.38    0.93
   1  -7  17   12.91    0.87
   1   7  17   12.97    0.89
   1   7  17   11.93    0.87
   1  -7  18    8.84    0.71
   1   7  18    6.42    0.77
   1   7  18    5.18    0.75
   1  -7  19    0.37    0.55
   1   7  19    1.33    0.70
   1   7  19   -0.81    0.80
  -1   7 -19   -1.04    0.52
   1  -7  20    4.83    0.60
   1   7  20    4.52    0.92
   1   7  20    3.26    0.80
  -1   7 -20    4.96    0.63
   1  -7  21   40.23    1.60
   1   7  21   39.24    1.78
   1   7  21   37.62    1.64
  -1   7 -21   41.05    1.63
   1  -7  22    2.11    0.58
   1   7  22    1.62    0.95
   1   7  22    2.82    0.97
  -1   7 -22    2.37    0.53
   1  -7  23   14.26    0.88
   1   7  23   10.50    1.28
   1   7  23   11.47    1.21
   1  -7  24   -0.04    0.47
   1   7  24    0.90    1.05
   1   7  24    1.09    1.24
  -1   7 -24   -0.03    0.58
  -1  -9  17    2.57    0.58
   1   9 -17    2.10    0.64
  -1   9  17    0.56    1.37
  -1  -9  16    3.19    0.55
   1   9 -16    2.70    0.62
  -1   9  16    4.52    1.39
  -1  -9  15    2.99    0.62
   1   9 -15    2.56    0.69
  -1   9  15    3.35    1.36
  -1  -9  14    0.21    0.61
   1   9 -14    0.46    0.67
  -1   9  14    1.22    1.10
  -1  -9  13    1.62    0.62
   1   9 -13    0.00    0.61
  -1   9  13    0.73    0.93
  -1  -9  12    3.02    0.64
   1   9 -12    4.92    0.71
  -1   9  12    4.06    0.96
  -1  -9  11   23.27    1.13
   1   9 -11   24.00    1.18
  -1   9  11   22.16    1.32
  -1  -9  10    5.12    0.75
   1   9 -10    6.37    0.76
  -1   9  10    5.05    0.90
  -1  -9   9   17.80    1.05
   1   9  -9   16.93    1.02
  -1   9   9   17.79    1.23
  -1  -9   8    0.21    0.62
   1   9  -8   -0.59    0.71
  -1   9   8    0.26    0.83
   1  -9  -7    2.19    0.78
  -1  -9   7    0.95    0.69
   1   9  -7    0.37    0.68
  -1   9   7   -0.14    0.84
   1  -9  -6    9.02    0.97
  -1  -9   6    8.84    0.87
   1   9  -6    7.85    0.84
  -1   9   6   10.23    0.94
   1  -9  -5    1.51    0.79
  -1  -9   5    1.13    0.71
   1   9  -5    1.09    0.73
  -1   9   5    1.16    0.74
   1  -9  -4   24.14    1.29
  -1  -9   4   23.43    1.23
   1   9  -4   23.10    1.22
  -1   9   4   23.86    1.26
   1  -9  -3   16.86    1.11
  -1  -9   3   17.25    1.05
   1   9  -3   19.35    1.11
  -1   9   3   17.60    1.10
   1  -9  -2   13.68    0.98
  -1  -9   2   11.41    0.86
   1   9  -2   12.12    0.94
  -1   9   2   14.62    1.02
   1  -9  -1    1.41    0.74
  -1  -9   1   -0.12    0.70
   1   9  -1    0.78    0.69
  -1   9   1    0.43    0.72
   1  -9   0   13.95    1.01
  -1  -9   0   14.85    1.03
   1   9   0   13.71    0.96
  -1   9   0   14.83    1.03
   1  -9   1    2.89    0.68
  -1  -9  -1    1.07    0.75
   1   9   1    1.56    0.71
  -1   9  -1    2.10    0.65
   1  -9   2    7.03    0.84
  -1  -9  -2    7.03    0.87
   1   9   2    6.04    0.78
  -1   9  -2    5.70    0.78
   1  -9   3   31.67    1.46
  -1  -9  -3   33.02    1.50
   1   9   3   31.99    1.47
  -1   9  -3   34.50    1.53
   1  -9   4    1.80    0.72
  -1  -9  -4    0.09    0.81
   1   9   4    1.33    0.73
  -1   9  -4    0.26    0.74
   1  -9   5   22.37    1.18
  -1  -9  -5   21.65    1.25
   1   9   5   22.49    1.22
  -1   9  -5   23.02    1.24
   1  -9   6    3.74    0.78
  -1  -9  -6    3.42    0.85
   1   9   6    2.81    0.87
  -1   9  -6    4.45    0.80
   1  -9   7    0.63    0.64
   1   9   7   -0.70    0.83
  -1   9  -7   -0.46    0.66
   1  -9   8    2.98    0.71
   1   9   8    3.35    0.90
  -1   9  -8    3.63    0.71
   1  -9   9   -0.16    0.61
   1   9   9    1.82    0.87
  -1   9  -9    1.95    0.68
   1  -9  10    1.98    0.68
   1   9  10    1.53    0.96
  -1   9 -10    0.98    0.71
   1  -9  11    8.35    0.81
   1   9  11    7.32    1.03
  -1   9 -11    9.64    0.85
   1  -9  12   -0.77    0.67
   1   9  12    1.34    1.09
  -1   9 -12    0.54    0.63
   1  -9  13    0.06    0.65
   1   9  13    0.00    1.38
  -1   9 -13   -0.01    0.61
   1  -9  14    5.83    0.71
   1   9  14    5.05    1.48
  -1   9 -14    6.27    0.73
   1  -9  15   17.57    0.93
   1   9  15   13.44    1.58
  -1   9 -15   16.75    0.94
   1  -9  16    0.81    0.54
   1   9  16   -0.44    1.02
   1   9  16    2.29    1.41
  -1   9 -16    0.89    0.57
  -2   0  33   -0.02    0.83
  -2   0  32   39.11    1.78
  -2   0  31   -0.53    0.75
  -2   0  30    0.62    0.78
  -2   0  29    0.62    0.77
  -2   0  28   17.78    1.08
  -2   0  27   -0.70    0.79
  -2   0  26    3.68    0.83
  -2   0  25    0.32    0.69
  -2   0  24   27.19    1.42
  -2   0  23   -0.44    0.80
  -2   0  22    9.96    0.94
  -2   0  21    1.11    0.70
  -2   0  20  371.30   12.31
  -2   0  19    0.61    0.65
  -2   0  18  142.40    4.90
  -2   0  17    0.25    0.62
  -2   0  16  101.90    3.58
   2   0 -15   -0.17    0.54
  -2   0  15   -0.44    0.52
   2   0 -14    2.25    0.64
  -2   0  14    1.50    0.58
   2   0 -13    0.03    0.56
  -2   0  13   -0.29    0.57
   2   0 -12   -0.32    0.55
  -2   0  12    0.59    0.58
   2   0 -11    0.33    0.55
  -2   0  11   -0.19    0.52
   2   0 -10   91.58    3.20
  -2   0  10   86.74    3.04
   2   0  -9    0.06    0.58
  -2   0   9    0.08    0.54
   2   0  -7    0.13    0.67
  -2   0   7   -0.02    0.61
   2   0  -5    0.02    0.51
  -2   0   5   -0.14    0.49
   2   0  -4  102.20    3.43
  -2   0   4   99.40    3.35
  -2   0   3    0.29    0.38
   2   0   0   20.99    0.72
  -2   0   0   21.83    0.75
   2   0   1   -0.19    0.16
  -2   0  -1    0.10    0.17
   2   0   2  124.20    4.07
  -2   0  -2  126.30    4.15
   2   0   3    0.00    0.34
  -2   0  -3    0.25    0.34
   2   0   4  148.80    4.93
  -2   0  -4  157.50    5.20
   2   0   5    0.82    0.55
  -2   0  -5    0.63    0.55
   2   0   6   51.63    1.91
  -2   0  -6   57.89    2.11
   2   0   7    0.52    0.52
  -2   0  -7   -0.36    0.54
   2   0   8  138.30    4.68
  -2   0  -8  140.50    4.73
   2   0   9    0.23    0.49
  -2   0  -9   -0.05    0.49
   2   0  10  191.10    6.37
  -2   0 -10  192.00    6.42
   2   0  11    0.44    0.54
  -2   0 -11   -0.03    0.53
   2   0  12   60.13    2.20
  -2   0 -12   62.11    2.27
   2   0  13    0.34    0.55
  -2   0 -13    0.24    0.54
   2   0  14   22.61    1.11
  -2   0 -14   23.44    1.12
   2   0  15    0.67    0.52
  -2   0 -15    0.12    0.56
   2   0  16    1.93    0.57
  -2   0 -16    2.28    0.58
   2   0  17    0.15    0.62
  -2   0 -17   -0.05    0.53
   2   0  18    0.24    0.60
  -2   0 -18    0.72    0.60
   2   0  19   -0.33    0.68
  -2   0 -19   -0.35    0.60
   2   0  20  186.80    6.35
  -2   0 -20  178.30    6.03
   2   0  21    0.59    0.76
   2   0  22    1.28    0.76
   2   0  23   -0.50    0.75
   2   0  24    1.88    0.73
   2   0  25    0.86    0.77
   2   0  26    9.53    0.94
   2   0  27   -0.75    0.64
   2   0  28    1.33    0.80
   2   0  29    0.40    0.84
   2   0  30   13.95    1.12
   2   0  31   -0.29    0.79
   2   0  32    6.17    0.88
  -2  -2  32    0.75    0.75
  -2   2  32   -1.26    0.95
  -2  -2  31    0.59    0.77
  -2   2  31    1.24    0.94
  -2  -2  30    3.70    0.82
  -2   2  30    3.55    0.92
  -2  -2  29    0.21    0.71
  -2   2  29    0.80    0.80
  -2  -2  28   48.61    1.96
  -2   2  28   47.06    1.96
  -2  -2  27    0.49    0.81
  -2   2  27    0.43    0.76
  -2  -2  26    8.29    0.91
   2   2 -26    8.27    0.78
  -2   2  26    6.77    0.92
  -2  -2  25   37.60    1.68
   2   2 -25   39.72    1.65
  -2   2  25   44.16    1.89
  -2  -2  24   34.80    1.60
   2   2 -24   34.32    1.48
  -2   2  24   36.23    1.63
  -2  -2  23    9.06    0.86
   2   2 -23    8.43    0.80
  -2   2  23    7.79    0.86
  -2  -2  22    1.58    0.70
   2   2 -22    3.09    0.64
  -2   2  22    4.10    0.79
  -2  -2  21   23.39    1.25
   2   2 -21   19.30    1.06
  -2   2  21   21.53    1.17
  -2  -2  20    1.15    0.69
   2   2 -20    0.76    0.61
  -2   2  20    1.19    0.71
  -2  -2  19   30.43    1.38
   2   2 -19   33.93    1.54
  -2   2  19   32.35    1.48
  -2  -2  18    4.63    0.77
  -2  -2  17   12.69    0.90
   2   2 -17   14.62    0.95
  -2   2  17   13.21    0.84
  -2  -2  16   10.95    0.89
   2   2 -16   11.69    0.91
  -2   2  16    9.38    0.76
  -2  -2  15    0.51    0.58
   2   2 -15    0.16    0.59
  -2   2  15    0.70    0.56
  -2  -2  14  290.20    9.65
   2   2 -14  388.10   12.80
  -2   2  14  385.70   12.68
  -2  -2  13   62.19    2.33
   2   2 -13   67.66    2.50
  -2   2  13   67.19    2.41
  -2  -2  12  138.00    4.76
   2   2 -12  158.50    5.39
  -2   2  12  157.10    5.28
  -2  -2  11   15.90    0.93
   2   2 -11   19.04    1.05
  -2   2  11   17.05    0.90
  -2  -2  10   59.97    2.23
   2   2 -10   49.31    1.93
  -2  -2   9  248.80    8.28
   2   2  -9  254.00    8.45
  -2  -2   8   25.15    1.16
   2   2  -8   28.62    1.26
  -2  -2   7   40.20    1.60
   2   2  -7   43.60    1.71
  -2   2   7   40.03    1.53
  -2  -2   6   38.59    1.57
   2   2  -6   37.79    1.53
  -2   2   6   39.97    1.53
  -2  -2   5  282.40    9.36
   2   2  -5  259.10    8.60
  -2   2   5  274.40    9.03
   2  -2  -4  362.90   11.90
  -2  -2   4  380.10   12.49
   2   2  -4  372.20   12.23
  -2   2   4  368.30   12.07
   2  -2  -3  112.60    3.83
  -2  -2   3  112.00    3.85
   2   2  -3  114.60    3.93
  -2   2   3  111.00    3.77
   2  -2  -1   36.58    1.44
  -2  -2   1   35.40    1.39
   2   2  -1   35.90    1.39
  -2   2   1   37.62    1.47
   2  -2   0    8.79    0.73
  -2  -2   0    9.23    0.64
   2   2   0   10.93    0.64
  -2   2   0   10.72    0.71
   2  -2   1   13.56    0.88
  -2  -2  -1   13.34    0.69
   2   2   1   12.81    0.68
  -2   2  -1   14.10    0.83
   2  -2   2   41.47    1.66
  -2  -2  -2   40.34    1.47
   2   2   2   38.41    1.40
  -2   2  -2   40.92    1.64
   2  -2   3    5.81    0.74
  -2  -2  -3    5.27    0.46
   2   2   3    5.23    0.44
  -2   2  -3    5.91    0.66
   2  -2   4  487.80   15.99
   2   2   4  492.60   16.06
  -2   2  -4  500.90   16.41
   2  -2   5   50.77    1.92
   2   2   5   50.26    1.76
  -2   2  -5   55.29    2.08
   2  -2   6    7.12    0.74
   2   2   6    6.62    0.47
  -2   2  -6    8.02    0.70
   2  -2   7  177.30    5.98
  -2   2  -7  167.50    5.65
   2  -2   8   70.96    2.59
   2   2   8   66.19    2.29
  -2   2  -8   69.22    2.54
   2  -2   9    2.06    0.65
   2   2   9    2.50    0.43
  -2   2  -9    3.03    0.60
   2  -2  10  254.10    8.46
   2   2  10  263.30    8.68
  -2   2 -10  254.30    8.48
   2  -2  11   15.21    0.96
   2  -2  12    5.83    0.68
   2  -2  13   54.13    2.07
   2   2  13   49.48    1.83
  -2   2 -13   54.12    2.08
   2  -2  14   93.86    3.35
   2   2  14   89.02    3.11
  -2   2 -14   81.87    2.94
   2  -2  15    2.06    0.65
   2   2  15    3.56    0.59
  -2   2 -15    3.56    0.64
   2  -2  16   98.30    3.50
   2   2  16  103.00    3.59
  -2   2 -16  104.10    3.68
   2  -2  17    7.58    0.75
   2   2  17    7.31    0.71
  -2   2 -17    9.24    0.83
   2  -2  18   87.31    3.17
   2   2  18   95.30    3.39
  -2   2 -18   87.11    3.15
   2  -2  19   16.74    1.08
   2   2  19   18.70    1.05
  -2   2 -19   16.84    0.98
   2  -2  20    6.14    0.79
   2   2  20    5.05    0.74
  -2   2 -20    5.58    0.68
   2  -2  21    8.05    0.91
   2   2  21    6.82    0.80
  -2   2 -21    8.16    0.78
   2  -2  22   20.22    1.16
   2   2  22   20.99    1.17
  -2   2 -22   22.56    1.16
   2  -2  23    0.49    0.77
   2   2  23    0.70    0.73
  -2   2 -23    1.33    0.68
   2  -2  24   25.46    1.29
   2   2  24   27.06    1.35
  -2   2 -24   27.29    1.30
   2  -2  25    2.10    0.69
   2   2  25    1.26    0.73
  -2   2 -25    3.29    0.65
   2  -2  26    3.65    0.77
   2   2  26    6.25    0.85
  -2   2 -26    4.50    0.69
   2  -2  27    0.38    0.72
   2   2  27   -0.30    0.78
  -2   2 -27    0.41    0.61
   2  -2  28    1.87    0.67
   2   2  28    2.22    0.81
  -2   2 -28    2.10    0.68
   2  -2  29    1.66    0.69
   2   2  29    2.04    0.83
   2  -2  30    0.39    0.69
   2   2  30    1.16    0.79
   2  -2  31   16.77    1.17
   2   2  31   18.06    1.20
  -2  -4  30    2.34    0.70
   2   4 -30    2.82    0.66
  -2   4  30    1.14    1.16
  -2   4  30    4.07    1.37
  -2  -4  29    1.76    0.70
   2   4 -29    1.20    0.62
  -2   4  29    1.05    0.99
  -2   4  29    0.45    1.29
  -2  -4  28   12.98    0.95
   2   4 -28    9.17    0.77
  -2   4  28   11.61    1.19
  -2   4  28   10.69    1.28
  -2  -4  27   54.63    2.14
   2   4 -27   49.36    1.92
  -2   4  27   55.24    2.34
  -2   4  27   51.10    2.17
  -2  -4  26    0.49    0.64
   2   4 -26    0.21    0.58
  -2   4  26    1.16    0.84
  -2   4  26    0.66    0.90
  -2  -4  25   45.03    1.87
   2   4 -25   46.39    1.84
  -2   4  25   46.19    1.97
  -2   4  25   47.09    1.95
  -2  -4  24    2.44    0.66
   2   4 -24    1.62    0.61
  -2   4  24    1.05    0.88
  -2   4  24    3.60    0.81
  -2  -4  23    3.08    0.70
   2   4 -23    4.55    0.71
  -2   4  23    3.42    0.90
  -2   4  23    4.81    0.79
  -2  -4  22    2.51    0.69
   2   4 -22    3.16    0.63
  -2   4  22    4.70    0.80
  -2   4  22    3.39    0.79
  -2  -4  21   36.89    1.61
   2   4 -21   39.15    1.65
  -2   4  21   37.97    1.68
  -2   4  21   41.71    1.75
  -2  -4  20    1.36    0.69
   2   4 -20    0.51    0.57
  -2   4  20    0.74    0.78
  -2   4  20    1.44    0.70
  -2  -4  19   38.80    1.71
   2   4 -19   39.47    1.65
  -2   4  19   42.99    1.77
  -2   4  19   38.39    1.67
  -2  -4  18   20.83    1.17
   2   4 -18   20.48    1.11
  -2   4  18   22.12    1.13
  -2   4  18   21.90    1.20
  -2  -4  17   12.14    0.89
   2   4 -17   11.38    0.84
  -2   4  17   13.03    0.94
  -2   4  17   12.48    0.93
  -2  -4  16   42.64    1.76
   2   4 -16   45.53    1.83
  -2   4  16   50.52    1.96
  -2   4  16   48.07    1.90
  -2  -4  15   86.87    3.14
   2   4 -15   84.67    3.06
  -2   4  15   93.48    3.30
  -2  -4  14    8.39    0.79
  -2  -4  13  207.10    7.00
   2   4 -13  202.70    6.87
  -2   4  13  205.70    6.88
  -2  -4  12   31.53    1.43
   2   4 -12   31.58    1.47
  -2   4  12   31.39    1.31
  -2  -4  11  105.00    3.74
   2   4 -11   98.17    3.51
  -2   4  11  101.50    3.51
  -2  -4  10   13.05    0.90
   2   4 -10   14.51    0.94
  -2   4  10   12.50    0.77
  -2  -4   9   42.70    1.71
   2   4  -9   45.44    1.83
  -2   4   9   42.93    1.65
  -2  -4   8  221.10    7.41
   2   4  -8  214.40    7.21
  -2   4   8  218.80    7.29
   2  -4  -7   10.92    0.72
  -2  -4   7    9.76    0.81
   2   4  -7   11.26    0.83
  -2   4   7   11.01    0.72
   2  -4  -6    9.09    0.70
  -2  -4   6   10.53    0.80
   2   4  -6   11.14    0.80
  -2   4   6   11.68    0.73
   2  -4  -5  122.50    4.19
  -2  -4   5  123.90    4.27
   2   4  -5  119.70    4.14
  -2   4   5  129.20    4.39
   2  -4  -4   29.97    1.28
  -2  -4   4   31.79    1.37
   2   4  -4   27.96    1.26
  -2   4   4   31.56    1.30
   2  -4  -3   15.63    0.91
  -2  -4   3   15.35    0.88
   2   4  -3   16.17    0.90
  -2   4   3   15.70    0.84
   2  -4  -2    1.83    0.63
  -2  -4   2    0.80    0.58
   2   4  -2    1.97    0.56
  -2   4   2    1.65    0.54
   2  -4  -1  106.70    3.73
  -2  -4   1  107.30    3.73
   2   4  -1  115.50    3.96
  -2   4   1  108.90    3.76
   2  -4   0    9.19    0.80
  -2  -4   0    9.25    0.71
   2   4   0   13.15    0.77
  -2   4   0   11.60    0.80
   2  -4   1  534.00   17.50
  -2  -4  -1  587.30   19.19
   2   4   1  574.20   18.77
  -2   4  -1  570.70   18.68
   2  -4   2    4.42    0.66
  -2  -4  -2    5.32    0.57
   2   4   2    3.39    0.53
  -2   4  -2    2.60    0.63
   2  -4   3   33.01    1.37
  -2  -4  -3   32.74    1.28
   2   4   3   34.00    1.34
  -2   4  -3   34.13    1.46
   2  -4   4   21.87    1.10
  -2  -4  -4   23.17    0.98
   2   4   4   21.87    0.96
  -2   4  -4   22.18    1.13
   2  -4   5   74.91    2.73
  -2  -4  -5   69.62    2.43
   2   4   5   73.26    2.55
  -2   4  -5   78.40    2.84
   2  -4   6   64.88    2.43
  -2  -4  -6   62.89    2.21
   2   4   6   67.90    2.38
  -2   4  -6   60.05    2.28
   2  -4   7    0.34    0.58
   2   4   7    0.24    0.40
  -2   4  -7    1.58    0.66
   2  -4   8    7.36    0.74
   2   4   8    8.23    0.58
  -2   4  -8    8.34    0.77
   2  -4   9  132.20    4.60
   2   4   9  128.40    4.33
  -2   4  -9  129.90    4.51
   2  -4  10   30.80    1.44
   2   4  10   26.62    1.09
  -2   4 -10   27.72    1.34
   2  -4  11  103.70    3.65
   2   4  11  111.00    3.77
  -2   4 -11  108.90    3.85
   2  -4  12    1.28    0.67
   2   4  12    1.46    0.48
  -2   4 -12    0.74    0.69
   2  -4  13  154.30    5.29
   2   4  13  160.20    5.37
   2   4  13  161.20    5.41
  -2   4 -13  158.50    5.45
   2  -4  14   17.93    1.05
   2   4  14   15.49    0.81
   2   4  14   15.25    0.82
  -2   4 -14   17.22    1.02
   2  -4  15   51.29    2.05
   2   4  15   50.48    1.90
   2   4  15   45.21    1.73
  -2   4 -15   51.51    2.03
   2  -4  16   46.48    1.91
   2   4  16   51.83    1.95
   2   4  16   51.36    1.94
  -2   4 -16   49.50    1.96
   2  -4  17   10.86    0.86
   2   4  17    9.10    0.78
   2   4  17    9.52    0.80
   2  -4  18    2.98    0.67
   2   4  18    2.05    0.67
   2   4  18    1.44    0.60
  -2   4 -18    2.06    0.62
   2  -4  19    1.10    0.66
   2   4  19    0.33    0.62
   2   4  19    0.44    0.68
  -2   4 -19    1.17    0.61
   2  -4  20   14.26    0.97
   2   4  20   15.08    1.02
   2   4  20   15.89    0.93
  -2   4 -20   14.81    0.93
   2  -4  21    3.77    0.68
   2   4  21    3.62    0.73
   2   4  21    3.58    0.71
  -2   4 -21    4.53    0.65
   2  -4  22   -0.47    0.60
   2   4  22   -0.21    0.66
   2   4  22    0.39    0.77
  -2   4 -22    0.55    0.59
   2  -4  23    0.67    0.65
   2   4  23    1.47    0.77
   2   4  23    0.72    0.74
  -2   4 -23    2.11    0.59
   2  -4  24   -0.02    0.61
   2   4  24    0.55    0.85
   2   4  24   -0.34    0.72
  -2   4 -24    0.68    0.55
   2  -4  25   19.43    1.08
   2   4  25   21.50    1.20
   2   4  25   19.44    1.28
  -2   4 -25   19.62    1.03
   2  -4  26   20.95    1.13
   2   4  26   20.13    1.24
   2   4  26   19.80    1.42
  -2   4 -26   22.47    1.08
   2  -4  27   45.82    1.86
   2   4  27   44.32    1.93
   2   4  27   45.06    2.13
  -2   4 -27   44.45    1.76
   2  -4  28    1.35    0.68
   2   4  28    3.39    1.00
   2   4  28    2.22    1.22
  -2   4 -28    2.38    0.61
   2  -4  29    3.24    0.77
   2   4  29    2.54    1.57
   2   4  29    4.07    1.05
  -2   4 -29    4.19    0.68
   2  -4  30    5.21    0.75
   2   4  30    5.36    1.70
   2   4  30    6.12    1.13
  -2   4 -30    4.55    0.71
  -2  -6  27    0.97    0.58
   2   6 -27    0.93    0.57
  -2   6  27    2.27    1.24
  -2   6  27    2.47    1.50
  -2  -6  26    9.09    0.81
   2   6 -26    9.11    0.69
  -2   6  26    8.06    1.51
  -2   6  26   10.18    1.25
  -2  -6  25    1.81    0.63
   2   6 -25    1.61    0.58
  -2   6  25    1.27    1.08
  -2   6  25    1.92    1.28
  -2  -6  24    5.37    0.63
   2   6 -24    5.32    0.62
  -2   6  24    4.82    1.21
  -2   6  24    5.14    0.98
  -2  -6  23    2.63    0.64
   2   6 -23    3.70    0.61
  -2   6  23    4.94    1.14
  -2   6  23    3.26    0.92
  -2  -6  22    7.73    0.70
   2   6 -22    7.06    0.71
  -2   6  22    8.18    1.09
  -2   6  22    7.22    0.94
  -2  -6  21   37.80    1.62
  -2   6  21   43.93    1.87
  -2   6  21   46.00    1.90
  -2  -6  20    7.37    0.72
   2   6 -20    8.04    0.75
  -2   6  20    8.14    0.90
  -2   6  20    8.79    0.93
  -2  -6  19   15.12    0.93
   2   6 -19   15.19    0.89
  -2   6  19   16.31    1.07
  -2   6  19   15.93    1.07
  -2  -6  18   14.56    0.95
   2   6 -18   13.38    0.86
  -2   6  18   13.40    0.98
  -2   6  18   14.78    0.97
  -2  -6  17   49.34    1.95
   2   6 -17   46.09    1.86
  -2   6  17   51.27    1.99
  -2  -6  16   24.59    1.21
   2   6 -16   27.80    1.31
  -2   6  16   27.74    1.28
  -2  -6  15    9.08    0.80
   2   6 -15    9.29    0.79
  -2   6  15   10.21    0.87
  -2  -6  14    0.72    0.64
   2   6 -14    1.12    0.60
  -2   6  14    1.45    0.63
  -2  -6  13   92.37    3.35
   2   6 -13   91.29    3.29
  -2   6  13   96.84    3.40
  -2  -6  12    2.04    0.68
   2   6 -12    3.13    0.63
  -2   6  12    2.47    0.64
  -2  -6  11   21.99    1.19
   2   6 -11   20.71    1.12
  -2   6  11   24.17    1.18
  -2  -6  10   27.87    1.29
   2   6 -10   30.39    1.39
  -2   6  10   31.31    1.37
  -2  -6   9  123.40    4.27
   2   6  -9  117.10    4.12
  -2   6   9  127.50    4.38
   2  -6  -8   -0.21    0.55
  -2  -6   8    0.46    0.58
   2   6  -8   -0.70    0.56
  -2   6   8    0.12    0.59
   2  -6  -7    4.78    0.68
  -2  -6   7    4.68    0.67
   2   6  -7    3.96    0.70
  -2   6   7    3.75    0.66
   2  -6  -6    4.24    0.64
  -2  -6   6    4.25    0.66
   2   6  -6    4.25    0.67
  -2   6   6    4.35    0.67
   2  -6  -5   65.70    2.41
  -2  -6   5   65.21    2.50
   2   6  -5   67.46    2.50
  -2   6   5   67.66    2.49
   2  -6  -4    5.30    0.69
  -2  -6   4    3.04    0.78
   2   6  -4    5.07    0.68
  -2   6   4    5.31    0.70
   2  -6  -3    9.59    0.79
  -2  -6   3   11.84    0.96
   2   6  -3   11.34    0.85
  -2   6   3   10.34    0.84
   2  -6  -2    3.52    0.69
  -2  -6   2    2.97    0.72
   2   6  -2    2.41    0.64
  -2   6   2    2.63    0.64
   2  -6  -1    2.19    0.72
  -2  -6   1    1.98    0.62
   2   6  -1    3.24    0.64
  -2   6   1    2.77    0.58
   2  -6   0   69.15    2.61
  -2  -6   0   70.78    2.58
   2   6   0   74.72    2.72
  -2   6   0   72.84    2.70
   2  -6   1    2.07    0.74
  -2  -6  -1    2.06    0.61
   2   6   1    1.77    0.65
  -2   6  -1    2.36    0.70
   2  -6   2    0.97    0.73
  -2  -6  -2    1.91    0.62
   2   6   2    3.30    0.65
  -2   6  -2    1.28    0.70
   2  -6   3   39.05    1.63
  -2  -6  -3   36.07    1.51
   2   6   3   41.41    1.65
  -2   6  -3   39.25    1.68
   2  -6   4    7.57    0.78
  -2  -6  -4    7.40    0.73
   2   6   4    6.86    0.69
  -2   6  -4    6.26    0.79
   2  -6   5    1.96    0.70
  -2  -6  -5    3.15    0.67
   2   6   5    2.04    0.55
  -2   6  -5    4.00    0.73
   2  -6   6   23.38    1.21
  -2  -6  -6   21.45    1.11
   2  -6   7  212.60    7.17
  -2  -6  -7  209.10    7.01
   2  -6   8    1.21    0.59
   2   6   8    1.08    0.53
  -2   6  -8    1.38    0.62
   2  -6   9  116.20    4.11
   2   6   9  116.00    3.97
  -2   6  -9  118.10    4.15
   2  -6  10    7.21    0.76
   2   6  10    7.93    0.64
  -2   6 -10    7.71    0.76
   2  -6  11    5.69    0.68
   2   6  11    5.45    0.61
  -2   6 -11    5.63    0.72
   2  -6  12   54.10    2.08
   2   6  12   58.23    2.13
  -2   6 -12   54.33    2.11
   2  -6  13    0.52    0.56
   2   6  13   -0.12    0.55
  -2   6 -13   -0.33    0.57
   2  -6  14   11.71    0.90
   2   6  14   12.71    0.77
  -2   6 -14   11.96    0.89
   2  -6  15   48.64    1.97
   2   6  15   41.67    1.62
   2   6  15   46.26    1.76
  -2   6 -15   42.94    1.74
   2  -6  16    0.79    0.60
   2   6  16    0.41    0.57
   2   6  16    0.68    0.63
  -2   6 -16    1.11    0.59
   2  -6  17   62.27    2.30
   2   6  17   65.41    2.36
   2   6  17   66.05    2.41
  -2   6 -17   65.89    2.45
   2  -6  18    1.02    0.55
   2   6  18    0.66    0.62
   2   6  18    2.15    0.61
  -2   6 -18    1.15    0.58
   2  -6  19   27.84    1.29
   2   6  19   25.71    1.22
   2   6  19   23.96    1.12
  -2   6 -19   25.86    1.20
   2  -6  20   41.60    1.68
   2   6  20   41.07    1.63
   2   6  20   40.30    1.63
  -2   6 -20   43.34    1.72
   2  -6  21    1.35    0.58
   2   6  21   -1.15    0.68
   2   6  21    0.56    0.67
  -2   6 -21    0.38    0.55
   2  -6  22   17.09    0.94
   2   6  22   14.99    1.06
   2   6  22   13.75    1.01
   2  -6  23    7.02    0.71
   2   6  23    4.43    0.94
   2   6  23    5.18    0.92
   2  -6  24    9.34    0.71
   2   6  24    8.98    1.00
   2   6  24    6.93    1.16
   2  -6  25    3.91    0.64
   2   6  25    3.20    1.01
   2   6  25    1.30    1.20
  -2   6 -25    3.42    0.62
   2  -6  26    1.96    0.57
   2   6  26    1.77    1.32
   2   6  26    1.41    1.11
  -2   6 -26    1.53    0.57
  -2  -8  21   15.98    0.82
  -2   8  21   14.51    1.39
  -2   8  21   11.21    1.41
  -2  -8  20   21.13    1.01
   2   8 -20   20.49    0.98
  -2   8  20   16.84    1.63
  -2   8  20   16.36    1.30
  -2  -8  19    2.60    0.59
   2   8 -19    2.33    0.55
  -2   8  19    2.33    1.05
  -2   8  19    4.09    1.29
  -2  -8  18   15.61    0.92
  -2   8  18   12.83    1.27
  -2   8  18   10.16    1.10
  -2  -8  17    0.23    0.56
   2   8 -17   -0.27    0.58
  -2   8  17    0.48    1.01
  -2  -8  16   -0.26    0.62
   2   8 -16    0.65    0.58
  -2   8  16    0.11    0.89
  -2  -8  15   24.02    1.17
   2   8 -15   23.22    1.14
  -2   8  15   24.07    1.34
  -2  -8  14   -0.12    0.57
   2   8 -14    0.02    0.60
  -2   8  14    0.68    0.82
  -2  -8  13    5.46    0.71
   2   8 -13    6.10    0.78
  -2   8  13    4.56    0.82
  -2  -8  12    6.55    0.71
   2   8 -12    4.54    0.69
  -2   8  12    4.07    0.80
  -2  -8  11    6.59    0.69
   2   8 -11    7.63    0.76
  -2   8  11    6.24    0.83
  -2  -8  10    2.79    0.60
   2   8 -10    4.22    0.72
  -2   8  10    4.02    0.73
  -2  -8   9    3.65    0.74
   2   8  -9    3.24    0.72
  -2   8   9    4.08    0.71
  -2  -8   8   13.15    0.92
   2   8  -8   12.97    0.88
  -2   8   8   12.79    0.94
   2  -8  -7    0.40    0.75
  -2  -8   7    1.32    0.66
   2   8  -7    0.70    0.58
  -2   8   7    0.50    0.61
   2  -8  -6   50.43    1.98
  -2  -8   6   53.35    2.08
   2   8  -6   57.68    2.23
  -2   8   6   55.75    2.15
   2  -8  -5   14.01    0.93
  -2  -8   5   13.39    0.89
   2   8  -5   13.25    0.92
  -2   8   5   12.87    0.89
   2  -8  -4    5.57    0.76
  -2  -8   4    6.88    0.72
   2   8  -4    7.65    0.77
  -2   8   4    7.20    0.76
   2  -8  -3    3.39    0.72
  -2  -8   3    3.56    0.64
   2   8  -3    4.30    0.70
  -2   8   3    4.64    0.71
   2  -8  -2    3.73    0.74
  -2  -8   2    3.16    0.64
   2   8  -2    3.16    0.64
  -2   8   2    3.29    0.68
   2  -8  -1   34.02    1.50
  -2  -8   1   31.97    1.42
   2   8  -1   34.13    1.47
  -2   8   1   33.80    1.49
   2  -8   0    6.13    0.74
  -2  -8   0    5.38    0.76
   2   8   0    4.56    0.69
  -2   8   0    4.63    0.73
   2  -8   1    0.49    0.57
  -2  -8  -1    0.49    0.62
   2   8   1    0.45    0.64
  -2   8  -1    0.99    0.71
   2  -8   2    0.77    0.69
  -2  -8  -2    0.10    0.63
   2   8   2    0.46    0.62
  -2   8  -2    0.35    0.69
   2  -8   3    4.04    0.75
  -2  -8  -3    3.99    0.68
   2   8   3    2.30    0.70
  -2   8  -3    4.43    0.78
   2  -8   4    0.03    0.60
  -2  -8  -4    0.87    0.71
   2   8   4    0.39    0.64
  -2   8  -4    0.84    0.70
   2  -8   5    3.70    0.66
  -2  -8  -5    3.83    0.75
   2   8   5    4.75    0.70
  -2   8  -5    4.56    0.70
   2  -8   6   62.29    2.37
  -2  -8  -6   63.50    2.39
   2   8   6   63.82    2.39
  -2   8  -6   60.60    2.34
   2  -8   7   15.23    0.95
   2   8   7   16.06    0.97
  -2   8  -7   14.18    0.94
   2  -8   8   36.45    1.54
   2   8   8   35.70    1.50
  -2   8  -8   34.90    1.56
   2  -8   9   -0.05    0.66
   2   8   9    0.76    0.63
  -2   8  -9    1.37    0.71
   2  -8  10    1.16    0.71
   2   8  10   -0.22    0.63
  -2   8 -10    0.63    0.63
   2  -8  11   15.62    0.93
   2   8  11   17.70    1.03
  -2   8 -11   16.36    1.03
   2  -8  12    6.54    0.69
   2   8  12    6.31    0.86
  -2   8 -12    7.87    0.75
   2  -8  13   15.15    0.93
   2   8  13   13.97    1.02
  -2   8 -13   14.48    0.95
   2  -8  14   20.28    1.08
   2   8  14   20.83    1.17
  -2   8 -14   19.57    1.08
   2  -8  15    1.66    0.56
   2   8  15    1.16    0.70
   2   8  15    1.34    0.92
  -2   8 -15    1.35    0.57
   2  -8  16   14.36    0.91
   2   8  16   13.46    1.10
  -2   8 -16   14.69    0.89
   2  -8  17    2.68    0.61
   2   8  17    3.65    0.93
   2   8  17    1.98    0.75
  -2   8 -17    3.22    0.60
   2  -8  18   29.39    1.27
   2   8  18   34.10    1.57
  -2   8 -18   32.03    1.36
   2  -8  19   12.92    0.73
   2   8  19    9.13    0.89
   2   8  19   10.81    0.88
  -2   8 -19   12.26    0.79
   2  -8  20   20.42    1.00
  -2   8 -20   20.72    0.99
  -2 -10  10   11.24    0.91
   2  10 -10   12.44    1.07
  -2  10  10    8.52    1.59
  -2 -10   9    8.66    0.83
   2  10  -9    7.60    0.84
  -2  10   9    8.18    1.45
  -2 -10   8    9.29    0.81
   2  10  -8    8.91    0.92
  -2  10   8    8.30    1.32
  -2 -10   7    7.23    0.80
   2  10  -7    8.21    0.91
  -2  10   7    6.83    1.25
   2 -10  -6    2.09    0.97
  -2 -10   6    1.14    0.78
   2  10  -6   -0.11    0.73
  -2  10   6    1.71    1.02
   2 -10  -5    3.15    0.97
  -2 -10   5    0.65    0.79
   2  10  -5    1.45    0.80
  -2  10   5    2.74    1.04
   2 -10  -4   10.74    1.02
  -2 -10   4   10.52    0.99
   2  10  -4   11.86    1.02
  -2  10   4   10.41    1.10
   2 -10  -3    3.47    0.89
  -2 -10   3    5.16    0.89
   2  10  -3    4.32    0.91
  -2  10   3    5.42    0.97
   2 -10  -2    0.54    0.91
  -2 -10   2   -0.61    0.86
   2  10  -2   -0.31    0.81
  -2  10   2    0.78    0.87
   2 -10  -1   13.22    1.06
  -2 -10   1   13.23    1.05
   2  10  -1   12.81    1.10
  -2  10   1   12.34    1.05
   2 -10   0   -0.88    0.82
  -2 -10   0    1.31    0.82
   2  10   0    1.17    0.89
  -2  10   0    0.63    0.81
   2 -10   1    6.93    0.90
  -2 -10  -1    5.83    0.96
   2  10   1    6.41    0.96
  -2  10  -1    5.06    0.92
   2 -10   2   22.66    1.29
  -2 -10  -2   21.86    1.33
   2  10   2   21.61    1.32
  -2  10  -2   24.04    1.30
   2 -10   3    0.21    0.80
  -2 -10  -3    0.94    0.96
   2  10   3   -0.64    0.90
  -2  10  -3   -0.06    0.76
   2 -10   4    0.25    0.76
  -2 -10  -4    0.73    0.98
   2  10   4   -0.07    0.98
  -2  10  -4   -1.15    0.74
   2 -10   5    5.32    0.80
  -2 -10  -5    5.45    1.05
   2  10   5    5.04    1.09
  -2  10  -5    6.47    0.86
   2 -10   6   -0.20    0.64
   2  10   6    2.07    1.10
  -2  10  -6   -0.13    0.71
   2 -10   7    1.97    0.72
   2  10   7    2.03    1.18
  -2  10  -7    1.90    0.71
   2 -10   8    1.01    0.66
   2  10   8    1.51    1.12
  -2  10  -8    1.35    0.74
   2 -10   9    3.31    0.74
   2  10   9    2.08    1.11
  -2  10  -9    3.13    0.79
  -3  -1  33    0.57    0.77
  -3   1  33    0.95    0.93
  -3  -1  32   26.63    1.42
  -3   1  32   22.67    1.37
  -3  -1  31    4.84    0.93
  -3   1  31    6.00    0.95
  -3  -1  30   -0.14    0.80
  -3   1  30   -0.15    0.89
  -3  -1  29   10.12    0.90
  -3   1  29    8.64    0.99
  -3  -1  28    2.08    0.72
  -3   1  28    2.34    0.79
  -3  -1  27   13.80    1.01
  -3   1  27   11.45    1.07
  -3  -1  26   24.77    1.33
  -3   1  26   24.89    1.36
  -3  -1  25   14.35    1.02
  -3   1  25   15.54    1.10
  -3  -1  24    4.52    0.85
  -3   1  24    1.97    0.78
  -3  -1  23   13.72    1.07
  -3   1  23   15.92    1.04
  -3  -1  22  108.50    3.88
   3   1 -22  125.00    4.41
  -3   1  22  110.50    3.92
  -3  -1  21  101.20    3.65
   3   1 -21  104.60    3.71
  -3   1  21  110.00    3.91
  -3  -1  20   71.55    2.69
   3   1 -20   73.68    2.74
  -3   1  20   77.39    2.86
  -3  -1  19    3.32    0.73
   3   1 -19    4.06    0.77
  -3   1  19    2.70    0.62
  -3  -1  18   -0.18    0.66
   3   1 -18    0.32    0.63
  -3   1  18    0.10    0.61
  -3  -1  17   78.41    2.85
   3   1 -17   82.85    2.98
  -3   1  17   76.54    2.80
  -3  -1  16  196.30    6.62
   3   1 -16  199.10    6.69
  -3   1  16  207.60    6.98
  -3  -1  15  117.90    4.09
   3   1 -15  118.60    4.12
  -3   1  15  127.10    4.37
  -3  -1  14   78.44    2.84
   3   1 -14   74.24    2.71
  -3   1  14   76.12    2.73
  -3  -1  13   12.76    0.84
   3   1 -13   15.42    0.95
  -3   1  13   14.90    0.87
  -3  -1  12    1.65    0.57
   3   1 -12    1.45    0.58
  -3   1  12    1.60    0.59
  -3  -1  11  145.30    4.96
   3   1 -11  148.30    5.06
  -3   1  11  139.30    4.71
  -3  -1  10  179.90    6.07
   3   1 -10  189.20    6.37
  -3   1  10  183.50    6.12
  -3  -1   9   71.38    2.58
   3   1  -9   71.95    2.61
  -3   1   9   69.64    2.48
  -3  -1   8   27.60    1.22
   3   1  -8   29.44    1.28
  -3  -1   7    2.47    0.61
   3   1  -7    3.79    0.63
  -3  -1   6   44.06    1.73
   3   1  -6   44.54    1.75
  -3  -1   5   83.68    2.94
   3   1  -5   86.89    3.04
  -3  -1   4  214.30    7.09
   3   1  -4  221.60    7.32
  -3   1   3  493.30   16.06
   3  -1  -2   54.69    1.94
  -3  -1   2   52.15    1.83
   3  -1  -1   28.10    1.11
  -3  -1   1   26.69    1.00
   3   1  -1   28.60    1.05
  -3   1   1   27.51    1.07
   3  -1   0  172.60    5.70
  -3  -1   0  174.20    5.70
   3   1   0  172.10    5.63
  -3   1   0  173.80    5.73
   3  -1   1   84.10    2.86
  -3  -1  -1   82.23    2.72
   3   1   1   82.59    2.73
  -3   1  -1   79.60    2.71
   3  -1   2  339.90   11.12
  -3   1  -2  360.10   11.78
  -3   1  -3  622.80   20.29
   3  -1   4  130.70    4.43
   3  -1   5  124.90    4.26
   3   1   5  123.00    4.08
  -3   1  -5  135.40    4.62
   3  -1   6    2.11    0.64
   3   1   6    2.01    0.40
  -3   1  -6    2.58    0.60
   3  -1   7   29.83    1.27
   3   1   7   29.17    1.13
  -3   1  -7   32.02    1.34
   3  -1   8   17.14    0.94
   3   1   8   15.08    0.73
  -3   1  -8   16.46    0.91
   3  -1   9   53.72    2.02
   3   1   9   54.38    1.96
  -3   1  -9   55.84    2.09
   3  -1  10    1.80    0.60
   3   1  10    1.37    0.47
  -3   1 -10    2.16    0.60
   3  -1  11  178.40    6.01
   3   1  11  174.10    5.82
  -3   1 -11  178.50    6.02
   3  -1  12    8.85    0.72
   3   1  12    6.34    0.58
  -3   1 -12    7.75    0.71
   3  -1  13    1.56    0.56
   3   1  13    1.05    0.47
  -3   1 -13    1.25    0.56
   3  -1  14    2.09    0.59
   3   1  14    2.28    0.53
  -3   1 -14    2.69    0.62
   3  -1  15    9.84    0.77
   3  -1  16  116.00    4.05
   3   1  16  118.60    4.11
  -3   1 -16  116.70    4.07
   3  -1  17   27.49    1.32
   3   1  17   25.28    1.21
  -3   1 -17   28.58    1.32
   3  -1  18    8.11    0.77
   3   1  18    8.51    0.76
  -3   1 -18    9.20    0.79
   3  -1  19   95.45    3.43
   3   1  19  103.60    3.68
  -3   1 -19   95.02    3.40
   3  -1  20   20.49    1.21
   3   1  20   24.12    1.24
  -3   1 -20   23.03    1.14
   3  -1  21    1.28    0.66
   3   1  21    0.91    0.69
  -3   1 -21    0.93    0.54
   3  -1  22   14.00    1.01
   3   1  22   13.73    0.96
  -3   1 -22   12.90    0.91
   3  -1  23   45.48    1.93
   3   1  23   46.06    1.89
  -3   1 -23   45.96    1.84
   3  -1  24   24.00    1.21
   3   1  24   23.24    1.24
  -3   1 -24   21.31    1.11
   3  -1  25   24.92    1.27
   3   1  25   24.64    1.27
  -3   1 -25   24.60    1.24
   3  -1  26    6.81    0.88
   3   1  26    6.19    0.84
  -3   1 -26    8.59    0.78
   3  -1  27    1.72    0.74
   3   1  27    0.99    0.77
   3  -1  28    8.82    0.87
   3   1  28    7.31    0.89
   3  -1  29   22.46    1.22
   3   1  29   21.92    1.27
   3  -1  30    0.51    0.77
   3   1  30   -0.63    0.86
   3  -1  31    1.16    0.85
   3   1  31    0.84    0.86
   3  -1  32   18.72    1.24
   3   1  32   16.94    1.23
  -3  -3  32   12.77    0.94
  -3   3  32   13.65    1.32
  -3  -3  31    3.24    0.72
  -3   3  31    3.11    0.97
  -3  -3  30    2.97    0.76
  -3   3  30    0.61    0.89
  -3  -3  29    8.18    0.90
   3   3 -29   10.83    0.76
  -3   3  29    8.00    1.03
  -3  -3  28   -0.28    0.77
   3   3 -28    0.84    0.60
  -3   3  28    1.20    0.88
  -3  -3  27    0.96    0.72
   3   3 -27    0.95    0.58
  -3   3  27    0.19    0.82
  -3  -3  26   39.89    1.69
   3   3 -26   40.59    1.67
  -3   3  26   43.05    1.83
  -3  -3  25   19.04    1.13
   3   3 -25   19.56    1.07
  -3   3  25   20.63    1.18
  -3  -3  24   21.48    1.18
   3   3 -24   19.26    1.06
  -3   3  24   19.45    1.18
  -3  -3  23    6.74    0.78
   3   3 -23    5.57    0.71
  -3   3  23    6.76    0.81
  -3  -3  22   18.21    1.09
   3   3 -22   17.49    1.02
  -3   3  22   16.02    1.04
  -3  -3  21    8.82    0.87
   3   3 -21    9.86    0.81
  -3   3  21   11.92    0.95
  -3  -3  20   37.19    1.67
  -3  -3  19    6.90    0.79
   3   3 -19    8.02    0.75
  -3   3  19    6.89    0.87
  -3  -3  18    9.15    0.85
   3   3 -18    6.25    0.71
  -3   3  18    6.79    0.83
  -3  -3  17   37.49    1.67
  -3  -3  16  138.60    4.83
   3   3 -16  140.80    4.88
  -3   3  16  130.20    4.48
  -3  -3  15   16.19    1.05
  -3  -3  14   30.03    1.41
   3   3 -14   28.81    1.32
  -3   3  14   27.21    1.22
  -3  -3  13   19.89    1.08
   3   3 -13   21.67    1.13
  -3   3  13   22.39    1.07
  -3  -3  12  101.60    3.56
   3   3 -12  101.60    3.59
  -3   3  12   99.00    3.45
  -3  -3  11    8.31    0.75
   3   3 -11    9.92    0.83
  -3   3  11    8.65    0.69
  -3  -3  10   86.71    3.12
   3   3 -10   88.07    3.16
  -3   3  10   86.77    3.03
  -3  -3   9   27.12    1.29
   3   3  -9   23.61    1.15
  -3   3   9   21.62    1.01
  -3  -3   8   60.88    2.29
   3   3  -8   65.90    2.44
  -3   3   8   60.90    2.20
  -3  -3   7   -0.25    0.56
   3   3  -7    0.34    0.55
  -3   3   7    0.27    0.53
   3  -3  -6   34.55    1.39
  -3  -3   6   36.65    1.52
   3   3  -6   35.68    1.47
  -3   3   6   36.11    1.44
   3  -3  -5   57.38    2.08
  -3  -3   5   57.41    2.14
   3   3  -5   56.40    2.11
  -3   3   5   57.67    2.10
   3  -3  -4  160.80    5.37
  -3  -3   4  169.80    5.70
   3   3  -4  169.10    5.69
  -3   3   4  164.10    5.50
   3  -3  -3   38.70    1.50
  -3  -3   3   40.01    1.53
   3   3  -3   40.54    1.56
  -3   3   3   37.91    1.48
   3  -3  -2  156.10    5.25
  -3  -3   2  158.20    5.30
   3   3  -2  149.60    5.03
  -3   3   2  158.20    5.31
   3  -3  -1   34.39    1.40
  -3  -3   1   35.87    1.40
   3   3  -1   37.24    1.44
  -3   3   1   38.83    1.53
   3  -3   0   61.48    2.24
  -3  -3   0   61.45    2.18
   3   3   0   59.60    2.13
  -3   3   0   64.73    2.35
   3  -3   1    7.71    0.73
  -3  -3  -1    9.09    0.61
   3   3   1    8.88    0.58
  -3   3  -1    9.18    0.71
   3  -3   2    4.34    0.62
  -3  -3  -2    3.96    0.50
   3   3   2    4.28    0.42
  -3   3  -2    3.18    0.64
   3  -3   3    8.14    0.72
  -3  -3  -3    7.24    0.54
   3   3   3    7.49    0.49
  -3   3  -3    7.30    0.74
   3  -3   4    4.06    0.69
  -3  -3  -4    3.06    0.44
   3   3   4    2.78    0.39
  -3   3  -4    3.06    0.66
   3  -3   5    2.41    0.65
   3   3   5    1.94    0.37
  -3   3  -5    2.27    0.60
   3  -3   6   25.20    1.15
   3   3   6   26.64    1.02
  -3   3  -6   28.29    1.27
   3  -3   7   81.88    2.93
   3   3   7   84.40    2.86
  -3   3  -7   87.57    3.12
   3  -3   8  150.20    5.15
   3   3   8  140.40    4.68
  -3   3  -8  143.90    4.92
   3  -3   9    6.09    0.75
   3   3   9    5.35    0.46
  -3   3  -9    6.06    0.69
   3  -3  10  307.90   10.23
   3   3  10  326.30   10.70
   3   3  10  318.10   10.44
  -3   3 -10  321.70   10.66
   3  -3  11    3.20    0.69
   3   3  11    2.52    0.44
   3   3  11    2.17    0.40
  -3   3 -11    3.68    0.65
   3  -3  12   25.65    1.24
   3   3  12   25.03    1.04
   3   3  12   24.73    1.02
  -3   3 -12   26.46    1.26
   3  -3  13    6.32    0.70
   3   3  13    6.31    0.54
   3   3  13    6.05    0.53
  -3   3 -13    6.76    0.73
   3  -3  14   17.95    1.05
   3   3  14   16.31    0.83
  -3   3 -14   18.62    1.07
   3  -3  15    9.67    0.82
   3  -3  16    4.14    0.72
   3   3  16    4.52    0.60
  -3   3 -16    6.44    0.78
   3  -3  17   11.98    0.92
   3   3  17   12.31    0.81
  -3   3 -17   12.34    0.82
   3  -3  18  107.50    3.82
   3   3  18  116.20    4.01
  -3   3 -18  108.90    3.84
   3  -3  19    0.12    0.63
   3   3  19    0.41    0.61
  -3   3 -19    0.98    0.57
   3  -3  20   53.67    2.13
   3   3  20   59.03    2.22
  -3   3 -20   56.33    2.18
   3  -3  21    1.79    0.69
   3   3  21    0.91    0.64
  -3   3 -21    1.95    0.63
   3  -3  22   87.52    3.18
   3   3  22   82.17    2.98
  -3   3 -22   81.30    2.96
   3  -3  23   74.02    2.75
   3   3  23   74.71    2.76
  -3   3 -23   74.84    2.75
   3  -3  24    5.95    0.77
   3   3  24    4.22    0.82
  -3   3 -24    4.37    0.70
   3  -3  25   15.21    0.97
   3   3  25   18.48    1.08
  -3   3 -25   14.84    0.93
   3  -3  26   44.37    1.83
   3   3  26   52.05    2.08
  -3   3 -26   45.39    1.82
   3  -3  27    0.15    0.65
   3   3  27   -0.30    0.84
  -3   3 -27    0.04    0.61
   3  -3  28    2.93    0.71
   3   3  28    2.92    0.87
  -3   3 -28    2.91    0.66
   3  -3  29   -0.02    0.76
   3   3  29   -0.38    0.98
  -3   3 -29    0.40    0.69
   3  -3  30   54.88    2.16
  -3  -5  29   24.24    1.14
   3   5 -29   22.75    1.09
  -3   5  29   25.69    1.68
  -3   5  29   22.79    2.07
  -3  -5  28   29.69    1.35
   3   5 -28   25.25    1.16
  -3   5  28   25.41    1.61
  -3  -5  27    1.34    0.68
   3   5 -27    0.58    0.56
  -3   5  27   -0.36    1.09
  -3   5  27    1.35    1.20
  -3  -5  26    4.61    0.72
   3   5 -26    4.08    0.62
  -3   5  26    4.88    0.95
  -3   5  26    3.70    1.25
  -3  -5  25    7.40    0.73
   3   5 -25    7.45    0.71
  -3   5  25    6.43    1.14
  -3   5  25    6.28    1.03
  -3  -5  24    1.30    0.70
   3   5 -24    0.14    0.55
  -3   5  24    0.70    0.82
  -3   5  24    0.07    0.98
  -3  -5  23   12.05    0.87
   3   5 -23   12.02    0.88
  -3   5  23    9.67    0.94
  -3   5  23   11.25    1.08
  -3  -5  22   32.90    1.45
   3   5 -22   31.86    1.42
  -3   5  22   31.93    1.54
  -3   5  22   30.48    1.49
  -3  -5  21    0.37    0.68
   3   5 -21   -0.62    0.59
  -3   5  21   -0.03    0.76
  -3   5  21    0.58    0.81
  -3  -5  20    7.10    0.77
   3   5 -20    5.75    0.70
  -3   5  20    6.38    0.87
  -3   5  20    6.45    0.88
  -3  -5  19   50.78    1.99
   3   5 -19   44.11    1.81
  -3   5  19   48.71    1.99
  -3   5  19   47.51    1.96
  -3  -5  18   74.60    2.78
   3   5 -18   75.02    2.76
  -3   5  18   75.45    2.77
  -3   5  18   77.34    2.80
  -3  -5  17   17.70    1.16
   3   5 -17   16.38    0.97
  -3   5  17   17.88    1.08
  -3  -5  16   16.83    1.09
   3   5 -16   16.25    0.96
  -3   5  16   15.76    1.04
  -3  -5  15    1.77    0.66
   3   5 -15    1.02    0.63
  -3   5  15    2.99    0.75
  -3  -5  14   31.03    1.39
   3   5 -14   33.51    1.47
  -3   5  14   32.65    1.43
  -3  -5  13   23.15    1.18
   3   5 -13   23.53    1.17
  -3   5  13   22.37    1.14
  -3  -5  12   12.97    0.92
   3   5 -12   11.89    0.89
  -3   5  12   11.93    0.85
  -3  -5  11   29.37    1.39
   3   5 -11   33.47    1.49
  -3   5  11   30.12    1.30
  -3  -5  10  109.30    3.88
   3   5 -10  100.50    3.59
  -3   5  10  108.50    3.76
  -3  -5   9   22.31    1.19
   3   5  -9   21.57    1.13
  -3   5   9   21.07    1.03
  -3  -5   8    1.14    0.71
   3   5  -8    1.83    0.66
  -3   5   8    1.33    0.57
   3  -5  -7   49.53    1.94
  -3  -5   7   51.20    2.00
   3   5  -7   51.98    2.04
  -3   5   7   52.26    1.98
   3  -5  -6    5.32    0.71
  -3  -5   6    6.21    0.68
   3   5  -6    6.01    0.75
  -3   5   6    6.22    0.67
   3  -5  -5    4.76    0.73
  -3  -5   5    3.96    0.62
   3   5  -5    6.22    0.67
  -3   5   5    5.40    0.66
   3  -5  -4   56.27    2.15
  -3  -5   4   59.62    2.22
   3   5  -4   60.29    2.26
  -3   5   4   57.46    2.16
   3  -5  -3   45.36    1.79
  -3  -5   3   45.22    1.77
   3   5  -3   50.23    1.92
  -3   5   3   47.49    1.86
   3  -5  -2   89.66    3.17
  -3  -5   2   90.05    3.19
   3   5  -2   89.39    3.17
  -3   5   2   89.07    3.17
   3  -5  -1   68.57    2.51
  -3  -5   1   69.86    2.54
   3   5  -1   69.18    2.52
  -3   5   1   72.44    2.65
   3  -5   0    1.76    0.64
  -3  -5   0    0.84    0.59
   3   5   0    1.48    0.53
  -3   5   0    0.72    0.53
   3  -5   1    7.44    0.71
  -3  -5  -1    7.04    0.71
   3   5   1    7.14    0.62
  -3   5  -1    6.36    0.66
   3  -5   2   47.66    1.91
  -3  -5  -2   50.49    1.92
   3   5   2   49.75    1.86
  -3   5  -2   48.10    1.90
   3  -5   3    1.99    0.68
  -3  -5  -3    0.90    0.52
   3   5   3    1.46    0.47
  -3   5  -3    1.70    0.58
   3  -5   4  130.90    4.54
  -3  -5  -4  127.70    4.34
   3   5   4  133.10    4.50
  -3   5  -4  126.50    4.39
   3  -5   5   11.16    0.85
  -3  -5  -5    9.77    0.65
   3   5   5    9.96    0.65
  -3   5  -5   12.72    0.88
   3  -5   6    0.22    0.68
  -3  -5  -6    0.24    0.44
   3   5   6    0.52    0.44
  -3   5  -6    1.11    0.68
   3  -5   7  128.10    4.43
   3   5   7  130.90    4.41
  -3   5  -7  135.00    4.69
   3  -5   8   19.49    1.03
   3   5   8   20.20    0.92
  -3   5  -8   23.44    1.24
   3  -5   9   36.81    1.59
   3   5   9   35.08    1.35
  -3   5  -9   38.48    1.64
   3  -5  10   35.19    1.59
   3   5  10   33.99    1.32
  -3   5 -10   35.42    1.56
   3  -5  11   50.15    2.01
   3   5  11   49.51    1.81
  -3   5 -11   53.74    2.10
   3  -5  12   24.87    1.24
   3   5  12   27.61    1.13
  -3   5 -12   26.79    1.27
   3  -5  13    6.98    0.76
   3   5  13    6.10    0.56
   3   5  13    6.48    0.56
  -3   5 -13    7.88    0.79
   3  -5  14    6.43    0.69
   3   5  14    3.95    0.53
   3   5  14    3.89    0.56
  -3   5 -14    5.53    0.68
   3  -5  15    0.01    0.56
   3   5  15   -0.12    0.49
   3   5  15    0.09    0.49
  -3   5 -15    0.74    0.62
   3  -5  16   69.80    2.62
   3   5  16   69.38    2.46
   3   5  16   64.95    2.31
  -3   5 -16   70.90    2.65
   3  -5  17    7.96    0.82
   3   5  17    6.92    0.63
   3   5  17    7.54    0.67
  -3   5 -17    8.48    0.76
   3  -5  18    6.58    0.74
   3   5  18    5.13    0.62
   3   5  18    6.01    0.65
  -3   5 -18    6.72    0.73
   3  -5  19   30.57    1.36
   3   5  19   30.95    1.35
   3   5  19   28.83    1.23
  -3   5 -19   32.86    1.43
   3  -5  20    5.40    0.69
   3   5  20    4.42    0.67
   3   5  20    4.12    0.69
  -3   5 -20    3.97    0.60
   3  -5  21   29.71    1.37
   3   5  21   25.45    1.19
   3   5  21   25.92    1.23
  -3   5 -21   29.87    1.32
   3  -5  22    0.62    0.56
   3   5  22    0.16    0.74
   3   5  22   -0.57    0.69
  -3   5 -22    0.67    0.54
   3  -5  23   45.73    1.82
   3   5  23   44.19    1.78
   3   5  23   39.04    1.69
  -3   5 -23   43.60    1.71
   3  -5  24    7.99    0.73
   3   5  24    6.09    0.97
  -3   5 -24    7.22    0.68
   3  -5  25    4.69    0.67
   3   5  25    2.19    1.11
   3   5  25    3.70    0.89
  -3   5 -25    4.17    0.62
   3  -5  26   -0.07    0.59
   3   5  26    0.57    1.20
   3   5  26   -0.14    0.98
  -3   5 -26   -0.06    0.56
   3  -5  27    0.82    0.62
   3   5  27    1.88    1.07
   3   5  27    4.66    1.49
  -3   5 -27    0.93    0.53
   3  -5  28   17.35    0.88
   3   5  28   16.53    1.43
   3   5  28   14.94    1.68
  -3  -7  25   -0.39    0.47
   3   7 -25   -0.74    0.55
  -3  -7  24    6.82    0.63
   3   7 -24    6.57    0.65
  -3   7  24    3.92    1.09
  -3   7  24    4.81    1.43
  -3  -7  23   43.86    1.72
   3   7 -23   44.51    1.71
  -3   7  23   51.03    2.34
  -3   7  23   50.05    2.16
  -3  -7  22    3.16    0.57
   3   7 -22    1.32    0.53
  -3   7  22    3.52    1.06
  -3   7  22    1.92    1.10
  -3  -7  21    2.94    0.61
   3   7 -21    3.03    0.62
  -3   7  21    1.50    1.10
  -3   7  21    2.13    1.03
  -3  -7  20    6.01    0.64
   3   7 -20    5.05    0.62
  -3   7  20    4.58    1.01
  -3   7  20    5.39    0.99
  -3  -7  19    0.06    0.61
   3   7 -19    0.36    0.52
  -3   7  19    0.79    0.93
  -3   7  19    0.63    0.87
  -3  -7  18   11.84    0.84
   3   7 -18   11.68    0.79
  -3   7  18   10.34    0.99
  -3  -7  17    0.61    0.56
   3   7 -17    0.35    0.58
  -3   7  17    0.19    0.74
  -3  -7  16    0.62    0.65
   3   7 -16    0.46    0.62
  -3   7  16   -0.33    0.72
  -3  -7  15    0.28    0.58
   3   7 -15    0.24    0.58
  -3   7  15    0.17    0.68
  -3  -7  14    0.73    0.62
   3   7 -14   -0.11    0.60
  -3   7  14    0.62    0.65
  -3  -7  13    5.41    0.69
   3   7 -13    5.24    0.72
  -3   7  13    6.01    0.75
  -3  -7  12   37.10    1.58
   3   7 -12   37.90    1.61
  -3   7  12   38.60    1.59
  -3  -7  11   63.79    2.45
   3   7 -11   59.41    2.29
  -3   7  11   60.90    2.28
  -3  -7  10    0.76    0.68
   3   7 -10    1.00    0.65
  -3   7  10    2.08    0.68
  -3  -7   9   18.05    1.03
   3   7  -9   20.10    1.09
  -3   7   9   18.10    1.04
   3  -7  -8    1.24    0.67
  -3  -7   8    2.16    0.70
   3   7  -8    1.02    0.67
  -3   7   8    1.66    0.67
   3  -7  -7    4.68    0.71
  -3  -7   7    4.25    0.69
   3   7  -7    4.41    0.72
  -3   7   7    4.42    0.72
   3  -7  -6    8.25    0.76
  -3  -7   6    7.78    0.68
   3   7  -6    7.69    0.72
  -3   7   6    9.13    0.83
   3  -7  -5    1.92    0.72
  -3  -7   5    2.54    0.58
   3   7  -5    1.41    0.62
  -3   7   5    1.82    0.68
   3  -7  -4   -0.11    0.71
  -3  -7   4    1.02    0.59
   3   7  -4   -0.32    0.59
  -3   7   4    0.66    0.64
   3  -7  -3   -0.14    0.65
  -3  -7   3    0.88    0.60
   3   7  -3    0.77    0.53
  -3   7   3    0.95    0.66
   3  -7  -2    4.74    0.74
  -3  -7   2    4.21    0.66
   3   7  -2    4.75    0.67
  -3   7   2    3.77    0.73
   3  -7  -1    0.15    0.60
  -3  -7   1   -0.56    0.56
   3   7  -1    0.06    0.56
  -3   7   1    0.96    0.64
   3  -7   0    1.66    0.61
  -3  -7   0    3.86    0.65
   3   7   0    4.34    0.67
  -3   7   0    5.11    0.69
   3  -7   1   93.11    3.31
  -3  -7  -1   95.96    3.39
   3   7   1   92.52    3.30
  -3   7  -1   96.80    3.47
   3  -7   2    5.32    0.71
  -3  -7  -2    5.08    0.64
   3   7   2    5.78    0.72
  -3   7  -2    5.06    0.74
   3  -7   3  136.90    4.76
  -3  -7  -3  138.20    4.71
   3   7   3  124.30    4.28
  -3   7  -3  125.10    4.36
   3  -7   4   12.26    0.92
  -3  -7  -4   10.77    0.76
   3   7   4   12.10    0.80
  -3   7  -4   11.39    0.85
   3  -7   5   46.18    1.92
  -3  -7  -5   49.13    1.91
   3   7   5   46.20    1.77
  -3   7  -5   48.12    1.96
   3  -7   6   10.52    0.86
  -3  -7  -6   10.53    0.81
   3  -7   7    8.68    0.76
  -3  -7  -7    9.93    0.83
   3   7   7    9.65    0.73
  -3   7  -7    9.88    0.83
   3  -7   8   10.30    0.77
   3   7   8    9.71    0.72
  -3   7  -8   10.24    0.84
   3  -7   9   34.99    1.51
   3   7   9   37.83    1.51
  -3   7  -9   36.92    1.65
   3  -7  10    4.64    0.71
   3   7  10    4.08    0.61
  -3   7 -10    3.63    0.69
   3  -7  11   18.43    1.08
   3   7  11   16.00    0.91
  -3   7 -11   17.32    1.04
   3  -7  12    0.95    0.64
   3   7  12    1.68    0.62
  -3   7 -12    0.81    0.60
   3  -7  13   48.64    1.91
   3   7  13   50.28    1.88
  -3   7 -13   51.58    2.01
   3  -7  14    2.88    0.61
   3   7  14    1.83    0.60
  -3   7 -14    2.09    0.65
   3  -7  15   50.25    1.93
   3   7  15   53.23    1.99
  -3   7 -15   50.01    1.95
   3  -7  16    0.28    0.62
   3   7  16    0.66    0.56
   3   7  16    0.31    0.61
  -3   7 -16    0.33    0.60
   3  -7  17   41.69    1.63
   3   7  17   45.79    1.76
  -3   7 -17   45.74    1.81
   3  -7  18   11.94    0.82
   3   7  18   11.32    0.79
   3   7  18   10.31    0.83
  -3   7 -18   12.63    0.83
   3  -7  19   31.43    1.32
   3   7  19   30.85    1.34
   3   7  19   30.81    1.34
  -3   7 -19   30.98    1.33
   3  -7  20    2.47    0.57
   3   7  20    1.90    0.71
   3   7  20    2.51    0.70
  -3   7 -20    3.46    0.59
   3  -7  21    7.60    0.64
  -3   7 -21    9.08    0.69
   3  -7  22    0.15    0.50
  -3   7 -22    0.33    0.52
   3  -7  23    0.69    0.59
  -3   7 -23    0.85    0.49
  -3  -9  17   15.92    0.91
   3   9 -17   14.76    0.91
  -3   9  17   11.43    1.50
  -3  -9  16    1.73    0.64
   3   9 -16    2.13    0.66
  -3   9  16    1.83    1.35
  -3  -9  15    0.96    0.60
   3   9 -15    0.71    0.66
  -3   9  15    0.89    1.19
  -3  -9  14    2.41    0.66
   3   9 -14    2.41    0.68
  -3   9  14    1.93    1.12
  -3  -9  13   -0.07    0.67
   3   9 -13    0.87    0.65
  -3   9  13    0.06    0.99
  -3  -9  12   13.11    0.94
   3   9 -12    8.15    0.81
  -3   9  12    6.28    1.06
  -3  -9  11    0.22    0.60
   3   9 -11   -0.80    0.66
  -3   9  11    0.84    0.89
  -3  -9  10    3.55    0.66
   3   9 -10    1.74    0.63
  -3   9  10    3.38    0.89
  -3  -9   9   14.07    0.98
   3   9  -9   16.21    0.96
  -3   9   9   16.50    1.15
  -3  -9   8   24.32    1.20
   3   9  -8   24.88    1.22
  -3   9   8   22.29    1.28
   3  -9  -7    2.19    0.86
  -3  -9   7    2.44    0.71
   3   9  -7    2.25    0.67
  -3   9   7    1.52    0.79
   3  -9  -6    4.45    0.84
  -3  -9   6    5.54    0.80
   3   9  -6    5.59    0.76
  -3   9   6    3.94    0.81
   3  -9  -5   12.50    1.04
  -3  -9   5   13.12    0.96
   3   9  -5   13.33    0.93
  -3   9   5   10.84    0.96
   3  -9  -4    4.32    0.84
  -3  -9   4    2.67    0.72
   3   9  -4    3.96    0.71
  -3   9   4    2.39    0.80
   3  -9  -3   25.01    1.29
  -3  -9   3   25.25    1.26
   3   9  -3   24.76    1.24
  -3   9   3   25.56    1.33
   3  -9  -2   -0.23    0.71
  -3  -9   2    1.00    0.71
   3   9  -2    0.61    0.70
  -3   9   2    0.03    0.70
   3  -9  -1    9.16    0.92
  -3  -9   1   10.66    0.90
   3   9  -1   10.52    0.90
  -3   9   1   11.86    0.95
   3  -9   0    4.19    0.74
  -3  -9   0    6.31    0.83
   3   9   0    5.02    0.76
  -3   9   0    4.87    0.83
   3  -9   1    0.34    0.76
  -3  -9  -1    0.88    0.75
   3   9   1   -0.13    0.70
  -3   9  -1    2.13    0.77
   3  -9   2    4.54    0.77
  -3  -9  -2    1.91    0.75
   3   9   2    3.39    0.76
  -3   9  -2    3.11    0.80
   3  -9   3   16.29    1.03
  -3  -9  -3   17.21    1.11
   3   9   3   16.31    1.02
  -3   9  -3   17.03    1.09
   3  -9   4    3.51    0.78
  -3  -9  -4    2.96    0.84
   3   9   4    4.06    0.82
  -3   9  -4    2.72    0.70
   3  -9   5    1.19    0.73
  -3  -9  -5    0.45    0.80
   3   9   5    0.74    0.76
  -3   9  -5    1.84    0.76
   3  -9   6   -0.45    0.67
  -3  -9  -6    0.23    0.69
   3   9   6    1.09    0.76
  -3   9  -6    1.86    0.76
   3  -9   7   18.24    1.04
   3   9   7   20.92    1.19
  -3   9  -7   17.25    1.08
   3  -9   8    0.66    0.69
   3   9   8    0.33    0.81
  -3   9  -8    1.33    0.67
   3  -9   9   15.73    0.98
   3   9   9   13.73    1.12
  -3   9  -9   14.07    1.01
   3  -9  10    1.74    0.63
   3   9  10    1.51    1.09
  -3   9 -10    1.93    0.76
   3  -9  11    5.11    0.70
   3   9  11    3.53    1.16
  -3   9 -11    3.72    0.71
   3  -9  12    2.11    0.62
   3   9  12   -0.74    1.11
  -3   9 -12    2.04    0.67
   3  -9  13    0.79    0.56
   3   9  13    2.91    1.07
  -3   9 -13    0.88    0.64
   3  -9  14    4.46    0.62
   3   9  14    3.70    1.14
   3   9  14    2.22    0.82
  -3   9 -14    5.49    0.72
   3  -9  15    7.60    0.72
  -3   9 -15    6.56    0.68
   3  -9  16    6.99    0.59
  -3   9 -16    6.71    0.71
  -4   0  33    0.64    0.85
  -4   0  32    2.11    0.93
  -4   0  31    0.05    0.87
  -4   0  30   15.58    1.10
  -4   0  29    0.62    0.70
  -4   0  28   98.41    3.55
  -4   0  27    0.34    0.83
  -4   0  26  113.80    4.02
  -4   0  25   -0.08    0.79
  -4   0  24   21.17    1.27
  -4   0  23   -0.98    0.69
  -4   0  22    7.87    0.89
  -4   0  21    0.28    0.72
  -4   0  20    5.21    0.77
  -4   0  19   -0.34    0.59
  -4   0  18    0.77    0.64
  -4   0  17    0.26    0.56
  -4   0  16  321.80   10.66
  -4   0  15   -0.05    0.54
  -4   0  14 1363.00   44.31
  -4   0  13   -0.50    0.57
  -4   0  12 1048.00   34.11
  -4   0  11    0.51    0.55
  -4   0  10  940.00   30.60
  -4   0   9   -0.47    0.59
  -4   0   8  143.20    4.85
  -4   0   7    0.46    0.64
  -4   0   5   -0.27    0.54
  -4   0   1   -0.17    0.30
   4   0   0   55.56    1.87
  -4   0   0   52.07    1.77
   4   0   1    0.08    0.28
  -4   0  -1    0.03    0.29
   4   0   2  384.20   12.50
  -4   0  -2  381.70   12.42
   4   0   3    0.06    0.37
  -4   0  -3   -0.06    0.38
   4   0   4  124.90    4.17
  -4   0  -4  129.70    4.34
   4   0   5    0.42    0.49
  -4   0  -5    0.16    0.51
   4   0   6   18.57    0.91
  -4   0  -6   20.72    0.96
   4   0   7   -0.12    0.49
  -4   0  -7   -0.16    0.48
   4   0   8    0.71    0.49
  -4   0  -8    0.12    0.51
   4   0   9    0.14    0.48
  -4   0  -9    0.68    0.53
   4   0  10    2.87    0.52
  -4   0 -10    2.79    0.53
   4   0  11   -0.33    0.42
  -4   0 -11    0.38    0.52
   4   0  12  192.90    6.46
  -4   0 -12  195.70    6.56
   4   0  13    0.82    0.54
  -4   0 -13   -0.40    0.54
   4   0  14   53.88    2.06
  -4   0 -14   53.69    2.04
   4   0  15   -0.88    0.50
  -4   0 -15   -0.32    0.52
   4   0  16    5.34    0.69
  -4   0 -16    6.78    0.69
   4   0  17   -0.48    0.59
  -4   0 -17    1.27    0.56
   4   0  18  117.20    4.10
  -4   0 -18  130.70    4.50
   4   0  19    0.10    0.68
  -4   0 -19    0.45    0.53
   4   0  20   67.94    2.56
  -4   0 -20   64.89    2.42
   4   0  21   -0.14    0.61
  -4   0 -21   -0.17    0.55
   4   0  22   13.17    0.94
  -4   0 -22   12.45    0.92
   4   0  23    1.37    0.70
   4   0  24   25.55    1.33
   4   0  25    0.44    0.75
   4   0  26   38.63    1.69
   4   0  27    0.02    0.75
   4   0  28   25.24    1.30
   4   0  29    0.19    0.67
   4   0  30   -0.31    0.76
   4   0  31    0.16    0.81
   4   0  32    1.17    0.96
  -4  -2  33    4.54    0.94
  -4   2  33    2.22    1.12
  -4  -2  32    5.54    0.93
  -4   2  32    4.49    1.02
  -4  -2  31   -0.82    0.88
  -4   2  31    0.31    0.89
  -4  -2  30    0.87    0.87
  -4   2  30   -0.71    0.83
  -4  -2  29    5.93    0.90
  -4   2  29    6.40    0.85
  -4  -2  28    0.75    0.76
  -4   2  28    1.96    0.82
  -4  -2  27   15.74    1.06
  -4   2  27   15.33    1.08
  -4  -2  26   -0.57    0.72
  -4   2  26    0.72    0.82
  -4  -2  25   42.32    1.80
   4   2 -25   41.58    1.72
  -4   2  25   44.70    1.94
  -4  -2  24    3.89    0.81
   4   2 -24    3.16    0.66
  -4   2  24    2.55    0.80
  -4  -2  23   15.65    1.05
   4   2 -23   13.39    0.94
  -4   2  23   14.12    1.09
  -4  -2  22   34.09    1.56
   4   2 -22   34.46    1.55
  -4   2  22   34.71    1.58
  -4  -2  21   27.50    1.35
   4   2 -21   20.73    1.11
  -4   2  21   19.93    1.18
  -4  -2  20   28.48    1.42
   4   2 -20   24.32    1.18
  -4   2  20   27.14    1.37
  -4  -2  19    3.65    0.77
   4   2 -19    4.60    0.76
  -4   2  19    4.54    0.75
  -4  -2  18  133.20    4.64
   4   2 -18  126.10    4.39
  -4   2  18  120.10    4.18
  -4  -2  17    0.62    0.69
   4   2 -17    0.38    0.62
  -4   2  17    0.20    0.58
  -4  -2  16   22.21    1.13
   4   2 -16   23.59    1.17
  -4   2  16   22.62    1.09
  -4  -2  15    1.78    0.62
   4   2 -15    2.07    0.63
  -4   2  15    2.11    0.57
  -4  -2  14    3.33    0.64
   4   2 -14    3.87    0.66
  -4   2  14    3.37    0.58
  -4  -2  13   70.11    2.61
   4   2 -13   69.58    2.55
  -4   2  13   72.98    2.62
  -4  -2  12  107.90    3.80
   4   2 -12  104.50    3.66
  -4  -2  11  278.60    9.27
   4   2 -11  262.00    8.73
  -4  -2  10   93.92    3.30
   4   2 -10   92.01    3.26
  -4  -2   9   76.49    2.76
   4   2  -9   73.39    2.65
  -4  -2   8  515.20   16.88
   4   2  -8  530.00   17.36
  -4   2   8  551.90   18.03
  -4  -2   7    4.50    0.60
   4   2  -7    2.93    0.61
  -4   2   7    4.38    0.59
  -4  -2   6    2.33    0.56
   4   2  -6    3.42    0.60
  -4   2   6    2.68    0.55
  -4  -2   5    9.99    0.77
   4   2  -5    9.75    0.76
  -4   2   5    8.57    0.69
   4  -2  -4  239.20    7.94
  -4  -2   4  253.30    8.40
   4   2  -4  235.50    7.80
  -4   2   4  239.90    7.94
   4  -2  -3    3.78    0.62
  -4  -2   3    3.53    0.61
   4   2  -3    3.07    0.56
  -4   2   3    4.72    0.61
   4  -2  -2   11.38    0.83
  -4  -2   2    9.51    0.67
   4   2  -2   10.49    0.68
  -4   2   2   11.02    0.79
   4  -2  -1  117.10    4.02
  -4  -2   1  110.20    3.71
   4   2  -1  113.20    3.82
  -4   2   1  114.50    3.92
  -4   2   0  994.20   32.35
   4  -2   3  411.80   13.53
   4   2   3  430.60   14.08
  -4   2  -3  431.00   14.15
   4  -2   4   38.72    1.57
   4   2   4   39.21    1.35
  -4   2  -4   38.21    1.57
   4  -2   5   11.90    0.79
   4   2   5   10.45    0.48
  -4   2  -5   10.45    0.76
   4  -2   6    0.61    0.62
   4   2   6    1.05    0.30
   4   2   6    0.86    0.28
  -4   2  -6    0.78    0.56
   4  -2   7   37.96    1.55
   4   2   7   35.29    1.26
  -4   2  -7   37.38    1.56
   4  -2   8  214.10    7.17
   4   2   8  219.40    7.22
  -4   2  -8  229.60    7.68
   4  -2   9   12.15    0.80
   4   2   9   10.29    0.58
  -4   2  -9   11.74    0.82
   4  -2  10    2.73    0.67
   4   2  10    3.20    0.41
  -4   2 -10    2.27    0.60
   4  -2  11   67.08    2.50
   4   2  11   64.08    2.25
  -4   2 -11   65.24    2.44
   4  -2  12    2.49    0.60
   4   2  12    3.01    0.46
  -4   2 -12    2.85    0.66
   4  -2  13   62.84    2.35
   4   2  13   62.25    2.24
  -4   2 -13   66.90    2.48
   4  -2  14   30.80    1.35
   4   2  14   25.28    1.12
  -4   2 -14   28.98    1.31
   4  -2  15   49.86    1.95
   4  -2  16    1.19    0.61
   4   2  16    0.70    0.50
  -4   2 -16    0.37    0.61
   4  -2  17    1.02    0.62
   4   2  17    0.22    0.56
  -4   2 -17    0.23    0.61
   4  -2  18   70.87    2.65
   4   2  18   78.35    2.82
  -4   2 -18   76.08    2.80
   4  -2  19   26.60    1.36
   4   2  19   27.47    1.29
  -4   2 -19   27.40    1.29
   4  -2  20    1.72    0.74
   4   2  20    3.66    0.66
  -4   2 -20    4.89    0.68
   4  -2  21   14.23    0.97
   4   2  21   11.44    0.87
  -4   2 -21   12.77    0.90
   4  -2  22   28.60    1.38
   4  -2  23    1.29    0.63
   4   2  23    1.78    0.73
  -4   2 -23    0.69    0.57
   4  -2  24    9.82    0.88
   4   2  24   10.20    0.91
  -4   2 -24    9.51    0.81
   4  -2  25   87.26    3.16
   4   2  25   87.10    3.16
  -4   2 -25   83.93    3.00
   4  -2  26    1.03    0.73
   4   2  26    0.99    0.73
  -4   2 -26    1.12    0.58
   4  -2  27   24.57    1.27
   4   2  27   22.20    1.23
  -4   2 -27   25.94    1.24
   4  -2  28    1.32    0.74
   4   2  28    0.34    0.81
  -4   2 -28    1.82    0.71
   4  -2  29    5.80    0.78
   4   2  29    4.89    0.95
  -4   2 -29    5.06    0.72
   4  -2  30   -0.33    0.72
   4   2  30    0.87    0.87
   4  -2  31    0.79    0.81
   4   2  31   -0.14    0.91
  -4  -4  31   17.22    1.08
  -4   4  31   17.69    1.40
  -4   4  31   12.87    1.73
  -4  -4  30    0.13    0.65
   4   4 -30    0.19    0.59
  -4   4  30    0.13    1.01
  -4   4  30   -0.48    1.17
  -4  -4  29    1.44    0.69
   4   4 -29    1.98    0.65
  -4   4  29    0.60    1.00
  -4   4  29    0.40    1.22
  -4  -4  28   -0.25    0.70
   4   4 -28    0.48    0.60
  -4   4  28   -0.31    0.91
  -4   4  28    0.66    1.15
  -4  -4  27   41.06    1.69
   4   4 -27   42.69    1.74
  -4   4  27   44.74    1.92
  -4   4  27   45.62    2.01
  -4  -4  26   -0.84    0.71
   4   4 -26    0.36    0.60
  -4   4  26    0.80    0.79
  -4   4  26    0.53    0.87
  -4  -4  25    6.38    0.75
   4   4 -25    5.37    0.67
  -4   4  25    3.20    0.84
  -4   4  25    5.66    0.95
  -4  -4  24    3.91    0.78
   4   4 -24    4.03    0.66
  -4   4  24    2.27    0.91
  -4   4  24    2.56    0.80
  -4  -4  23    8.50    0.84
   4   4 -23    9.85    0.81
  -4   4  23    8.58    0.92
  -4   4  23    9.30    1.03
  -4  -4  22   14.54    0.99
   4   4 -22   13.80    0.89
  -4   4  22   13.51    1.02
  -4   4  22   13.31    1.04
  -4  -4  21   64.15    2.48
   4   4 -21   62.95    2.40
  -4   4  21   66.39    2.50
  -4   4  21   63.58    2.43
  -4  -4  20    0.66    0.73
   4   4 -20    0.15    0.59
  -4   4  20    0.14    0.77
  -4   4  20   -0.36    0.83
  -4  -4  19  161.20    5.56
   4   4 -19  160.20    5.50
  -4   4  19  159.00    5.47
  -4   4  19  166.30    5.66
  -4  -4  18   17.20    1.06
   4   4 -18   15.07    0.94
  -4   4  18   16.65    1.01
  -4   4  18   16.47    1.04
  -4  -4  17    0.41    0.69
   4   4 -17    2.20    0.64
  -4   4  17    0.54    0.72
  -4   4  17    1.43    0.71
  -4  -4  16   86.22    3.14
   4   4 -16   83.14    3.02
  -4   4  16   87.60    3.14
  -4  -4  15    0.47    0.72
   4   4 -15   -0.18    0.63
  -4   4  15    0.53    0.72
  -4  -4  14   37.52    1.64
   4   4 -14   41.14    1.73
  -4   4  14   36.11    1.51
  -4  -4  13    7.08    0.76
   4   4 -13    6.33    0.77
  -4   4  13    5.27    0.69
  -4  -4  12   15.10    0.99
   4   4 -12   16.93    1.02
  -4   4  12   13.96    0.87
  -4  -4  11   10.81    0.79
   4   4 -11   13.67    0.94
  -4   4  11   10.69    0.78
  -4  -4  10    9.31    0.72
   4   4 -10   10.26    0.82
  -4   4  10    9.94    0.74
  -4  -4   9   19.93    1.03
   4   4  -9   19.69    1.04
  -4   4   9   20.95    1.02
  -4  -4   8    4.43    0.72
   4   4  -8    3.18    0.66
  -4   4   8    4.22    0.62
   4  -4  -7  535.90   17.53
  -4  -4   7  503.40   16.55
   4   4  -7  516.20   16.94
  -4   4   7  501.50   16.44
   4  -4  -6    8.07    0.69
  -4  -4   6    8.03    0.71
   4   4  -6    6.88    0.72
  -4   4   6    7.67    0.70
   4  -4  -5  311.60   10.30
  -4  -4   5  308.10   10.21
   4   4  -5  294.20    9.75
  -4   4   5  311.30   10.29
   4  -4  -4    2.41    0.66
  -4  -4   4    3.25    0.58
   4   4  -4    2.85    0.62
  -4   4   4    2.20    0.59
   4  -4  -3    6.68    0.74
  -4  -4   3    7.12    0.70
   4   4  -3    6.80    0.67
  -4   4   3    5.43    0.66
   4  -4  -2    4.72    0.64
  -4  -4   2    3.90    0.60
   4   4  -2    2.90    0.53
  -4   4   2    4.30    0.63
   4  -4  -1  151.40    5.14
  -4  -4   1  164.30    5.53
   4   4  -1  160.50    5.39
  -4   4   1  170.80    5.77
   4  -4   0   43.89    1.71
  -4  -4   0   42.46    1.61
   4   4   0   43.61    1.66
  -4   4   0   47.07    1.84
   4  -4   1  201.30    6.73
  -4  -4  -1  202.70    6.72
   4   4   1  195.80    6.52
  -4   4  -1  208.70    7.00
   4  -4   2  135.60    4.63
  -4  -4  -2  138.70    4.65
   4   4   2  143.00    4.80
  -4   4  -2  141.00    4.83
   4  -4   3  146.20    5.00
  -4  -4  -3  145.80    4.87
   4   4   3  152.50    5.09
  -4   4  -3  145.20    4.98
   4  -4   4  452.70   14.90
  -4  -4  -4  469.40   15.34
   4   4   4  484.70   15.83
  -4   4  -4  473.60   15.58
   4  -4   5 1112.00   36.23
  -4  -4  -5 1078.00   35.07
   4   4   5 1074.00   34.93
  -4   4  -5 1042.00   33.95
   4  -4   6  431.10   14.21
   4   4   6  462.90   15.14
  -4   4  -6  430.30   14.18
   4  -4   7   52.10    2.03
   4   4   7   55.40    1.94
  -4   4  -7   54.84    2.14
   4  -4   8  166.00    5.67
   4   4   8  168.00    5.58
  -4   4  -8  162.20    5.55
   4  -4   9   13.78    0.93
   4   4   9   13.55    0.65
  -4   4  -9   12.33    0.94
   4  -4  10   15.02    0.91
   4   4  10   14.82    0.70
  -4   4 -10   15.16    1.01
   4  -4  11    4.86    0.72
   4   4  11    2.70    0.40
   4   4  11    3.36    0.44
  -4   4 -11    3.91    0.71
   4  -4  12    0.63    0.61
   4   4  12    0.19    0.37
   4   4  12    0.70    0.39
  -4   4 -12    0.65    0.64
   4  -4  13    4.35    0.72
   4   4  13    2.50    0.47
   4   4  13    2.52    0.47
  -4   4 -13    2.74    0.69
   4  -4  14    0.12    0.65
   4   4  14    0.51    0.43
   4   4  14    0.33    0.46
  -4   4 -14   -0.52    0.55
   4  -4  15   12.37    0.87
   4   4  15   10.08    0.66
   4   4  15   10.50    0.66
  -4   4 -15   12.07    0.83
   4  -4  16    5.90    0.73
   4   4  16    4.91    0.55
   4   4  16    5.54    0.57
  -4   4 -16    5.85    0.68
   4  -4  17    0.20    0.62
   4   4  17   -0.22    0.58
   4   4  17    0.25    0.48
  -4   4 -17   -0.03    0.57
   4  -4  18   41.62    1.76
   4   4  18   38.46    1.53
   4   4  18   42.57    1.71
  -4   4 -18   41.88    1.74
   4  -4  19   73.15    2.72
   4   4  19   75.64    2.72
   4   4  19   70.92    2.54
  -4   4 -19   73.61    2.72
   4  -4  20   25.25    1.22
   4   4  20   24.67    1.22
   4   4  20   25.07    1.19
  -4   4 -20   25.67    1.22
   4  -4  21   88.45    3.18
   4   4  21   88.53    3.17
   4   4  21   90.01    3.18
  -4   4 -21   83.02    3.00
   4  -4  22    4.51    0.76
   4   4  22    4.86    0.71
   4   4  22    4.18    0.80
  -4   4 -22    3.86    0.63
   4  -4  23    1.08    0.63
   4   4  23    0.46    0.84
   4   4  23    1.18    0.70
  -4   4 -23    1.05    0.59
   4  -4  24    6.94    0.74
   4   4  24    7.27    0.99
   4   4  24    6.66    0.82
  -4   4 -24    7.13    0.70
   4  -4  25    8.24    0.77
   4   4  25    6.96    1.12
   4   4  25    6.53    0.84
  -4   4 -25    7.96    0.69
   4  -4  26   25.63    1.28
   4   4  26   26.52    1.34
   4   4  26   29.67    1.64
  -4   4 -26   26.82    1.25
   4  -4  27   22.20    1.15
   4   4  27   26.33    1.41
   4   4  27   25.93    1.68
  -4   4 -27   24.84    1.17
   4  -4  28    8.36    0.86
   4   4  28    8.18    1.47
   4   4  28   10.10    1.13
  -4   4 -28   10.58    0.78
   4  -4  29    5.67    0.70
   4   4  29    5.57    1.12
   4   4  29    6.21    1.70
  -4   4 -29    6.05    0.69
  -4  -6  27    3.90    0.61
   4   6 -27    4.62    0.56
  -4   6  27    3.07    1.61
  -4   6  27    5.49    1.24
  -4  -6  26    0.32    0.64
   4   6 -26    0.22    0.51
  -4   6  26    1.10    1.12
  -4   6  26   -1.61    1.35
  -4  -6  25    6.63    0.74
   4   6 -25    6.14    0.63
  -4   6  25    5.96    1.33
  -4   6  25    5.53    1.11
  -4  -6  24    8.01    0.77
   4   6 -24    8.47    0.70
  -4   6  24    5.39    1.25
  -4   6  24    7.03    1.05
  -4  -6  23    1.40    0.58
   4   6 -23    1.42    0.59
  -4   6  23    1.43    1.04
  -4   6  23    2.05    0.97
  -4  -6  22    4.74    0.74
   4   6 -22    3.25    0.62
  -4   6  22    4.70    0.95
  -4   6  22    3.86    1.02
  -4  -6  21    6.24    0.71
   4   6 -21    6.09    0.70
  -4   6  21    5.59    0.92
  -4   6  21    4.70    0.91
  -4  -6  20   27.61    1.28
   4   6 -20   25.16    1.23
  -4   6  20   28.70    1.44
  -4   6  20   28.40    1.43
  -4  -6  19   17.53    1.05
   4   6 -19   16.51    0.97
  -4   6  19   16.20    1.07
  -4   6  19   16.96    1.13
  -4  -6  18    0.91    0.64
   4   6 -18    0.72    0.57
  -4   6  18    1.93    0.79
  -4  -6  17    3.85    0.72
   4   6 -17    3.82    0.67
  -4   6  17    4.46    0.76
  -4  -6  16   11.11    0.90
   4   6 -16   11.56    0.87
  -4   6  16   10.41    0.92
  -4  -6  15   43.12    1.80
   4   6 -15   43.29    1.80
  -4   6  15   43.62    1.78
  -4  -6  14   73.00    2.77
  -4  -6  13    6.60    0.79
   4   6 -13    6.76    0.75
  -4   6  13    5.94    0.80
  -4  -6  12    0.89    0.62
   4   6 -12   -0.21    0.57
  -4   6  12    0.37    0.68
  -4  -6  11  136.60    4.70
   4   6 -11  145.90    5.04
  -4   6  11  144.80    4.95
  -4  -6  10   14.45    0.91
   4   6 -10   13.94    0.90
  -4   6  10   14.66    0.94
  -4  -6   9    4.69    0.69
   4   6  -9    3.24    0.68
  -4   6   9    4.23    0.70
   4  -6  -8   38.53    1.60
  -4  -6   8   39.35    1.62
   4   6  -8   38.72    1.62
  -4   6   8   37.20    1.56
   4  -6  -7   12.65    0.87
  -4  -6   7   13.50    0.89
   4   6  -7   12.06    0.82
  -4   6   7   14.21    0.95
   4  -6  -6   41.80    1.68
  -4  -6   6   42.93    1.77
   4   6  -6   36.59    1.55
  -4   6   6   41.06    1.68
   4  -6  -5    1.49    0.63
  -4  -6   5    0.35    0.69
   4   6  -5    0.29    0.58
  -4   6   5   -0.54    0.63
   4  -6  -4    2.05    0.69
  -4  -6   4    1.60    0.69
   4   6  -4    1.79    0.59
  -4   6   4    2.28    0.63
   4  -6  -3   -0.16    0.70
  -4  -6   3    1.06    0.66
   4   6  -3    0.93    0.56
  -4   6   3    0.40    0.66
   4  -6  -2    1.41    0.74
  -4  -6   2    0.61    0.57
   4   6  -2    0.10    0.53
  -4   6   2    0.47    0.67
   4  -6  -1  112.70    4.01
  -4  -6   1  113.80    3.92
   4   6  -1  109.10    3.80
  -4   6   1  116.80    4.09
   4  -6   0   28.12    1.38
  -4  -6   0   28.02    1.25
   4   6   0   28.51    1.26
  -4   6   0   27.25    1.32
   4  -6   1   43.75    1.81
  -4  -6  -1   46.62    1.80
   4   6   1   47.23    1.84
  -4   6  -1   44.12    1.82
   4  -6   2   76.83    2.79
  -4  -6  -2   73.48    2.66
   4   6   2   70.84    2.55
  -4   6  -2   71.00    2.65
   4  -6   3   23.59    1.15
  -4  -6  -3   24.53    1.18
   4   6   3   26.01    1.15
  -4   6  -3   21.87    1.17
   4  -6   4   70.73    2.63
  -4  -6  -4   71.38    2.61
   4  -6   5   94.07    3.39
  -4  -6  -5   96.86    3.40
   4   6   5   99.96    3.45
  -4   6  -5  107.20    3.79
   4  -6   6    0.32    0.75
  -4  -6  -6    0.14    0.56
   4   6   6    1.74    0.48
  -4   6  -6    1.38    0.61
   4  -6   7   51.01    2.03
   4   6   7   51.37    1.89
  -4   6  -7   48.69    1.96
   4  -6   8  198.90    6.76
   4   6   8  198.20    6.61
  -4   6  -8  209.50    7.08
   4  -6   9  192.50    6.53
   4   6   9  206.50    6.88
  -4   6  -9  185.40    6.31
   4  -6  10   10.50    0.80
   4   6  10   11.20    0.70
  -4   6 -10   10.91    0.89
   4  -6  11   44.62    1.79
   4   6  11   41.01    1.56
  -4   6 -11   44.13    1.84
   4  -6  12  202.10    6.84
   4   6  12  192.70    6.42
  -4   6 -12  192.20    6.52
   4  -6  13    5.30    0.78
   4   6  13    3.44    0.51
   4   6  13    4.47    0.49
  -4   6 -13    5.82    0.71
   4  -6  14   89.35    3.27
   4   6  14  102.00    3.49
   4   6  14  102.50    3.51
  -4   6 -14  106.90    3.79
   4  -6  15   41.54    1.70
   4   6  15   39.09    1.49
   4   6  15   40.54    1.53
  -4   6 -15   43.16    1.77
   4  -6  16   -0.54    0.51
   4   6  16   -0.44    0.48
   4   6  16    0.51    0.50
  -4   6 -16   -0.32    0.58
   4  -6  17    0.54    0.59
   4   6  17    0.42    0.47
   4   6  17    0.56    0.50
  -4   6 -17    0.43    0.62
   4  -6  18   10.21    0.79
   4   6  18    7.64    0.63
   4   6  18    8.04    0.63
   4  -6  19    5.11    0.61
   4   6  19    2.09    0.59
   4   6  19    3.55    0.59
   4  -6  20   25.37    1.21
   4   6  20   25.04    1.11
   4   6  20   23.69    1.10
  -4   6 -20   26.67    1.21
   4  -6  21    0.29    0.57
   4   6  21    0.69    0.63
   4   6  21    0.65    0.65
  -4   6 -21   -0.04    0.51
   4  -6  22    7.38    0.67
   4   6  22    6.54    0.78
   4   6  22    6.31    0.80
  -4   6 -22    8.04    0.68
   4  -6  23    5.77    0.66
   4   6  23    6.92    0.83
   4   6  23    3.92    0.84
  -4   6 -23    6.75    0.67
   4  -6  24    2.56    0.63
   4   6  24    3.39    0.82
  -4   6 -24    3.55    0.56
   4  -6  25    9.01    0.72
   4   6  25    9.51    0.95
  -4   6 -25   10.85    0.75
   4  -6  26   11.01    0.69
   4   6  26    6.18    1.01
   4   6  26    9.49    1.11
  -4  -8  21    5.79    0.60
   4   8 -21    7.41    0.68
  -4   8  21    6.53    1.26
  -4   8  21    7.50    1.32
  -4  -8  20   10.38    0.74
   4   8 -20   10.81    0.73
  -4   8  20    8.47    1.24
  -4   8  20    7.13    1.32
  -4  -8  19    1.64    0.64
   4   8 -19    0.24    0.54
  -4   8  19    0.44    1.02
  -4   8  19    1.43    1.09
  -4  -8  18    5.46    0.64
   4   8 -18    5.26    0.68
  -4   8  18    5.61    1.04
  -4  -8  17    0.90    0.61
   4   8 -17    0.19    0.59
  -4   8  17   -1.10    0.88
  -4  -8  16    6.07    0.68
   4   8 -16    6.36    0.68
  -4   8  16    4.11    0.90
  -4  -8  15    1.86    0.67
   4   8 -15    1.80    0.62
  -4   8  15    1.63    0.85
  -4  -8  14    4.38    0.70
   4   8 -14    4.11    0.67
  -4   8  14    2.42    0.81
  -4  -8  13   20.65    1.06
   4   8 -13   18.76    1.07
  -4   8  13   21.67    1.23
  -4  -8  12   89.51    3.20
   4   8 -12   93.53    3.35
  -4   8  12   92.75    3.34
  -4  -8  11   29.11    1.36
   4   8 -11   27.98    1.33
  -4   8  11   30.26    1.40
  -4  -8  10   15.92    1.00
   4   8 -10   13.75    0.92
  -4   8  10   15.80    1.03
  -4  -8   9   25.31    1.25
   4   8  -9   23.36    1.19
  -4   8   9   23.92    1.21
   4  -8  -8    1.39    0.72
  -4  -8   8    0.33    0.63
   4   8  -8    1.57    0.59
  -4   8   8    2.64    0.73
   4  -8  -7   16.20    1.05
  -4  -8   7   15.93    0.92
   4   8  -7   18.04    1.01
  -4   8   7   16.54    1.05
   4  -8  -6    7.26    0.79
  -4  -8   6    8.77    0.75
   4   8  -6    9.37    0.76
  -4   8   6    7.71    0.82
   4  -8  -5   23.16    1.23
  -4  -8   5   24.53    1.18
   4   8  -5   23.96    1.20
  -4   8   5   23.89    1.21
   4  -8  -4   26.05    1.28
  -4  -8   4   25.85    1.25
   4   8  -4   23.32    1.16
  -4   8   4   27.71    1.32
   4  -8  -3    1.98    0.70
  -4  -8   3    1.55    0.62
   4   8  -3    1.49    0.61
  -4   8   3    1.71    0.66
   4  -8  -2   16.69    1.00
  -4  -8   2   17.70    1.00
   4   8  -2   20.11    1.07
  -4   8   2   18.93    1.07
   4  -8  -1   68.56    2.54
  -4  -8   1   62.67    2.37
   4   8  -1   61.49    2.32
  -4   8   1   64.63    2.44
   4  -8   0  143.80    4.97
  -4  -8   0  145.30    4.97
   4   8   0  142.20    4.89
  -4   8   0  129.10    4.50
   4  -8   1    7.61    0.85
  -4  -8  -1    6.37    0.73
   4   8   1    6.44    0.71
  -4   8  -1    6.12    0.81
   4  -8   2   18.72    1.13
  -4  -8  -2   20.02    1.08
   4   8   2   20.21    1.03
  -4   8  -2   20.65    1.19
   4  -8   3   11.09    0.89
  -4  -8  -3   11.06    0.86
   4   8   3   10.49    0.81
  -4   8  -3    8.93    0.85
   4  -8   4    1.77    0.67
  -4  -8  -4    2.56    0.70
   4   8   4    1.35    0.62
  -4   8  -4    2.94    0.78
   4  -8   5   29.52    1.34
  -4  -8  -5   31.71    1.38
   4   8   5   29.26    1.31
  -4   8  -5   31.50    1.49
   4  -8   6   17.46    1.02
  -4  -8  -6   18.20    1.00
   4   8   6   21.74    1.09
  -4   8  -6   21.95    1.16
   4  -8   7    2.32    0.65
   4   8   7    1.47    0.59
  -4   8  -7    1.44    0.71
   4  -8   8   62.53    2.38
   4   8   8   56.89    2.13
  -4   8  -8   63.57    2.43
   4  -8   9    1.04    0.64
   4   8   9    0.34    0.68
  -4   8  -9   -0.48    0.69
   4  -8  10    7.45    0.71
   4   8  10    6.09    0.75
  -4   8 -10    5.22    0.71
   4  -8  11    8.13    0.74
   4   8  11    8.07    0.80
  -4   8 -11   10.05    0.84
   4  -8  12  130.90    4.53
   4   8  12  136.90    4.67
  -4   8 -12  124.90    4.34
   4  -8  13   18.29    0.99
   4   8  13   21.12    1.10
  -4   8 -13   19.64    1.09
   4  -8  14   19.75    0.99
   4   8  14   20.97    1.06
  -4   8 -14   22.60    1.13
   4  -8  15   16.24    0.96
   4   8  15   16.56    0.91
  -4   8 -15   17.06    0.97
   4  -8  16    3.93    0.60
  -4   8 -16    3.97    0.62
   4  -8  17    0.35    0.58
  -4   8 -17    1.32    0.59
   4  -8  18    4.03    0.57
  -4   8 -18    4.56    0.66
   4  -8  19    2.30    0.63
  -4   8 -19    3.64    0.58
   4  -8  20   11.99    0.72
  -4   8 -20   14.15    0.79
  -4 -10  10    1.02    0.76
   4  10 -10    1.16    0.72
  -4  10  10    0.00    1.18
  -4 -10   9    1.63    0.74
   4  10  -9    0.43    0.73
  -4  10   9    0.30    1.12
  -4 -10   8   13.29    0.97
   4  10  -8   13.72    1.02
  -4  10   8   14.38    1.31
  -4 -10   7   33.96    1.52
   4  10  -7   33.98    1.57
  -4  10   7   30.32    1.64
   4 -10  -6    1.85    0.94
  -4 -10   6    3.69    0.83
   4  10  -6    1.97    0.80
  -4  10   6    1.74    0.99
   4 -10  -5    0.34    0.91
  -4 -10   5    1.01    0.78
   4  10  -5    1.19    0.81
  -4  10   5   -0.94    1.03
   4 -10  -4    7.12    1.00
  -4 -10   4    6.90    0.94
   4  10  -4    7.40    0.96
  -4  10   4    9.92    1.06
   4 -10  -3    1.80    0.83
  -4 -10   3    2.36    0.82
   4  10  -3    3.14    0.84
  -4  10   3    2.36    0.92
   4 -10  -2    6.83    1.00
  -4 -10   2    7.15    0.96
   4  10  -2    7.48    0.94
  -4  10   2    6.48    0.99
   4 -10  -1    1.57    0.82
  -4 -10   1    1.97    0.85
   4  10  -1    0.49    0.88
  -4  10   1   -0.10    0.90
   4 -10   0    1.19    0.87
  -4 -10   0    0.83    0.90
   4  10   0   -1.00    0.88
  -4  10   0   -0.84    0.86
   4 -10   1   30.71    1.45
  -4 -10  -1   31.24    1.59
   4  10   1   32.52    1.64
  -4  10  -1   31.04    1.54
   4 -10   2    1.75    0.73
  -4 -10  -2    3.93    1.01
   4  10   2    2.31    0.93
  -4  10  -2    3.23    0.88
   4 -10   3    0.45    0.71
  -4 -10  -3   -0.02    1.05
   4  10   3    2.01    0.97
  -4  10  -3    0.13    0.83
   4 -10   4    6.89    0.85
  -4 -10  -4    5.01    1.06
   4  10   4    3.83    1.06
  -4  10  -4    6.35    0.91
   4 -10   5   11.75    0.94
   4  10   5   13.88    1.28
  -4  10  -5   13.43    0.98
   4 -10   6   16.52    0.97
   4 -10   7   27.96    1.30
   4  10   7   27.35    1.56
  -4  10  -7   27.56    1.33
   4 -10   8   38.16    1.58
   4  10   8   45.35    2.19
  -4  10  -8   41.47    1.77
  -5  -1  33   -0.07    0.78
  -5   1  33    0.64    0.98
  -5  -1  32   -0.18    0.79
  -5   1  32    0.77    0.81
  -5  -1  31   13.30    1.07
  -5   1  31   16.86    1.21
  -5  -1  30    2.62    0.83
  -5   1  30    0.40    0.87
  -5  -1  29   52.01    2.09
  -5   1  29   52.57    2.15
  -5  -1  28  101.90    3.63
  -5   1  28   98.69    3.59
  -5  -1  27    0.49    0.78
  -5   1  27    1.33    0.76
  -5  -1  26    2.12    0.77
  -5   1  26    1.89    0.81
  -5  -1  25    9.85    0.98
  -5   1  25    8.63    0.95
  -5  -1  24   14.79    1.11
  -5   1  24   15.64    1.07
  -5  -1  23   48.63    1.99
  -5   1  23   49.94    2.06
  -5  -1  22    4.14    0.78
  -5   1  22    3.60    0.81
  -5  -1  21   52.96    2.16
  -5   1  21   52.72    2.13
  -5  -1  20   22.35    1.22
  -5   1  20   26.12    1.31
  -5  -1  19    3.15    0.71
   5   1 -19    5.59    0.75
  -5   1  19    3.63    0.66
  -5  -1  18   25.90    1.26
   5   1 -18   27.79    1.30
  -5   1  18   23.36    1.16
  -5  -1  17   38.57    1.62
  -5  -1  16   74.90    2.75
   5   1 -16   78.09    2.81
  -5   1  16   73.73    2.69
  -5  -1  15  112.10    3.91
   5   1 -15  118.60    4.12
  -5   1  15  113.40    3.93
  -5  -1  14   26.79    1.26
   5   1 -14   32.59    1.42
  -5   1  14   29.26    1.29
  -5  -1  13   15.94    0.94
   5   1 -13   17.24    1.00
  -5   1  13   14.25    0.85
  -5  -1  12  238.30    7.95
   5   1 -12  261.40    8.70
  -5   1  12  237.50    7.90
  -5  -1  11  325.10   10.75
   5   1 -11  346.30   11.43
  -5   1  11  334.40   11.02
  -5  -1  10    0.91    0.59
   5   1 -10    0.38    0.55
  -5  -1   9  152.00    5.16
   5   1  -9  150.30    5.10
  -5  -1   8   48.65    1.87
   5   1  -8   49.03    1.88
  -5  -1   7   12.67    0.84
   5   1  -7   16.09    0.94
  -5  -1   6  220.80    7.37
   5   1  -6  215.30    7.18
  -5  -1   5  202.50    6.76
   5   1  -5  211.30    7.03
  -5  -1   4   53.48    1.95
   5   1  -4   55.49    2.02
  -5   1   4   56.13    2.07
   5  -1  -2  205.80    6.80
  -5  -1   2  205.20    6.75
   5   1  -2  206.40    6.78
  -5   1   2  214.60    7.08
   5  -1  -1  115.20    3.89
  -5  -1   1  115.00    3.81
   5   1  -1  117.20    3.88
  -5   1   1  114.70    3.86
   5  -1   0    4.03    0.57
  -5  -1   0    5.53    0.35
  -5   1   0    4.79    0.57
   5  -1   1    4.09    0.56
  -5  -1  -1    3.23    0.22
  -5   1  -1    3.18    0.55
   5  -1   2   69.34    2.45
  -5   1  -2   74.47    2.63
   5  -1   3   84.90    2.98
  -5  -1  -3   82.23    2.75
   5   1   3   82.83    2.77
  -5   1  -3   80.12    2.83
   5  -1   4    3.39    0.61
  -5  -1  -4    4.05    0.31
   5   1   4    3.76    0.30
  -5   1  -4    3.46    0.62
   5  -1   5   39.01    1.55
  -5  -1  -5   39.97    1.39
   5   1   5   38.74    1.37
  -5   1  -5   42.26    1.67
   5  -1   6   20.86    1.03
  -5  -1  -6   22.38    0.87
   5   1   6   20.68    0.82
  -5   1  -6   22.06    1.05
   5  -1   7    5.30    0.58
  -5  -1  -7    5.56    0.44
   5   1   7    5.38    0.44
  -5   1  -7    4.36    0.62
   5  -1   8   63.35    2.30
  -5  -1  -8   65.86    2.28
   5   1   8   60.82    2.13
  -5   1  -8   65.58    2.38
   5  -1   9   49.92    1.91
  -5  -1  -9   49.77    1.80
   5   1   9   49.10    1.79
  -5   1  -9   52.51    1.98
   5  -1  10   78.77    2.81
  -5  -1 -10   81.29    2.81
   5   1  10   80.23    2.79
  -5   1 -10   81.59    2.91
   5  -1  11  211.10    7.07
  -5  -1 -11  212.40    7.04
   5   1  11  219.30    7.28
  -5   1 -11  209.10    7.02
   5  -1  12   13.31    0.87
  -5  -1 -12   12.72    0.75
   5   1  12   11.83    0.71
  -5   1 -12   13.91    0.89
   5  -1  13   43.05    1.73
  -5  -1 -13   48.58    1.83
   5   1  13   45.41    1.73
  -5   1 -13   51.14    1.97
   5  -1  14   74.16    2.70
  -5  -1 -14   79.66    2.83
   5   1  14   72.54    2.61
  -5   1 -14   75.74    2.78
   5  -1  15    3.50    0.61
   5   1  15    3.27    0.59
  -5   1 -15    4.15    0.69
   5  -1  16   66.49    2.49
   5   1  16   62.06    2.31
  -5   1 -16   69.57    2.59
   5  -1  17   63.57    2.41
   5   1  17   63.36    2.37
  -5   1 -17   67.01    2.52
   5  -1  18   27.91    1.35
   5   1  18   28.91    1.32
  -5   1 -18   28.58    1.36
   5  -1  19   14.79    0.96
   5   1  19   16.63    0.97
  -5   1 -19   15.36    0.98
   5  -1  20    3.65    0.80
   5   1  20    1.59    0.66
  -5   1 -20    1.71    0.61
   5  -1  21   46.85    1.94
   5   1  21   50.06    1.98
  -5   1 -21   46.18    1.84
   5  -1  22   15.90    1.08
   5   1  22   15.87    0.99
  -5   1 -22   18.38    1.06
   5  -1  23   17.22    1.08
   5   1  23   16.28    1.02
  -5   1 -23   16.13    1.00
   5  -1  24   37.91    1.62
   5   1  24   36.46    1.59
  -5   1 -24   37.41    1.59
   5  -1  25    6.14    0.81
   5   1  25    4.04    0.78
  -5   1 -25    4.38    0.73
   5  -1  26   22.71    1.20
   5   1  26   23.26    1.25
  -5   1 -26   21.87    1.13
   5  -1  27    8.42    0.85
   5   1  27   10.93    0.93
   5  -1  28    2.03    0.69
   5   1  28    2.19    0.84
   5  -1  29    8.07    0.82
   5   1  29    9.55    0.91
   5  -1  30   19.08    1.14
   5   1  30   19.42    1.21
   5  -1  31    1.62    0.72
   5   1  31    1.90    0.90
  -5  -3  32    3.33    0.78
  -5   3  32    4.82    1.05
  -5  -3  31    0.27    0.73
  -5   3  31    0.98    0.93
  -5  -3  30   29.06    1.43
  -5   3  30   28.99    1.51
  -5  -3  29    0.46    0.76
  -5   3  29    0.82    0.89
  -5  -3  28    8.14    0.86
  -5   3  28    6.21    0.98
  -5  -3  27    0.32    0.73
   5   3 -27    0.46    0.62
  -5   3  27    1.41    0.83
  -5  -3  26   -0.47    0.75
   5   3 -26    1.00    0.66
  -5   3  26    1.37    0.77
  -5  -3  25   17.18    1.07
   5   3 -25   19.96    1.09
  -5   3  25   20.74    1.20
  -5  -3  24   45.88    1.86
   5   3 -24   43.10    1.76
  -5   3  24   46.06    1.93
  -5  -3  23    1.56    0.71
   5   3 -23    1.53    0.63
  -5   3  23    2.77    0.82
  -5  -3  22  199.00    6.77
   5   3 -22  185.50    6.32
  -5   3  22  186.80    6.36
  -5  -3  21    5.72    0.79
   5   3 -21    6.98    0.74
  -5   3  21    6.30    0.89
  -5  -3  20    3.34    0.76
   5   3 -20    3.60    0.65
  -5   3  20    2.87    0.79
  -5  -3  19    0.85    0.69
   5   3 -19    1.26    0.61
  -5   3  19    1.71    0.75
  -5  -3  18   57.33    2.26
  -5  -3  17    3.93    0.78
   5   3 -17    4.03    0.75
  -5   3  17    2.77    0.64
  -5  -3  16    1.63    0.65
   5   3 -16    1.24    0.70
  -5   3  16    0.85    0.59
  -5  -3  15    1.52    0.60
   5   3 -15    1.36    0.64
  -5   3  15    1.92    0.64
  -5  -3  14  159.40    5.44
   5   3 -14  159.20    5.45
  -5   3  14  143.50    4.91
  -5  -3  13    1.41    0.62
   5   3 -13    1.41    0.63
  -5   3  13    0.25    0.58
  -5  -3  12   65.91    2.46
   5   3 -12   67.67    2.53
  -5   3  12   63.08    2.32
  -5  -3  11    0.96    0.61
   5   3 -11    0.41    0.58
  -5   3  11    1.51    0.60
  -5  -3  10  293.10    9.77
   5   3 -10  277.10    9.22
  -5   3  10  284.80    9.44
  -5  -3   9   74.15    2.69
  -5  -3   8  151.70    5.16
   5   3  -8  174.20    5.89
  -5   3   8  171.50    5.76
  -5  -3   7   29.35    1.31
   5   3  -7   28.75    1.29
  -5   3   7   29.95    1.29
   5  -3  -6    0.09    0.57
  -5  -3   6    0.03    0.52
   5   3  -6    0.07    0.51
  -5   3   6    1.17    0.57
   5  -3  -5    0.23    0.51
  -5  -3   5    1.43    0.50
   5   3  -5    0.43    0.50
  -5   3   5   -0.09    0.57
   5  -3  -4    4.72    0.60
  -5  -3   4    5.40    0.58
   5   3  -4    5.29    0.56
  -5   3   4    4.92    0.61
   5  -3  -3    3.43    0.60
  -5  -3   3    3.44    0.50
   5   3  -3    3.59    0.54
  -5   3   3    4.35    0.59
   5  -3  -2   13.37    0.86
  -5  -3   2   14.10    0.76
   5   3  -2   11.92    0.71
  -5   3   2   14.00    0.82
   5  -3  -1    0.11    0.57
  -5  -3   1    1.42    0.46
   5   3  -1    0.37    0.45
  -5   3   1    1.02    0.54
   5  -3   0    8.79    0.80
  -5  -3   0    9.08    0.58
   5   3   0    9.04    0.57
  -5   3   0    9.47    0.77
   5  -3   1  143.30    4.89
  -5  -3  -1  140.80    4.70
   5   3   1  141.70    4.71
  -5   3  -1  141.90    4.84
   5  -3   2  154.50    5.24
  -5  -3  -2  150.20    4.99
   5   3   2  150.30    4.98
  -5   3  -2  148.30    5.04
   5  -3   3   38.98    1.58
  -5  -3  -3   42.04    1.50
   5   3   3   42.83    1.51
  -5   3  -3   41.73    1.66
   5  -3   4  166.70    5.63
  -5  -3  -4  156.70    5.18
   5   3   4  162.40    5.37
  -5   3  -4  159.40    5.42
   5  -3   5   42.32    1.66
   5   3   5   44.47    1.54
  -5   3  -5   45.86    1.80
   5  -3   6    9.59    0.77
   5   3   6    9.92    0.48
  -5   3  -6    9.04    0.82
   5  -3   7    0.13    0.58
   5   3   7    0.30    0.29
  -5   3  -7   -0.19    0.57
   5  -3   8    0.58    0.60
   5   3   8    0.82    0.30
   5   3   8    0.45    0.29
  -5   3  -8    0.50    0.58
   5  -3   9   12.04    0.82
   5   3   9    9.42    0.49
   5   3   9    9.91    0.53
  -5   3  -9   12.26    0.83
   5  -3  10  161.00    5.49
   5   3  10  158.10    5.24
   5   3  10  162.60    5.40
  -5   3 -10  155.50    5.32
   5  -3  11   33.04    1.46
   5   3  11   34.94    1.30
   5   3  11   36.53    1.35
  -5   3 -11   39.13    1.65
   5  -3  12  125.60    4.36
   5   3  12  125.20    4.20
   5   3  12  124.20    4.17
  -5   3 -12  123.70    4.30
   5  -3  13    3.74    0.66
   5   3  13    2.94    0.43
   5   3  13    2.83    0.43
  -5   3 -13    4.56    0.68
   5  -3  14  163.20    5.59
   5   3  14  149.40    5.01
  -5   3 -14  164.60    5.63
   5  -3  15   87.61    3.18
   5   3  15   80.61    2.82
  -5   3 -15   80.90    2.94
   5  -3  16    6.96    0.80
   5   3  16    5.72    0.60
  -5   3 -16    7.24    0.72
   5  -3  17   59.26    2.29
   5   3  17   69.93    2.50
  -5   3 -17   62.74    2.36
   5  -3  18   79.39    2.93
   5   3  18   85.49    3.03
  -5   3 -18   79.68    2.92
   5  -3  19   22.62    1.21
   5   3  19   25.72    1.17
  -5   3 -19   24.37    1.21
   5  -3  20   31.90    1.46
   5   3  20   37.52    1.56
  -5   3 -20   32.77    1.43
   5  -3  21    0.37    0.67
   5   3  21    1.43    0.64
  -5   3 -21    1.88    0.57
   5  -3  22   21.54    1.15
   5   3  22   22.75    1.15
  -5   3 -22   21.05    1.09
   5  -3  23   -0.23    0.62
   5   3  23   -0.54    0.66
  -5   3 -23   -0.79    0.57
   5  -3  24    0.40    0.68
   5   3  24    0.71    0.68
  -5   3 -24    1.32    0.60
   5  -3  25    1.01    0.65
   5   3  25   -0.67    0.74
  -5   3 -25    0.09    0.54
   5  -3  26    0.66    0.70
   5  -3  27   19.94    1.11
   5   3  27   17.38    1.18
  -5   3 -27   19.19    1.05
   5  -3  28    1.69    0.79
   5   3  28    2.02    0.90
  -5   3 -28    1.95    0.63
   5  -3  29    4.73    0.86
   5   3  29    4.31    1.01
  -5   3 -29    4.54    0.74
   5  -3  30   42.00    1.70
   5   3  30   38.85    1.88
  -5   3 -30   40.52    1.66
  -5  -5  29    0.90    0.62
   5   5 -29    0.99    0.62
  -5   5  29    1.71    1.41
  -5   5  29    1.48    1.20
  -5  -5  28   32.16    1.38
   5   5 -28   31.69    1.35
  -5   5  28   32.24    1.76
  -5   5  28   34.40    1.92
  -5  -5  27   -0.07    0.61
   5   5 -27    0.71    0.57
  -5   5  27   -0.23    1.16
  -5   5  27    0.11    0.99
  -5  -5  26    4.81    0.73
   5   5 -26    3.73    0.63
  -5   5  26    5.54    1.14
  -5   5  26    3.81    0.96
  -5  -5  25   41.70    1.70
   5   5 -25   36.43    1.50
  -5   5  25   43.53    2.01
  -5   5  25   38.82    1.76
  -5  -5  24   18.83    1.05
   5   5 -24   19.09    1.03
  -5   5  24   19.41    1.31
  -5   5  24   18.34    1.18
  -5  -5  23    1.60    0.64
   5   5 -23    1.80    0.65
  -5   5  23    0.30    0.81
  -5   5  23    0.54    0.93
  -5  -5  22   13.06    0.92
   5   5 -22   13.09    0.92
  -5   5  22   12.48    1.02
  -5   5  22   12.74    1.06
  -5  -5  21   48.14    1.92
   5   5 -21   49.61    1.96
  -5   5  21   52.98    2.14
  -5   5  21   51.80    2.11
  -5  -5  20   10.88    0.84
   5   5 -20   11.27    0.83
  -5   5  20   10.56    0.99
  -5   5  20   10.10    0.99
  -5  -5  19   28.13    1.38
   5   5 -19   26.70    1.30
  -5   5  19   28.27    1.37
  -5   5  19   29.68    1.45
  -5  -5  18   50.26    2.06
   5   5 -18   46.80    1.89
  -5   5  18   46.73    1.93
  -5  -5  17   11.14    0.93
   5   5 -17   10.62    0.81
  -5   5  17   11.34    0.99
  -5  -5  16   20.16    1.10
   5   5 -16   21.31    1.13
  -5   5  16   23.22    1.22
  -5  -5  15   21.44    1.15
   5   5 -15   22.60    1.15
  -5   5  15   23.90    1.24
  -5  -5  14    1.13    0.63
   5   5 -14    0.70    0.56
  -5   5  14    1.07    0.72
  -5  -5  13   68.40    2.58
   5   5 -13   70.42    2.62
  -5   5  13   71.32    2.62
  -5  -5  12    0.02    0.74
   5   5 -12    1.59    0.67
  -5   5  12    1.39    0.70
  -5  -5  11    8.34    0.82
   5   5 -11    8.69    0.85
  -5   5  11    7.10    0.71
  -5  -5  10   75.13    2.79
   5   5 -10   67.94    2.53
  -5   5  10   74.05    2.68
  -5  -5   9   20.62    1.14
   5   5  -9   19.83    1.10
  -5   5   9   18.99    1.01
   5  -5  -8   50.97    2.01
  -5  -5   8   57.87    2.19
   5   5  -8   55.39    2.15
  -5   5   8   57.83    2.18
   5  -5  -7   56.88    2.21
  -5  -5   7   57.27    2.15
   5   5  -7   57.94    2.21
  -5   5   7   54.38    2.07
   5  -5  -6    0.71    0.64
  -5  -5   6   -0.14    0.56
   5   5  -6    0.50    0.59
  -5   5   6   -0.29    0.57
   5  -5  -5    7.52    0.78
  -5  -5   5    9.42    0.76
   5   5  -5    9.09    0.76
  -5   5   5    7.95    0.73
   5  -5  -4   64.99    2.40
  -5  -5   4   66.20    2.45
   5   5  -4   68.10    2.50
  -5   5   4   66.59    2.44
   5  -5  -3    1.23    0.61
  -5  -5   3    0.66    0.58
   5   5  -3    0.35    0.55
  -5   5   3    0.74    0.60
   5  -5  -2   98.01    3.45
  -5  -5   2   94.64    3.34
   5   5  -2   94.00    3.30
  -5   5   2   97.57    3.44
   5  -5  -1   12.29    0.84
  -5  -5   1   10.63    0.77
   5   5  -1   12.08    0.78
  -5   5   1   11.73    0.86
   5  -5   0   11.45    0.87
  -5  -5   0   10.25    0.74
   5   5   0   11.92    0.76
  -5   5   0   11.52    0.81
   5  -5   1   88.74    3.19
  -5  -5  -1   92.94    3.26
   5   5   1   93.84    3.27
  -5   5  -1   92.66    3.30
   5  -5   2   27.27    1.28
  -5  -5  -2   29.40    1.24
   5   5   2   29.75    1.23
  -5   5  -2   29.10    1.35
   5  -5   3    9.93    0.83
  -5  -5  -3   10.25    0.67
   5   5   3   10.24    0.65
  -5   5  -3   11.26    0.82
   5  -5   4   65.95    2.50
  -5  -5  -4   64.05    2.26
   5   5   4   69.63    2.45
  -5   5  -4   63.73    2.42
   5  -5   5   63.57    2.41
  -5  -5  -5   62.59    2.20
   5   5   5   67.28    2.36
  -5   5  -5   63.04    2.38
   5  -5   6   35.43    1.53
  -5  -5  -6   35.51    1.33
   5   5   6   36.02    1.36
  -5   5  -6   33.00    1.50
   5  -5   7    1.89    0.66
   5   5   7    2.55    0.40
  -5   5  -7    2.95    0.68
   5  -5   8   24.34    1.23
   5   5   8   23.84    0.97
  -5   5  -8   24.60    1.23
   5  -5   9   -1.15    0.73
   5  -5  10   78.66    2.93
   5   5  10   72.81    2.51
  -5   5 -10   70.74    2.64
   5  -5  11   38.64    1.64
   5   5  11   40.89    1.49
  -5   5 -11   38.97    1.67
   5  -5  12   39.92    1.66
   5   5  12   40.33    1.47
   5   5  12   42.03    1.54
  -5   5 -12   40.82    1.73
   5  -5  13   14.97    0.88
   5   5  13   14.98    0.72
   5   5  13   14.66    0.72
  -5   5 -13   14.72    0.95
   5  -5  14    4.60    0.69
   5   5  14    3.96    0.46
   5   5  14    3.56    0.46
  -5   5 -14    4.55    0.69
   5  -5  15   10.39    0.84
   5   5  15    9.84    0.63
   5   5  15    9.39    0.59
  -5   5 -15   12.07    0.89
   5  -5  16   12.11    0.90
   5   5  16   11.13    0.65
   5   5  16   11.20    0.66
  -5   5 -16   11.44    0.84
   5  -5  17   32.28    1.47
   5   5  17   30.97    1.23
   5   5  17   31.14    1.23
  -5   5 -17   31.92    1.42
   5  -5  18    5.95    0.67
   5   5  18    5.13    0.55
   5   5  18    4.74    0.54
  -5   5 -18    7.04    0.70
   5  -5  19    7.03    0.77
   5   5  19    6.51    0.62
  -5   5 -19    8.02    0.72
   5  -5  20   14.72    0.96
   5   5  20   13.35    0.81
   5   5  20   12.70    0.80
  -5   5 -20   15.27    0.92
   5  -5  21    0.01    0.58
   5   5  21   -0.24    0.63
   5   5  21   -0.62    0.58
  -5   5 -21    0.45    0.52
   5  -5  22    1.36    0.69
   5   5  22    1.48    0.62
   5   5  22    0.83    0.70
  -5   5 -22    1.21    0.51
   5  -5  23    1.02    0.56
   5   5  23   -0.95    0.77
   5   5  23   -1.17    0.67
  -5   5 -23   -0.62    0.54
   5  -5  24   26.11    1.22
   5   5  24   22.93    1.37
   5   5  24   24.64    1.23
  -5   5 -24   25.92    1.20
   5  -5  25    3.57    0.63
   5   5  25    3.26    1.08
   5   5  25    2.95    0.85
  -5   5 -25    3.05    0.64
   5  -5  26    6.12    0.68
   5   5  26    5.18    0.99
   5   5  26    5.04    1.32
   5  -5  27   17.05    0.88
   5   5  27   13.19    1.59
   5   5  27   15.05    1.24
  -5   5 -27   16.08    0.90
  -5  -7  25   10.21    0.68
   5   7 -25   10.82    0.74
  -5   7  25    9.79    1.36
  -5   7  25    8.70    1.58
  -5  -7  24    5.63    0.66
   5   7 -24    5.19    0.63
  -5   7  24    6.06    1.13
  -5   7  24    4.86    1.37
  -5  -7  23    1.97    0.58
   5   7 -23    2.91    0.57
  -5   7  23    3.72    1.11
  -5   7  23    1.14    1.12
  -5  -7  22    0.66    0.58
   5   7 -22    1.92    0.56
  -5   7  22    0.13    1.09
  -5   7  22    0.73    1.03
  -5  -7  21    4.13    0.62
   5   7 -21    5.61    0.72
  -5   7  21    3.99    1.07
  -5   7  21    4.99    1.10
  -5  -7  20    8.88    0.78
   5   7 -20    9.80    0.76
  -5   7  20    7.74    1.11
  -5   7  20    9.29    1.10
  -5  -7  19   17.52    1.00
   5   7 -19   17.45    0.96
  -5   7  19   18.46    1.23
  -5  -7  18    3.48    0.70
   5   7 -18    4.48    0.65
  -5   7  18    3.46    0.87
  -5  -7  17   18.58    1.05
   5   7 -17   17.78    0.98
  -5   7  17   16.51    1.09
  -5  -7  16    3.39    0.68
   5   7 -16    2.73    0.65
  -5   7  16    1.42    0.78
  -5  -7  15   68.62    2.50
   5   7 -15   68.31    2.54
  -5   7  15   71.73    2.66
  -5  -7  14    0.99    0.65
   5   7 -14    1.03    0.61
  -5   7  14    0.63    0.70
  -5  -7  13    3.30    0.69
   5   7 -13    3.29    0.66
  -5   7  13    3.89    0.75
  -5  -7  12    2.47    0.68
   5   7 -12    2.48    0.63
  -5   7  12    1.13    0.70
  -5  -7  11   15.39    1.02
   5   7 -11   16.30    1.00
  -5   7  11   17.84    1.07
  -5  -7  10   11.24    0.87
   5   7 -10   10.93    0.85
  -5   7  10   10.77    0.91
  -5  -7   9    0.58    0.55
   5   7  -9    0.11    0.62
  -5   7   9    1.01    0.65
   5  -7  -8    0.75    0.68
  -5  -7   8   -0.11    0.57
   5   7  -8   -0.07    0.55
  -5   7   8    0.45    0.67
   5  -7  -7   23.14    1.21
  -5  -7   7   20.77    1.08
   5   7  -7   24.14    1.21
  -5   7   7   22.12    1.16
   5  -7  -6    8.64    0.86
  -5  -7   6   10.14    0.79
   5   7  -6    9.28    0.80
  -5   7   6   10.97    0.88
   5  -7  -5   59.41    2.35
  -5  -7   5   57.50    2.20
   5   7  -5   60.68    2.30
  -5   7   5   58.45    2.25
   5  -7  -4   24.93    1.30
  -5  -7   4   26.30    1.28
   5   7  -4   26.16    1.24
  -5   7   4   25.05    1.22
   5  -7  -3  137.30    4.74
  -5  -7   3  137.40    4.76
   5   7  -3  133.10    4.60
  -5   7   3  136.20    4.72
   5  -7  -2    0.14    0.56
  -5  -7   2    0.02    0.61
   5   7  -2    0.85    0.57
  -5   7   2    0.92    0.69
   5  -7  -1   60.83    2.28
  -5  -7   1   59.36    2.22
   5   7  -1   60.48    2.28
  -5   7   1   57.73    2.24
   5  -7   0   10.50    0.83
  -5  -7   0   11.55    0.77
   5   7   0   11.11    0.80
  -5   7   0   10.23    0.89
   5  -7   1    0.98    0.66
  -5  -7  -1    0.50    0.51
   5   7   1    0.91    0.54
  -5   7  -1    1.08    0.66
   5  -7   2    1.92    0.66
  -5  -7  -2    2.05    0.55
   5   7   2    3.45    0.61
  -5   7  -2    2.51    0.65
   5  -7   3    9.58    0.85
  -5  -7  -3    8.22    0.71
   5   7   3    9.53    0.72
  -5   7  -3    8.88    0.81
   5  -7   4   25.91    1.32
  -5  -7  -4   26.86    1.24
   5   7   4   25.00    1.14
  -5   7  -4   26.89    1.33
   5  -7   5   -0.55    0.57
  -5  -7  -5    0.78    0.62
   5   7   5    0.84    0.54
  -5   7  -5   -0.05    0.71
   5  -7   6    0.20    0.55
  -5  -7  -6   -0.53    0.53
   5   7   6   -0.17    0.48
  -5   7  -6    0.92    0.72
   5  -7   7   -0.76    0.59
   5   7   7    0.93    0.50
  -5   7  -7    0.26    0.62
   5  -7   8    0.15    0.56
   5   7   8   -0.18    0.53
  -5   7  -8   -1.19    0.72
   5  -7   9   87.11    3.15
   5   7   9   82.00    2.88
  -5   7  -9   78.88    2.93
   5  -7  10   20.39    1.16
   5   7  10   24.13    1.07
  -5   7 -10   23.80    1.22
   5  -7  11  155.20    5.36
   5   7  11  161.30    5.41
  -5   7 -11  155.60    5.36
   5  -7  12    3.68    0.61
   5   7  12    3.14    0.54
  -5   7 -12    3.91    0.71
   5  -7  13    7.03    0.74
   5   7  13    5.28    0.54
   5   7  13    6.80    0.58
  -5   7 -13    7.86    0.76
   5  -7  14   -0.52    0.60
   5   7  14    0.61    0.44
   5   7  14    0.33    0.49
  -5   7 -14    0.89    0.67
   5  -7  15    0.10    0.57
  -5   7 -15    0.73    0.57
   5  -7  16    0.46    0.56
  -5   7 -16    0.75    0.57
   5  -7  17    1.55    0.59
  -5   7 -17    2.24    0.64
   5  -7  18    0.19    0.52
  -5   7 -18    0.65    0.57
   5  -7  19   14.96    0.86
  -5   7 -19   15.20    0.87
   5  -7  20    0.53    0.50
  -5   7 -20    1.85    0.55
   5  -7  21   17.61    0.90
  -5   7 -21   15.69    0.86
   5  -7  22   14.14    0.78
  -5   7 -22   14.74    0.81
   5  -7  23   22.44    0.97
  -5   7 -23   23.92    1.08
  -5  -9  17    4.89    0.67
   5   9 -17    5.21    0.74
  -5   9  17    3.79    1.34
  -5  -9  16   10.00    0.77
   5   9 -16   10.27    0.82
  -5   9  16   10.20    1.44
  -5  -9  15    3.67    0.71
   5   9 -15    4.52    0.72
  -5   9  15    2.97    1.18
  -5  -9  14   15.09    0.97
   5   9 -14   17.15    1.01
  -5   9  14   15.85    1.32
  -5  -9  13    1.53    0.67
   5   9 -13    0.30    0.66
  -5   9  13    0.50    0.95
  -5  -9  12    2.26    0.73
  -5  -9  11   15.01    0.98
   5   9 -11   13.96    0.93
  -5   9  11   12.21    1.15
  -5  -9  10    8.48    0.78
   5   9 -10    6.75    0.75
  -5   9  10    7.22    1.06
  -5  -9   9   17.21    1.04
   5   9  -9   18.44    1.06
  -5   9   9   18.08    1.22
  -5  -9   8    1.25    0.62
   5   9  -8    1.28    0.63
  -5   9   8    0.49    0.77
   5  -9  -7   10.17    0.97
  -5  -9   7    9.44    0.84
   5   9  -7   10.19    0.82
  -5   9   7   10.41    0.95
   5  -9  -6    0.81    0.72
  -5  -9   6    0.51    0.68
   5   9  -6    0.63    0.66
  -5   9   6    0.95    0.79
   5  -9  -5    0.25    0.75
  -5  -9   5   -0.41    0.65
   5   9  -5    0.76    0.69
  -5   9   5    0.83    0.78
   5  -9  -4    2.58    0.77
  -5  -9   4    2.75    0.73
   5   9  -4    2.06    0.74
  -5   9   4    2.84    0.78
   5  -9  -3    4.38    0.83
  -5  -9   3    2.77    0.73
   5   9  -3    2.94    0.71
  -5   9   3    2.82    0.79
   5  -9  -2    7.95    0.91
  -5  -9   2    5.88    0.78
   5   9  -2    5.32    0.72
  -5   9   2    5.64    0.83
   5  -9  -1    0.10    0.75
  -5  -9   1    1.45    0.69
   5   9  -1   -0.09    0.69
  -5   9   1   -0.52    0.74
   5  -9   0    5.45    0.86
  -5  -9   0    6.35    0.82
   5   9   0    5.56    0.76
  -5   9   0    6.33    0.82
   5  -9   1    2.91    0.76
  -5  -9  -1    1.68    0.75
   5   9   1    1.76    0.73
  -5   9  -1    1.61    0.68
   5  -9   2    0.40    0.67
  -5  -9  -2   -0.45    0.76
   5   9   2    0.59    0.73
  -5   9  -2    0.46    0.79
   5  -9   3   22.89    1.22
  -5  -9  -3   22.51    1.25
   5   9   3   22.30    1.22
  -5   9  -3   21.48    1.25
   5  -9   4    2.01    0.69
  -5  -9  -4    0.76    0.80
   5   9   4    1.70    0.74
  -5   9  -4    3.45    0.84
   5  -9   5   28.42    1.36
  -5  -9  -5   29.99    1.40
   5   9   5   33.41    1.52
  -5   9  -5   31.62    1.44
   5  -9   6   12.91    0.95
   5   9   6   15.79    1.07
  -5   9  -6   13.89    1.00
   5  -9   7    0.55    0.72
   5   9   7   -0.11    0.94
  -5   9  -7   -0.62    0.73
   5  -9   8    1.96    0.65
   5   9   8    0.59    1.01
  -5   9  -8    2.62    0.71
   5  -9   9    1.21    0.67
   5   9   9    0.68    0.95
  -5   9  -9    0.81    0.73
   5  -9  10   14.00    0.93
   5   9  10   15.25    1.18
  -5   9 -10   14.31    1.01
   5  -9  11    0.14    0.62
   5   9  11    0.52    0.88
  -5   9 -11   -0.09    0.64
   5  -9  12    4.21    0.68
   5   9  12    4.84    0.84
  -5   9 -12    4.95    0.74
   5  -9  13    0.47    0.59
  -5   9 -13   -0.19    0.65
   5  -9  14    3.83    0.64
  -5   9 -14    3.12    0.62
   5  -9  15   15.54    0.86
  -5   9 -15   17.47    0.96
  -6   0  33    0.56    0.93
  -6   0  32   74.56    2.87
  -6   0  31    0.55    0.79
  -6   0  30    3.10    0.86
  -6   0  29    0.14    0.72
  -6   0  28    2.42    0.85
  -6   0  27   -0.49    0.73
  -6   0  26    2.12    0.81
  -6   0  25   -0.78    0.79
  -6   0  24   50.20    2.08
  -6   0  23    0.04    0.79
  -6   0  22  320.30   10.67
  -6   0  21   -0.06    0.76
  -6   0  20  348.70   11.57
  -6   0  19    0.60    0.62
  -6   0  18  218.40    7.34
  -6   0  17    0.21    0.58
  -6   0  16  109.70    3.84
  -6   0  15   -0.08    0.58
  -6   0  14  137.30    4.70
  -6   0  13    0.37    0.60
  -6   0  12    7.87    0.73
  -6   0  11    0.02    0.58
  -6   0  10  587.20   19.20
  -6   0   9   -0.50    0.57
  -6   0   8   29.68    1.30
  -6   0   7    0.76    0.62
   6   0  -1    0.09    0.44
  -6   0   1    0.06    0.41
   6   0   0    7.02    0.53
  -6   0   0    6.34    0.49
   6   0   1   -0.68    0.42
  -6   0  -1   -0.51    0.37
   6   0   2   20.62    0.87
  -6   0  -2   21.39    0.90
   6   0   3   -0.02    0.46
  -6   0  -3    0.16    0.45
  -6   0  -4  686.70   22.36
   6   0   5    0.01    0.46
  -6   0  -5    0.15    0.47
   6   0   6   43.59    1.62
  -6   0  -6   46.39    1.72
   6   0   7    0.16    0.47
  -6   0  -7    0.34    0.45
   6   0   8  186.20    6.21
  -6   0  -8  194.70    6.48
   6   0   9   -0.01    0.48
  -6   0  -9   -0.69    0.50
   6   0  10  197.00    6.57
  -6   0 -10  205.40    6.87
   6   0  11   -0.05    0.51
  -6   0 -11    0.27    0.51
   6   0  12  291.10    9.64
  -6   0 -12  284.90    9.43
   6   0  13    0.05    0.46
  -6   0 -13   -0.41    0.54
   6   0  14    6.59    0.67
  -6   0 -14    6.21    0.67
   6   0  15   -0.02    0.47
  -6   0 -15    0.24    0.58
   6   0  16   21.29    1.08
  -6   0 -16   21.81    1.10
   6   0  17    0.11    0.63
  -6   0 -17   -0.10    0.59
   6   0  18   65.51    2.45
  -6   0 -18   59.33    2.23
   6   0  19    1.43    0.69
  -6   0 -19   -0.43    0.54
   6   0  20    6.69    0.85
  -6   0 -20    5.38    0.70
   6   0  21    0.36    0.66
  -6   0 -21    0.56    0.62
   6   0  22  131.90    4.60
  -6   0 -22  130.30    4.53
   6   0  23    0.37    0.67
  -6   0 -23    0.15    0.55
   6   0  24    4.16    0.77
   6   0  25   -0.11    0.61
   6   0  26    0.69    0.71
   6   0  27   -0.54    0.72
   6   0  28    8.09    0.89
   6   0  29    0.47    0.76
   6   0  30    1.60    0.82
   6   0  31   -0.26    0.73
  -6  -2  33    8.26    0.90
  -6   2  33    6.71    1.07
  -6  -2  32    0.30    0.72
  -6   2  32   -0.32    0.85
  -6  -2  31    4.24    0.82
  -6   2  31    1.91    0.89
  -6  -2  30    0.12    0.81
  -6   2  30    1.45    0.90
  -6  -2  29    1.29    0.78
  -6   2  29   -0.08    0.87
  -6  -2  28   12.51    0.99
  -6   2  28   12.08    1.06
  -6  -2  27    9.56    0.93
  -6   2  27    7.12    0.90
  -6  -2  26   19.61    1.14
  -6   2  26   20.80    1.24
  -6  -2  25    1.59    0.78
  -6   2  25    1.86    0.80
  -6  -2  24   31.48    1.52
  -6   2  24   35.92    1.63
  -6  -2  23   -0.55    0.68
   6   2 -23   -0.26    0.59
  -6   2  23   -0.24    0.79
  -6  -2  22   99.66    3.59
   6   2 -22   93.29    3.37
  -6   2  22   91.76    3.35
  -6  -2  21   15.73    1.08
   6   2 -21   17.43    1.03
  -6   2  21   17.03    1.15
  -6  -2  20   43.62    1.89
   6   2 -20   41.57    1.72
  -6   2  20   47.52    1.97
  -6  -2  19   83.01    3.06
   6   2 -19   86.19    3.14
  -6   2  19   87.25    3.17
  -6  -2  18    3.73    0.75
   6   2 -18    3.76    0.70
  -6   2  18    3.68    0.66
  -6  -2  17   17.05    1.00
   6   2 -17   19.13    1.05
  -6   2  17   17.07    0.95
  -6  -2  16  207.40    7.01
   6   2 -16  202.40    6.82
  -6   2  16  192.50    6.49
  -6  -2  15    2.66    0.71
   6   2 -15    3.67    0.68
  -6   2  15    2.97    0.64
  -6  -2  14    5.91    0.69
  -6  -2  13  117.70    4.11
   6   2 -13  113.60    3.96
  -6  -2  12  160.10    5.46
   6   2 -12  176.10    5.96
  -6  -2  11   24.72    1.20
   6   2 -11   27.65    1.27
  -6  -2  10   88.62    3.12
   6   2 -10   80.06    2.88
  -6  -2   9   95.98    3.36
   6   2  -9   95.74    3.36
  -6   2   9   96.01    3.35
  -6  -2   8   48.75    1.87
   6   2  -8   47.85    1.85
  -6   2   8   47.78    1.84
  -6  -2   7   13.52    0.82
   6   2  -7   13.33    0.83
  -6   2   7   11.22    0.79
  -6  -2   6   64.01    2.33
   6   2  -6   68.41    2.47
  -6   2   6   66.80    2.42
   6  -2  -5   24.94    1.17
  -6  -2   5   24.90    1.16
   6   2  -5   25.81    1.14
  -6   2   5   24.25    1.13
   6  -2  -4  435.70   14.30
  -6  -2   4  426.50   13.99
   6   2  -4  434.60   14.23
  -6   2   4  434.90   14.26
   6  -2  -3   35.93    1.50
  -6  -2   3   36.11    1.43
   6   2  -3   35.10    1.39
  -6   2   3   34.69    1.43
   6  -2  -2  171.40    5.78
  -6  -2   2  175.20    5.82
   6   2  -2  169.70    5.65
  -6   2   2  167.10    5.63
   6  -2  -1  372.10   12.25
  -6  -2   1  363.40   11.89
   6   2  -1  370.60   12.12
  -6   2   1  370.40   12.18
   6  -2   0  124.50    4.28
  -6  -2   0  118.00    3.93
   6   2   0  121.30    4.04
  -6   2   0  116.10    4.00
   6  -2   1   21.95    1.09
  -6  -2  -1   19.93    0.77
   6   2   1   20.02    0.77
  -6   2  -1   19.34    1.00
   6  -2   2  301.30    9.95
  -6  -2  -2  280.90    9.28
   6   2   2  277.80    9.17
  -6   2  -2  276.60    9.17
   6  -2   3   11.15    0.77
  -6   2  -3   12.34    0.81
   6  -2   4  112.00    3.86
  -6   2  -4  109.40    3.79
   6  -2   5   15.24    0.88
  -6   2  -5   16.93    0.97
   6  -2   6   46.86    1.83
   6   2   6   43.82    1.50
   6   2   6   41.72    1.43
  -6   2  -6   47.24    1.86
   6  -2   7  169.30    5.73
   6   2   7  169.00    5.58
  -6   2  -7  171.40    5.81
   6  -2   8    3.55    0.64
   6   2   8    2.35    0.32
  -6   2  -8    3.42    0.65
   6  -2   9  309.70   10.26
   6   2   9  313.70   10.28
  -6   2  -9  278.80    9.27
   6  -2  10    1.43    0.63
   6   2  10    0.11    0.35
  -6   2 -10    0.69    0.64
   6  -2  11    4.03    0.66
   6   2  11    3.49    0.45
  -6   2 -11    4.57    0.70
   6  -2  12   75.74    2.76
   6   2  12   72.39    2.54
  -6   2 -12   74.12    2.71
   6  -2  13   58.29    2.21
   6   2  13   65.24    2.32
  -6   2 -13   64.05    2.38
   6  -2  14    1.61    0.64
   6   2  14    1.04    0.48
  -6   2 -14    0.61    0.61
   6  -2  15   10.32    0.81
   6   2  15    8.95    0.66
  -6   2 -15   11.40    0.90
   6  -2  16   25.93    1.25
   6  -2  17    5.15    0.71
   6   2  17    5.03    0.65
  -6   2 -17    6.90    0.77
   6  -2  18    3.85    0.70
   6   2  18    2.38    0.61
  -6   2 -18    2.08    0.59
   6  -2  19   68.44    2.58
   6   2  19   64.05    2.38
  -6   2 -19   68.58    2.57
   6  -2  20    6.85    0.86
   6   2  20    5.70    0.69
  -6   2 -20    5.77    0.69
   6  -2  21   87.30    3.20
   6   2  21   92.73    3.29
  -6   2 -21   85.43    3.09
   6  -2  22   28.63    1.36
   6   2  22   27.81    1.31
  -6   2 -22   25.04    1.21
   6  -2  23   -0.03    0.71
   6   2  23    0.73    0.69
  -6   2 -23    0.03    0.64
   6  -2  24    1.85    0.66
   6   2  24    0.07    0.70
  -6   2 -24    0.77    0.63
   6  -2  25    0.59    0.69
   6   2  25    0.05    0.69
  -6   2 -25    0.44    0.56
   6  -2  26   19.91    1.09
   6   2  26   20.89    1.18
  -6   2 -26   18.30    1.03
   6  -2  27   10.07    0.90
   6   2  27    7.29    0.90
  -6   2 -27    8.91    0.82
   6  -2  28   38.67    1.67
   6   2  28   39.86    1.72
  -6   2 -28   35.93    1.54
   6  -2  29    1.92    0.72
   6   2  29    1.36    0.82
  -6   2 -29    0.40    0.64
   6  -2  30    1.85    0.76
   6   2  30    0.77    0.96
  -6   2 -30    1.52    0.60
  -6  -4  31    2.81    0.73
  -6   4  31    2.36    1.41
  -6   4  31    3.12    1.08
  -6  -4  30    1.29    0.64
  -6   4  30    1.80    1.15
  -6   4  30   -0.44    0.99
  -6  -4  29    2.23    0.67
   6   4 -29    0.92    0.60
  -6   4  29    2.32    0.93
  -6   4  29   -0.28    1.20
  -6  -4  28    6.62    0.84
   6   4 -28    6.42    0.70
  -6   4  28    5.82    1.18
  -6   4  28    5.26    0.94
  -6  -4  27   51.51    2.07
   6   4 -27   49.14    1.93
  -6   4  27   50.04    2.16
  -6   4  27   49.40    2.05
  -6  -4  26    1.04    0.67
   6   4 -26    0.77    0.64
  -6   4  26    0.05    0.82
  -6   4  26    0.66    0.98
  -6  -4  25   57.31    2.25
   6   4 -25   55.72    2.13
  -6   4  25   57.45    2.28
  -6   4  25   57.04    2.29
  -6  -4  24    0.21    0.70
   6   4 -24    0.29    0.59
  -6   4  24    0.89    0.83
  -6   4  24    0.81    0.76
  -6  -4  23    3.71    0.77
   6   4 -23    4.33    0.70
  -6   4  23    4.16    0.85
  -6   4  23    6.05    0.89
  -6  -4  22    1.83    0.73
   6   4 -22    1.34    0.66
  -6   4  22    1.12    0.86
  -6   4  22    0.83    0.75
  -6  -4  21    8.19    0.93
   6   4 -21    8.10    0.80
  -6   4  21    7.58    0.93
  -6   4  21    7.85    0.96
  -6  -4  20    1.83    0.74
   6   4 -20    2.16    0.64
  -6   4  20    0.87    0.82
  -6   4  20    1.86    0.83
  -6  -4  19    6.39    0.77
   6   4 -19    6.86    0.76
  -6   4  19    5.36    0.88
  -6   4  19    5.45    0.81
  -6  -4  18   11.62    0.88
   6   4 -18   12.39    0.88
  -6   4  18   10.70    0.99
  -6   4  18   13.69    1.01
  -6  -4  17   83.15    3.07
   6   4 -17   82.19    3.00
  -6   4  17   79.43    2.92
  -6  -4  16   18.99    1.14
   6   4 -16   15.37    0.94
  -6   4  16   15.58    0.99
  -6  -4  15  147.80    5.14
   6   4 -15  135.50    4.71
  -6   4  15  136.10    4.69
  -6  -4  14    0.91    0.63
   6   4 -14    1.40    0.64
  -6   4  14    0.42    0.60
  -6  -4  13  200.00    6.74
   6   4 -13  191.10    6.49
  -6   4  13  191.10    6.44
  -6  -4  12   20.43    1.11
   6   4 -12   20.75    1.13
  -6   4  12   18.73    1.02
  -6  -4  11   45.33    1.81
   6   4 -11   46.09    1.88
  -6   4  11   44.63    1.78
  -6  -4  10   26.63    1.26
   6   4 -10   25.71    1.26
  -6   4  10   25.11    1.18
  -6  -4   9    1.17    0.66
   6   4  -9    1.65    0.64
  -6   4   9    1.66    0.59
  -6  -4   8    8.08    0.76
   6   4  -8    6.79    0.71
  -6   4   8    8.61    0.74
   6  -4  -7    4.12    0.62
  -6  -4   7    3.00    0.68
   6   4  -7    4.32    0.69
  -6   4   7    2.04    0.64
   6  -4  -6    2.25    0.61
  -6  -4   6    3.48    0.65
   6   4  -6    2.38    0.57
  -6   4   6    3.33    0.59
   6  -4  -5  147.50    5.03
  -6  -4   5  142.10    4.85
   6   4  -5  137.50    4.71
  -6   4   5  143.20    4.89
   6  -4  -4  119.50    4.13
  -6  -4   4  123.20    4.24
   6   4  -4  116.90    4.03
  -6   4   4  121.70    4.20
   6  -4  -3   10.36    0.82
  -6  -4   3    9.93    0.73
   6   4  -3   11.07    0.73
  -6   4   3   10.16    0.74
   6  -4  -2    4.21    0.68
  -6  -4   2    3.47    0.55
   6   4  -2    3.81    0.54
  -6   4   2    4.65    0.67
   6  -4  -1  247.50    8.22
  -6  -4   1  248.80    8.23
   6   4  -1  258.20    8.55
  -6   4   1  260.10    8.66
   6  -4   0  384.20   12.64
  -6  -4   0  392.10   12.84
   6   4   0  404.80   13.28
  -6   4   0  367.70   12.14
   6  -4   1  334.10   11.04
  -6  -4  -1  336.40   11.03
   6   4   1  325.90   10.70
  -6   4  -1  332.90   11.02
   6  -4   2   42.12    1.73
  -6  -4  -2   39.20    1.45
   6   4   2   41.83    1.53
  -6   4  -2   40.36    1.67
   6  -4   3   50.21    2.00
  -6  -4  -3   45.79    1.65
   6   4   3   47.84    1.71
  -6   4  -3   50.49    1.98
   6   4   4    0.13    0.36
  -6   4  -4    0.71    0.60
   6  -4   5  370.50   12.26
  -6  -4  -5  344.70   11.30
   6   4   5  363.80   11.92
  -6   4  -5  349.50   11.58
   6  -4   6   61.26    2.32
   6   4   6   61.63    2.11
  -6   4  -6   56.33    2.17
   6  -4   7   18.25    1.06
   6   4   7   18.25    0.73
  -6   4  -7   18.23    1.06
   6  -4   8    2.14    0.62
   6   4   8    2.37    0.32
  -6   4  -8    2.68    0.65
   6  -4   9    1.59    0.68
   6   4   9    1.08    0.30
   6   4   9    1.03    0.29
  -6   4  -9    1.29    0.62
   6  -4  10   24.55    1.20
   6   4  10   24.44    0.94
  -6   4 -10   27.83    1.32
   6  -4  11    5.29    0.72
   6   4  11    4.66    0.39
   6   4  11    5.56    0.41
  -6   4 -11    5.91    0.81
   6  -4  12   79.60    2.94
   6   4  12   70.57    2.42
   6   4  12   76.58    2.61
  -6   4 -12   76.58    2.85
   6  -4  13   94.28    3.40
   6   4  13   84.62    2.89
   6   4  13   87.17    2.97
  -6   4 -13   91.32    3.30
   6  -4  14    6.71    0.72
   6   4  14    6.64    0.50
   6   4  14    7.10    0.51
  -6   4 -14    7.08    0.73
   6  -4  15   88.85    3.19
   6   4  15   94.24    3.23
   6   4  15   94.59    3.23
  -6   4 -15   90.06    3.24
   6  -4  16   23.95    1.22
   6   4  16   22.39    0.96
   6   4  16   25.79    1.07
  -6   4 -16   26.13    1.23
   6  -4  17   24.53    1.25
   6   4  17   23.16    1.02
   6   4  17   25.18    1.06
  -6   4 -17   25.52    1.22
   6  -4  18   -0.27    0.59
   6   4  18   -0.17    0.50
   6   4  18    0.12    0.49
  -6   4 -18    0.18    0.56
   6  -4  19    0.59    0.56
   6   4  19    0.50    0.51
   6   4  19    0.39    0.56
  -6   4 -19   -0.33    0.54
   6  -4  20    1.05    0.59
   6   4  20    1.16    0.55
   6   4  20    0.02    0.55
  -6   4 -20    0.67    0.57
   6  -4  21    2.55    0.64
   6   4  21    1.49    0.62
   6   4  21    2.04    0.62
  -6   4 -21    2.53    0.57
   6  -4  22    3.38    0.61
   6   4  22    3.25    0.66
   6   4  22    2.29    0.70
  -6   4 -22    3.84    0.62
   6  -4  23   -0.24    0.64
   6   4  23    0.67    0.73
   6   4  23   -0.96    0.66
  -6   4 -23   -0.20    0.58
   6  -4  24    0.50    0.64
   6   4  24    1.06    0.66
   6   4  24    0.76    0.87
  -6   4 -24    0.24    0.54
   6  -4  25   60.13    2.28
   6   4  25   59.31    2.42
   6   4  25   62.89    2.38
  -6   4 -25   63.32    2.33
   6  -4  26   -0.28    0.65
   6   4  26    0.21    1.15
   6   4  26    1.30    0.87
  -6   4 -26    0.36    0.58
   6  -4  27    5.95    0.71
   6   4  27    4.47    1.00
   6   4  27    5.63    1.26
  -6   4 -27    5.47    0.63
   6  -4  28   -0.06    0.62
   6   4  28   -0.31    1.05
   6   4  28    0.06    1.43
  -6   4 -28   -0.62    0.54
   6  -4  29    3.64    0.61
   6   4  29    2.11    1.45
   6   4  29    2.11    1.25
  -6   4 -29    2.72    0.63
  -6  -6  27   -0.51    0.60
   6   6 -27    0.89    0.58
  -6   6  27    0.42    1.47
  -6   6  27    0.73    1.16
  -6  -6  26    2.56    0.73
   6   6 -26    3.56    0.56
  -6   6  26    2.34    1.26
  -6   6  26    2.59    1.13
  -6  -6  25   -0.32    0.62
   6   6 -25    0.99    0.54
  -6   6  25    1.69    1.16
  -6   6  25    2.41    1.06
  -6  -6  24    3.78    0.65
   6   6 -24    4.79    0.70
  -6   6  24    3.91    1.21
  -6   6  24    3.66    1.05
  -6  -6  23    1.43    0.65
   6   6 -23    1.64    0.61
  -6   6  23    0.66    1.04
  -6   6  23    0.47    0.89
  -6  -6  22    2.12    0.66
   6   6 -22    1.53    0.59
  -6   6  22    1.30    0.96
  -6   6  22    1.83    0.91
  -6  -6  21    5.39    0.77
   6   6 -21    6.18    0.70
  -6   6  21    5.15    0.97
  -6   6  21    3.63    0.88
  -6  -6  20   18.52    1.11
   6   6 -20   18.67    1.02
  -6   6  20   20.30    1.23
  -6   6  20   19.15    1.20
  -6  -6  19   54.15    2.10
   6   6 -19   55.04    2.14
  -6   6  19   54.72    2.18
  -6  -6  18    0.63    0.61
   6   6 -18   -0.51    0.63
  -6   6  18    0.97    0.76
  -6  -6  17   58.52    2.28
   6   6 -17   51.17    2.01
  -6   6  17   53.25    2.09
  -6  -6  16    7.17    0.80
   6   6 -16    6.67    0.72
  -6   6  16    5.33    0.86
  -6  -6  15   19.01    1.13
   6   6 -15   19.09    1.08
  -6   6  15   21.25    1.20
  -6  -6  14    5.86    0.78
   6   6 -14    6.81    0.74
  -6   6  14    4.96    0.79
  -6  -6  13    1.75    0.62
   6   6 -13    2.10    0.63
  -6   6  13    4.13    0.74
  -6  -6  12   28.60    1.32
   6   6 -12   27.05    1.30
  -6   6  12   29.89    1.39
  -6  -6  11    0.26    0.56
   6   6 -11    0.20    0.61
  -6   6  11    0.14    0.66
  -6  -6  10    5.18    0.68
   6   6 -10    5.81    0.75
  -6   6  10    4.08    0.70
  -6  -6   9   51.88    2.07
   6   6  -9   50.56    1.99
  -6   6   9   55.68    2.13
   6  -6  -8   20.86    1.11
  -6  -6   8   20.72    1.13
   6   6  -8   22.18    1.12
  -6   6   8   21.23    1.12
   6  -6  -7  133.80    4.60
  -6  -6   7  124.40    4.35
   6   6  -7  126.00    4.37
  -6   6   7  122.00    4.25
   6  -6  -6   20.12    1.07
  -6  -6   6   20.35    1.10
   6   6  -6   17.79    1.01
  -6   6   6   20.58    1.13
   6  -6  -5    7.45    0.78
  -6  -6   5    8.81    0.78
   6   6  -5    9.06    0.75
  -6   6   5    8.38    0.84
   6  -6  -4    1.40    0.72
  -6  -6   4    1.41    0.61
   6   6  -4    0.01    0.55
  -6   6   4    1.41    0.72
   6  -6  -3  182.70    6.27
  -6  -6   3  178.40    6.01
   6   6  -3  175.00    5.91
  -6   6   3  180.10    6.13
   6  -6  -2   57.25    2.26
  -6  -6   2   59.48    2.20
   6   6  -2   57.35    2.15
  -6   6   2   60.04    2.30
   6  -6  -1   19.15    1.08
  -6  -6   1   21.41    1.07
   6   6  -1   20.62    1.04
  -6   6   1   18.35    1.08
   6  -6   0    5.75    0.71
  -6  -6   0    5.16    0.65
   6   6   0    5.21    0.59
  -6   6   0    6.25    0.78
   6  -6   1   39.81    1.62
  -6  -6  -1   40.69    1.66
   6   6   1   37.86    1.51
  -6   6  -1   38.92    1.64
   6  -6   2   43.20    1.76
  -6  -6  -2   45.15    1.79
   6   6   2   43.73    1.67
  -6   6  -2   45.27    1.84
   6  -6   3  110.90    3.92
  -6  -6  -3  108.80    3.78
   6   6   3  110.70    3.80
  -6   6  -3  104.10    3.71
   6  -6   4   18.46    1.15
  -6  -6  -4   16.86    0.92
   6   6   4   16.57    0.84
  -6   6  -4   17.22    1.07
   6  -6   5   11.54    1.01
  -6  -6  -5   10.90    0.74
   6   6   5   11.33    0.68
  -6   6  -5   13.74    0.97
   6  -6   6  208.30    7.06
  -6  -6  -6  220.30    7.30
   6   6   6  210.80    6.99
  -6   6  -6  212.20    7.18
   6  -6   7    4.57    0.66
   6   6   7    6.26    0.54
  -6   6  -7    4.01    0.73
   6  -6   8   23.50    1.16
   6   6   8   28.23    1.15
  -6   6  -8   26.54    1.31
   6  -6   9   93.50    3.31
   6   6   9   97.38    3.32
  -6   6  -9   89.85    3.25
   6  -6  10    1.76    0.58
   6   6  10    0.39    0.40
  -6   6 -10    1.70    0.70
   6  -6  11    9.50    0.83
   6   6  11   10.40    0.57
  -6   6 -11    9.76    0.89
   6  -6  12   10.88    0.85
   6   6  12    7.67    0.51
   6   6  12    8.82    0.51
  -6   6 -12   10.05    0.84
   6  -6  13    0.44    0.62
   6   6  13    1.35    0.36
   6   6  13    0.81    0.36
  -6   6 -13    2.71    0.64
   6  -6  14   67.90    2.51
  -6   6 -14   66.01    2.48
   6  -6  15    0.82    0.61
  -6   6 -15    0.23    0.64
   6  -6  16    3.34    0.62
  -6   6 -16    3.20    0.67
   6  -6  17   15.41    0.92
  -6   6 -17   15.02    0.93
   6  -6  18    6.33    0.67
  -6   6 -18    6.43    0.67
   6  -6  19   20.31    1.04
  -6   6 -19   19.52    1.03
   6  -6  20   11.13    0.80
  -6   6 -20   14.26    0.86
   6  -6  21   11.32    0.77
  -6   6 -21   11.41    0.78
   6  -6  22    2.07    0.58
  -6   6 -22    1.13    0.53
   6  -6  23    0.17    0.54
  -6   6 -23    0.30    0.53
   6  -6  24    0.25    0.52
  -6   6 -24    0.01    0.55
   6  -6  25    0.51    0.50
  -6   6 -25   -0.08    0.55
  -6  -8  22    0.49    0.52
   6   8 -22    1.72    0.63
  -6   8  22    1.29    1.40
  -6   8  22    0.99    1.31
  -6  -8  21    2.74    0.57
   6   8 -21    1.46    0.56
  -6   8  21   -1.45    1.27
  -6   8  21    1.46    1.19
  -6  -8  20   30.89    1.33
  -6   8  20   35.31    1.88
  -6   8  20   33.47    1.76
  -6  -8  19    1.56    0.58
   6   8 -19    1.68    0.57
  -6   8  19    1.62    1.05
  -6  -8  18   19.46    1.01
   6   8 -18   21.06    1.08
  -6   8  18   17.79    1.29
  -6  -8  17    1.01    0.56
   6   8 -17    0.72    0.62
  -6   8  17   -0.87    0.94
  -6  -8  16    3.17    0.67
   6   8 -16    4.62    0.71
  -6   8  16    3.73    0.96
  -6  -8  15    1.43    0.57
   6   8 -15    2.23    0.66
  -6   8  15    1.33    0.87
  -6  -8  14    0.44    0.58
   6   8 -14    0.98    0.63
  -6   8  14    0.57    0.80
  -6  -8  13    3.59    0.70
   6   8 -13    3.96    0.72
  -6   8  13    5.46    0.88
  -6  -8  12    6.69    0.79
   6   8 -12    5.86    0.74
  -6   8  12    6.07    0.85
  -6  -8  11   -0.47    0.58
   6   8 -11    1.07    0.65
  -6   8  11   -0.31    0.72
  -6  -8  10    0.64    0.63
   6   8 -10    1.23    0.66
  -6   8  10    1.72    0.79
  -6  -8   9   25.42    1.20
   6   8  -9   22.81    1.18
  -6   8   9   27.21    1.33
   6  -8  -8   74.69    2.74
  -6  -8   8   66.38    2.45
   6   8  -8   69.30    2.56
  -6   8   8   73.99    2.74
   6  -8  -7    9.76    0.95
  -6  -8   7   11.91    0.79
   6  -8  -6   65.43    2.51
  -6  -8   6   63.86    2.41
   6   8  -6   65.88    2.45
  -6   8   6   64.12    2.42
   6  -8  -5   -0.28    0.76
  -6  -8   5   -0.50    0.62
   6   8  -5    1.37    0.63
  -6   8   5    0.41    0.67
   6  -8  -4   23.55    1.18
  -6  -8   4   25.74    1.24
   6   8  -4   25.95    1.25
  -6   8   4   23.90    1.22
   6  -8  -3   37.98    1.61
  -6  -8   3   37.53    1.57
   6   8  -3   38.74    1.61
  -6   8   3   36.94    1.59
   6  -8  -2    0.08    0.65
  -6  -8   2    0.79    0.59
   6   8  -2    0.04    0.57
  -6   8   2   -0.40    0.69
   6  -8  -1    0.35    0.70
  -6  -8   1    0.31    0.57
   6   8  -1    0.43    0.59
  -6   8   1    0.71    0.67
   6  -8   0   40.59    1.76
  -6  -8   0   40.09    1.64
   6   8   0   42.23    1.69
  -6   8   0   41.31    1.72
   6  -8   1    0.34    0.70
  -6  -8  -1   -0.60    0.62
   6   8   1   -0.33    0.54
  -6   8  -1    0.27    0.68
   6  -8   2   15.07    0.98
  -6  -8  -2   15.23    0.96
   6   8   2   13.30    0.85
  -6   8  -2   16.08    1.00
   6  -8   3   29.29    1.35
  -6  -8  -3   27.78    1.28
   6   8   3   27.47    1.23
  -6   8  -3   26.26    1.32
   6  -8   4   18.88    1.06
  -6  -8  -4   19.58    1.02
   6   8   4   16.31    0.89
  -6   8  -4   17.48    1.05
   6  -8   5   -0.11    0.68
  -6  -8  -5   -0.27    0.62
   6   8   5    0.41    0.56
  -6   8  -5    0.65    0.74
   6  -8   6   60.76    2.34
   6  -8   7    2.25    0.72
   6   8   7    1.33    0.63
  -6   8  -7    1.22    0.78
   6  -8   8   61.23    2.32
   6   8   8   65.71    2.39
  -6   8  -8   61.49    2.39
   6  -8   9   33.59    1.42
   6   8   9   38.45    1.52
  -6   8  -9   36.56    1.59
   6  -8  10    0.57    0.64
   6   8  10    1.76    0.59
  -6   8 -10    0.96    0.70
   6  -8  11    1.69    0.64
   6   8  11    1.07    0.57
  -6   8 -11    1.27    0.61
   6  -8  12   22.55    1.10
  -6   8 -12   22.31    1.17
   6  -8  13    2.88    0.59
  -6   8 -13    3.73    0.67
   6  -8  14   -0.23    0.55
  -6   8 -14    0.96    0.64
   6  -8  15    7.81    0.70
  -6   8 -15    7.85    0.72
   6  -8  16    0.77    0.54
  -6   8 -16    0.67    0.60
   6  -8  17    0.71    0.51
  -6   8 -17    1.23    0.57
   6  -8  18   17.81    0.96
  -6   8 -18   15.02    0.87
   6  -8  19    1.13    0.48
  -6   8 -19    0.88    0.51
  -6 -10  10    0.58    0.82
   6  10 -10    0.41    0.83
  -6  10  10    0.25    1.29
  -6 -10   9   -0.05    0.69
   6  10  -9    0.43    0.70
  -6  10   9    0.94    1.09
  -6 -10   8    0.12    0.77
   6  10  -8    0.59    0.75
  -6  10   8   -1.33    1.01
  -6 -10   7   16.11    1.08
   6  10  -7   19.11    1.17
  -6  10   7   16.95    1.28
   6 -10  -6   -1.50    0.87
  -6 -10   6    1.35    0.81
   6  10  -6   -0.89    0.74
  -6  10   6   -0.85    0.95
   6 -10  -5    6.65    0.89
  -6 -10   5    8.49    0.92
   6  10  -5    8.64    0.94
  -6  10   5    8.06    1.04
   6 -10  -4    1.38    0.96
  -6 -10   4    2.27    0.77
   6  10  -4    2.15    0.78
  -6  10   4    2.29    0.97
   6 -10  -3    1.19    0.87
  -6 -10   3    2.71    0.82
   6  10  -3    3.36    0.89
  -6  10   3    3.57    0.97
   6 -10  -2   11.14    1.06
  -6 -10   2   13.81    1.10
   6  10  -2   13.59    1.09
  -6  10   2   14.95    1.18
   6 -10  -1   10.24    0.95
  -6 -10   1    9.06    1.01
   6  10  -1   10.54    1.07
  -6  10   1   10.20    1.09
   6 -10   0   37.27    1.63
  -6 -10   0   36.30    1.70
   6  10   0   34.72    1.65
  -6  10   0   33.73    1.66
   6 -10   1   13.64    1.02
  -6 -10  -1   13.81    1.24
   6  10   1   14.85    1.18
  -6  10  -1   11.91    1.09
   6 -10   2    5.42    0.83
  -6 -10  -2    5.44    1.12
   6  10   2    6.36    1.06
  -6  10  -2    6.27    0.94
   6 -10   3    0.73    0.75
  -6 -10  -3    1.92    1.01
   6  10   3   -0.64    0.99
  -6  10  -3   -1.10    0.80
   6 -10   4    7.60    0.78
  -6 -10  -4    6.31    1.14
   6  10   4    8.27    1.16
  -6  10  -4    6.33    0.89
   6 -10   5    7.55    0.83
   6  10   5    4.82    1.07
  -6  10  -5    8.23    0.87
   6 -10   6    3.83    0.72
   6  10   6    4.98    1.26
  -6  10  -6    6.02    0.82
   6 -10   7    8.61    0.87
   6  10   7   10.30    1.47
  -6  10  -7   10.83    0.97
   6 -10   8    1.94    0.74
  -7  -1  33    0.88    0.84
  -7   1  33   -0.12    0.97
  -7  -1  32    2.06    0.84
  -7   1  32    0.79    0.77
  -7  -1  31    5.15    0.88
  -7   1  31    4.54    0.96
  -7  -1  30   45.35    1.91
  -7   1  30   44.87    1.95
  -7  -1  29    3.78    0.86
  -7   1  29    4.02    0.81
  -7  -1  28    1.21    0.75
  -7   1  28    1.11    0.83
  -7  -1  27    1.08    0.75
  -7   1  27    0.84    0.80
  -7  -1  26    1.83    0.80
  -7   1  26    2.28    0.76
  -7  -1  25   32.89    1.57
  -7   1  25   36.82    1.64
  -7  -1  24  121.00    4.26
  -7   1  24  119.70    4.26
  -7  -1  23   12.23    1.00
  -7   1  23   10.80    1.02
  -7  -1  22    5.96    0.91
  -7   1  22    5.19    0.84
  -7  -1  21  158.60    5.47
  -7   1  21  168.10    5.77
  -7  -1  20    0.52    0.63
  -7   1  20    0.65    0.66
  -7  -1  19   31.82    1.43
  -7   1  19   30.87    1.40
  -7  -1  18  111.00    3.91
  -7   1  18  110.50    3.88
  -7  -1  17   90.19    3.25
  -7   1  17   90.86    3.24
  -7  -1  16    6.12    0.75
  -7  -1  15    2.93    0.62
   7   1 -15    3.45    0.65
  -7   1  15    2.22    0.61
  -7  -1  14   76.73    2.79
   7   1 -14   82.28    2.96
  -7   1  14   77.56    2.79
  -7  -1  13    1.47    0.63
   7   1 -13    2.17    0.64
  -7   1  13    1.60    0.60
  -7  -1  12   56.47    2.14
   7   1 -12   64.17    2.39
  -7   1  12   56.18    2.10
  -7  -1  11  157.40    5.35
   7   1 -11  155.80    5.29
  -7  -1  10   29.32    1.33
   7   1 -10   30.45    1.35
  -7  -1   9  272.50    9.05
   7   1  -9  262.40    8.71
  -7  -1   8    1.83    0.66
   7   1  -8    4.72    0.68
  -7  -1   7   13.77    0.91
   7   1  -7   14.72    0.90
  -7  -1   6   34.88    1.46
   7   1  -6   36.11    1.50
  -7  -1   5   20.00    1.02
  -7   1   5   17.22    1.00
  -7  -1   4    4.99    0.64
  -7   1   4    6.78    0.72
   7  -1  -3   60.29    2.22
  -7  -1   3   61.06    2.16
  -7   1   3   61.75    2.27
   7  -1  -2  151.90    5.09
  -7  -1   2  160.70    5.33
  -7   1   2  162.40    5.46
   7  -1  -1    3.59    0.66
  -7   1   1    2.18    0.68
   7  -1   0    9.26    0.75
  -7   1   0    9.15    0.78
   7  -1   1   30.33    1.30
  -7  -1  -1   30.72    1.09
  -7   1  -1   29.66    1.29
   7  -1   2  247.00    8.18
  -7  -1  -2  222.70    7.32
  -7   1  -2  234.50    7.80
   7  -1   3   75.52    2.68
  -7  -1  -3   72.31    2.42
   7   1   3   73.91    2.47
  -7   1  -3   77.16    2.76
   7  -1   4    4.62    0.64
  -7  -1  -4    3.95    0.33
   7   1   4    4.41    0.32
  -7   1  -4    4.39    0.66
   7  -1   5   48.19    1.83
  -7  -1  -5   48.80    1.68
   7   1   5   47.95    1.66
  -7   1  -5   48.42    1.85
   7  -1   6    0.13    0.47
  -7  -1  -6    0.83    0.31
   7   1   6    0.64    0.33
  -7   1  -6    0.70    0.51
   7  -1   7   10.64    0.71
  -7  -1  -7   12.55    0.61
   7   1   7   11.34    0.59
  -7   1  -7   10.75    0.75
   7  -1   8   21.96    1.07
  -7  -1  -8   21.76    0.92
   7   1   8   20.29    0.87
  -7   1  -8   21.84    1.01
   7  -1   9   49.30    1.88
  -7  -1  -9   49.89    1.81
   7   1   9   47.86    1.74
  -7   1  -9   47.97    1.86
   7  -1  10   52.20    1.98
  -7  -1 -10   58.06    2.07
   7   1  10   54.68    1.97
  -7   1 -10   57.75    2.15
   7  -1  11  132.40    4.54
  -7  -1 -11  135.20    4.56
   7   1  11  134.50    4.54
  -7   1 -11  140.30    4.79
   7  -1  12   30.13    1.33
  -7  -1 -12   31.50    1.28
   7   1  12   29.21    1.22
  -7   1 -12   31.95    1.39
   7  -1  13   12.36    0.81
  -7  -1 -13   13.70    0.80
   7   1  13   12.43    0.74
  -7   1 -13   14.43    0.86
   7  -1  14    1.50    0.63
  -7  -1 -14    2.00    0.57
   7   1  14    2.18    0.53
  -7   1 -14    2.64    0.65
   7  -1  15   42.93    1.76
  -7  -1 -15   45.82    1.78
   7   1  15   43.82    1.73
  -7   1 -15   44.99    1.81
   7  -1  16    5.50    0.66
  -7  -1 -16    5.16    0.66
   7   1  16    5.25    0.63
  -7   1 -16    5.58    0.75
   7  -1  17   20.10    1.06
  -7  -1 -17   22.53    1.16
   7   1  17   20.25    1.01
  -7   1 -17   21.87    1.15
   7  -1  18  135.10    4.68
   7   1  18  132.20    4.57
  -7   1 -18  128.00    4.45
   7  -1  19   17.22    1.07
   7   1  19   18.01    1.04
  -7   1 -19   16.45    1.02
   7  -1  20    2.34    0.74
   7   1  20    1.88    0.64
  -7   1 -20    2.72    0.63
   7  -1  21   32.55    1.49
   7   1  21   33.77    1.49
  -7   1 -21   32.16    1.42
   7  -1  22    6.27    0.82
   7   1  22    6.05    0.80
  -7   1 -22    6.30    0.70
   7  -1  23   30.72    1.43
   7   1  23   28.61    1.37
  -7   1 -23   30.07    1.36
   7  -1  24    1.49    0.74
   7   1  24    1.64    0.66
  -7   1 -24    1.29    0.65
   7  -1  25    2.48    0.75
   7   1  25    3.64    0.69
  -7   1 -25    3.17    0.69
   7  -1  26    1.52    0.71
   7  -1  27    8.37    0.82
   7   1  27    7.65    0.85
  -7   1 -27    8.31    0.85
   7  -1  28   37.00    1.64
   7   1  28   37.56    1.66
   7  -1  29   20.95    1.23
   7   1  29   19.72    1.18
   7  -1  30   24.03    1.32
   7   1  30   19.55    1.21
   7  -1  31   11.40    1.04
   7   1  31   12.03    1.16
  -7  -3  32    3.88    0.83
  -7   3  32    2.74    1.04
  -7  -3  31    0.49    0.73
  -7   3  31    0.12    0.97
  -7  -3  30   48.18    1.97
  -7   3  30   50.59    2.15
  -7  -3  29    0.91    0.76
  -7   3  29   -0.03    0.84
  -7  -3  28   12.96    0.95
  -7   3  28   14.32    1.09
  -7  -3  27   24.46    1.27
  -7   3  27   28.99    1.42
  -7  -3  26   27.39    1.37
   7   3 -26   25.25    1.22
  -7   3  26   22.40    1.29
  -7  -3  25    0.07    0.66
   7   3 -25    0.26    0.60
  -7   3  25   -0.76    0.77
  -7  -3  24    0.43    0.68
   7   3 -24    0.29    0.59
  -7   3  24    0.56    0.80
  -7  -3  23   -0.64    0.71
   7   3 -23    0.36    0.68
  -7   3  23    0.06    0.81
  -7  -3  22   28.58    1.40
   7   3 -22   25.09    1.27
  -7   3  22   28.75    1.47
  -7  -3  21    1.80    0.74
   7   3 -21    2.16    0.67
  -7   3  21    1.09    0.76
  -7  -3  20    0.76    0.73
   7   3 -20   -0.08    0.59
  -7   3  20    0.84    0.83
  -7  -3  19    1.15    0.72
   7   3 -19    0.25    0.58
  -7   3  19    0.57    0.75
  -7  -3  18   28.78    1.40
   7   3 -18   33.05    1.47
  -7   3  18   36.25    1.59
  -7  -3  17   40.73    1.72
   7   3 -17   43.47    1.81
  -7   3  17   38.19    1.61
  -7  -3  16   25.38    1.21
   7   3 -16   25.97    1.27
  -7   3  16   25.43    1.25
  -7  -3  15   15.85    0.99
   7   3 -15   20.64    1.14
  -7   3  15   17.39    1.00
  -7  -3  14  226.40    7.63
   7   3 -14  240.50    8.06
  -7   3  14  241.20    8.05
  -7  -3  13    5.92    0.72
   7   3 -13    6.50    0.77
  -7   3  13    5.31    0.73
  -7  -3  12    1.00    0.60
   7   3 -12    0.23    0.65
  -7   3  12    0.82    0.60
  -7  -3  11    0.54    0.66
   7   3 -11    0.13    0.59
  -7   3  11    0.80    0.64
  -7  -3  10   49.79    1.98
   7   3 -10   64.37    2.39
  -7   3  10   62.45    2.32
  -7  -3   9   63.43    2.34
   7   3  -9   56.89    2.14
  -7   3   9   57.80    2.16
  -7  -3   8    2.85    0.61
   7   3  -8    3.94    0.63
  -7   3   8    3.76    0.60
  -7  -3   7    9.75    0.73
   7   3  -7   10.65    0.77
  -7   3   7   10.78    0.75
   7  -3  -6   36.24    1.48
  -7  -3   6   36.93    1.46
   7   3  -6   34.30    1.43
  -7   3   6   35.99    1.47
   7  -3  -5   76.11    2.71
  -7  -3   5   75.91    2.67
   7   3  -5   76.45    2.72
  -7   3   5   76.10    2.74
   7  -3  -4   91.73    3.23
  -7  -3   4   92.53    3.19
   7   3  -4   98.94    3.42
  -7   3   4   90.95    3.22
   7  -3  -3    9.37    0.82
  -7  -3   3    9.53    0.66
   7   3  -3   10.05    0.69
  -7   3   3    8.50    0.77
   7  -3  -2  216.00    7.23
  -7  -3   2  217.50    7.22
   7   3  -2  204.60    6.78
  -7   3   2  215.50    7.20
   7  -3  -1   10.13    0.84
  -7  -3   1   10.62    0.67
   7   3  -1   10.53    0.61
  -7   3   1   11.43    0.83
   7  -3   0    8.78    0.81
  -7  -3   0    7.19    0.52
   7   3   0    7.93    0.51
  -7   3   0    6.33    0.68
   7  -3   1   18.63    1.04
  -7  -3  -1   18.61    0.78
   7   3   1   18.60    0.77
  -7   3  -1   17.52    0.98
   7  -3   2   61.83    2.30
  -7  -3  -2   61.78    2.11
   7   3   2   60.50    2.06
  -7   3  -2   60.14    2.26
   7  -3   3   22.32    1.10
  -7  -3  -3   19.41    0.74
   7   3   3   20.24    0.76
  -7   3  -3   19.57    1.06
   7  -3   4   90.60    3.21
   7   3   4   88.80    2.98
  -7   3  -4   89.68    3.20
   7  -3   5   54.73    2.09
   7   3   5   53.36    1.86
  -7   3  -5   49.88    1.95
   7  -3   6    2.07    0.69
  -7   3  -6    0.83    0.66
   7  -3   7   94.78    3.38
  -7   3  -7  100.40    3.54
   7  -3   8  110.30    3.87
  -7   3  -8  127.20    4.41
   7  -3   9   97.28    3.42
   7   3   9   93.45    3.14
   7   3   9   90.97    3.05
  -7   3  -9   95.12    3.39
   7  -3  10  150.00    5.13
   7   3  10  152.30    5.05
   7   3  10  147.50    4.89
  -7   3 -10  163.20    5.57
   7  -3  11   22.25    1.17
   7   3  11   21.93    0.87
   7   3  11   21.05    0.83
  -7   3 -11   22.63    1.18
   7  -3  12  217.00    7.31
   7   3  12  226.20    7.47
   7   3  12  217.60    7.18
  -7   3 -12  218.90    7.38
   7  -3  13    7.02    0.81
   7   3  13    5.50    0.46
   7   3  13    6.30    0.48
  -7   3 -13    6.69    0.78
   7  -3  14    1.96    0.64
   7   3  14    1.44    0.40
  -7   3 -14    1.92    0.66
   7  -3  15    1.64    0.68
   7   3  15    1.07    0.41
  -7   3 -15    2.19    0.67
   7  -3  16   26.06    1.26
   7   3  16   27.17    1.13
  -7   3 -16   25.84    1.24
   7  -3  17    1.12    0.61
   7   3  17    1.15    0.49
  -7   3 -17    1.28    0.58
   7  -3  18   12.47    0.94
   7   3  18   13.43    0.80
  -7   3 -18   13.93    0.90
   7  -3  19    6.29    0.78
   7   3  19    4.87    0.58
  -7   3 -19    6.83    0.71
   7  -3  20    2.41    0.68
   7   3  20    2.87    0.59
  -7   3 -20    3.21    0.63
   7  -3  21   17.84    1.02
   7   3  21   16.97    0.95
  -7   3 -21   16.05    0.94
   7  -3  22   75.89    2.80
   7   3  22   74.35    2.68
  -7   3 -22   71.30    2.62
   7  -3  23    5.19    0.78
   7   3  23    7.27    0.75
  -7   3 -23    6.28    0.68
   7  -3  24   61.67    2.36
   7   3  24   65.80    2.44
  -7   3 -24   63.20    2.36
   7  -3  25   21.37    1.11
   7   3  25   19.39    1.08
  -7   3 -25   20.80    1.10
   7  -3  26    3.63    0.75
   7   3  26    4.00    0.77
  -7   3 -26    3.50    0.69
   7  -3  27    1.26    0.65
   7   3  27    0.96    0.78
  -7   3 -27   -0.07    0.63
   7  -3  28    0.57    0.73
   7   3  28   -0.17    0.85
  -7   3 -28    0.86    0.60
   7  -3  29    2.16    0.74
   7   3  29    1.23    0.94
  -7   3 -29    1.53    0.67
  -7  -5  29   -0.20    0.63
   7   5 -29   -0.16    0.57
  -7   5  29    0.67    1.37
  -7   5  29    1.45    1.05
  -7  -5  28    4.93    0.71
   7   5 -28    5.56    0.69
  -7   5  28    5.69    1.31
  -7   5  28    6.87    1.09
  -7  -5  27   10.33    0.86
   7   5 -27   12.51    0.83
  -7   5  27   12.55    1.13
  -7   5  27   11.50    1.36
  -7  -5  26    1.88    0.61
   7   5 -26    1.25    0.58
  -7   5  26    1.82    1.15
  -7   5  26    0.15    0.94
  -7  -5  25    0.90    0.67
   7   5 -25   -0.27    0.57
  -7   5  25    0.73    0.84
  -7   5  25    0.72    0.97
  -7  -5  24   40.46    1.67
   7   5 -24   41.88    1.71
  -7   5  24   42.92    1.94
  -7   5  24   42.55    1.81
  -7  -5  23    1.75    0.75
   7   5 -23    0.84    0.63
  -7   5  23    0.01    0.82
  -7   5  23   -0.76    0.83
  -7  -5  22    3.19    0.68
   7   5 -22    2.37    0.68
  -7   5  22    2.37    0.81
  -7   5  22    2.69    0.91
  -7  -5  21   12.48    0.88
   7   5 -21   11.44    0.82
  -7   5  21   10.85    1.04
  -7   5  21   12.81    1.04
  -7  -5  20    0.61    0.70
   7   5 -20   -0.20    0.59
  -7   5  20    0.32    0.80
  -7   5  20   -0.75    0.82
  -7  -5  19   25.67    1.33
   7   5 -19   25.05    1.22
  -7   5  19   27.48    1.41
  -7  -5  18    1.06    0.69
   7   5 -18    0.32    0.63
  -7   5  18   -0.83    0.83
  -7  -5  17   22.22    1.18
   7   5 -17   24.15    1.21
  -7   5  17   24.96    1.32
  -7  -5  16   30.19    1.38
   7   5 -16   30.72    1.39
  -7   5  16   31.50    1.52
  -7  -5  15    1.19    0.66
   7   5 -15    0.79    0.57
  -7   5  15    1.54    0.75
  -7  -5  14   24.41    1.29
   7   5 -14   22.40    1.14
  -7   5  14   26.33    1.30
  -7  -5  13   23.72    1.26
   7   5 -13   22.13    1.15
  -7   5  13   23.52    1.22
  -7  -5  12   21.58    1.23
   7   5 -12   25.15    1.27
  -7   5  12   24.67    1.24
  -7  -5  11   39.94    1.68
   7   5 -11   40.93    1.70
  -7   5  11   40.35    1.72
  -7  -5  10   59.18    2.25
   7   5 -10   57.11    2.21
  -7   5  10   56.94    2.18
  -7  -5   9    3.65    0.69
   7   5  -9    2.82    0.71
  -7   5   9    4.30    0.70
   7  -5  -8   55.08    2.13
  -7  -5   8   52.21    1.99
   7   5  -8   54.34    2.11
  -7   5   8   50.38    1.98
   7  -5  -7   -0.12    0.61
  -7  -5   7   -0.08    0.56
   7   5  -7    0.12    0.60
  -7   5   7   -1.11    0.54
   7  -5  -6    1.26    0.61
  -7  -5   6    1.48    0.60
   7   5  -6    1.50    0.54
  -7   5   6    1.62    0.63
   7  -5  -5   58.47    2.19
  -7  -5   5   61.89    2.35
   7   5  -5   59.65    2.23
  -7   5   5   59.34    2.24
   7  -5  -4   39.78    1.60
  -7  -5   4   40.46    1.68
   7   5  -4   37.98    1.57
  -7   5   4   42.25    1.72
   7  -5  -3   83.56    2.98
  -7  -5   3   85.94    3.09
   7   5  -3   84.53    3.00
  -7   5   3   79.71    2.89
   7  -5  -2   55.23    2.10
  -7  -5   2   57.66    2.15
   7   5  -2   54.86    2.05
  -7   5   2   59.68    2.25
   7  -5  -1  100.90    3.55
  -7  -5   1   99.01    3.43
   7   5  -1  104.80    3.62
  -7   5   1  102.80    3.63
   7  -5   0    4.07    0.69
  -7  -5   0    3.33    0.54
   7   5   0    3.88    0.54
  -7   5   0    3.37    0.71
   7  -5   1   14.45    0.96
  -7  -5  -1   14.65    0.80
   7   5   1   13.75    0.73
  -7   5  -1   14.84    0.97
   7  -5   2   82.24    3.00
  -7  -5  -2   81.82    2.84
   7   5   2   82.23    2.85
  -7   5  -2   77.52    2.83
   7  -5   3   -0.27    0.67
  -7  -5  -3    1.46    0.45
   7   5   3    0.85    0.43
  -7   5  -3    0.53    0.61
   7  -5   4   65.43    2.44
  -7  -5  -4   60.95    2.13
   7   5   4   65.92    2.31
  -7   5  -4   61.46    2.36
   7   5   5   22.13    0.91
  -7   5  -5   22.95    1.18
   7  -5   6   30.37    1.38
   7   5   6   28.50    1.08
  -7   5  -6   29.18    1.41
   7  -5   7   51.27    2.05
   7   5   7   51.89    1.82
  -7   5  -7   49.86    2.02
   7  -5   8   -0.30    0.75
   7   5   8    0.44    0.30
  -7   5  -8    1.02    0.65
   7  -5   9  125.10    4.40
   7   5   9  129.10    4.33
  -7   5  -9  126.00    4.39
   7  -5  10   20.18    1.08
   7   5  10   24.33    0.92
   7   5  10   23.02    0.88
  -7   5 -10   24.83    1.25
   7  -5  11   36.21    1.51
  -7   5 -11   38.47    1.67
   7  -5  12   14.97    0.89
  -7   5 -12   14.39    0.99
   7  -5  13    5.64    0.69
  -7   5 -13    5.57    0.78
   7  -5  14   20.83    1.15
  -7   5 -14   19.40    1.10
   7  -5  15   12.74    0.88
  -7   5 -15   13.51    0.93
   7  -5  16    2.35    0.62
  -7   5 -16    1.10    0.66
   7  -5  17    6.97    0.70
   7   5  17    6.87    0.45
   7   5  17    6.46    0.46
  -7   5 -17    5.83    0.70
   7  -5  18   87.70    3.15
   7   5  18   91.06    3.11
   7   5  18   85.97    2.93
  -7   5 -18   85.71    3.08
   7  -5  19    0.41    0.60
   7   5  19    0.13    0.39
   7   5  19    0.89    0.42
  -7   5 -19    0.75    0.54
   7  -5  20    1.84    0.56
   7   5  20    0.60    0.48
   7   5  20    1.76    0.44
  -7   5 -20    1.40    0.56
   7  -5  21   43.66    1.76
   7   5  21   44.60    1.67
   7   5  21   48.67    1.77
  -7   5 -21   44.86    1.78
   7  -5  22   11.77    0.80
   7   5  22   10.50    0.76
   7   5  22   13.09    0.77
  -7   5 -22   11.64    0.81
   7  -5  23    2.79    0.66
   7   5  23    1.86    0.67
   7   5  23    1.33    0.66
  -7   5 -23    2.08    0.56
   7  -5  24   -0.53    0.58
   7   5  24   -0.69    0.74
   7   5  24   -0.21    0.67
  -7   5 -24   -0.23    0.51
   7  -5  25   41.19    1.64
   7   5  25   41.11    1.66
  -7   5 -25   40.25    1.62
   7  -5  26    4.68    0.63
   7   5  26    4.07    0.99
   7   5  26    4.44    0.90
  -7   5 -26    6.44    0.61
   7  -5  27    0.99    0.60
   7   5  27    2.41    0.84
   7   5  27    0.62    1.06
  -7   5 -27    1.49    0.60
  -7  -7  25    1.14    0.55
   7   7 -25    1.13    0.52
  -7   7  25    1.70    1.31
  -7   7  25    1.85    1.48
  -7  -7  24    1.86    0.62
   7   7 -24    1.84    0.55
  -7   7  24    2.88    1.14
  -7   7  24    3.49    1.21
  -7  -7  23   10.64    0.77
   7   7 -23    9.56    0.74
  -7   7  23    8.57    1.17
  -7   7  23    8.86    1.20
  -7  -7  22   10.59    0.80
   7   7 -22   10.82    0.78
  -7   7  22    7.51    1.16
  -7   7  22    9.43    1.20
  -7  -7  21   46.86    1.86
   7   7 -21   44.74    1.79
  -7   7  21   49.43    2.12
  -7   7  21   49.99    2.13
  -7  -7  20    0.09    0.65
   7   7 -20    0.52    0.59
  -7   7  20   -0.36    0.97
  -7  -7  19    4.56    0.72
   7   7 -19    3.03    0.66
  -7   7  19    4.79    0.97
  -7  -7  18    1.17    0.65
   7   7 -18    1.58    0.65
  -7   7  18    1.04    0.84
  -7  -7  17    0.10    0.58
   7   7 -17    0.67    0.59
  -7   7  17    0.86    0.82
  -7  -7  16    0.41    0.65
   7   7 -16    2.74    0.63
  -7   7  16    1.49    0.78
  -7  -7  15    8.48    0.76
   7   7 -15    7.42    0.75
  -7   7  15    8.48    0.91
  -7  -7  14    1.02    0.65
   7   7 -14    0.29    0.60
  -7   7  14    0.42    0.74
  -7  -7  13    2.01    0.69
   7   7 -13    2.31    0.64
  -7   7  13    3.34    0.74
  -7  -7  12    0.48    0.65
   7   7 -12    0.35    0.64
  -7   7  12    1.16    0.73
  -7  -7  11  118.10    4.11
   7   7 -11  116.80    4.10
  -7   7  11  121.80    4.25
  -7  -7  10    9.02    0.70
   7   7 -10    8.28    0.77
  -7   7  10    8.90    0.85
  -7  -7   9  127.00    4.38
   7   7  -9  129.90    4.51
  -7   7   9  129.60    4.50
   7  -7  -8    0.83    0.73
  -7  -7   8    1.15    0.56
   7   7  -8    1.83    0.66
  -7   7   8    1.95    0.68
   7  -7  -7   19.60    1.12
  -7  -7   7   19.11    1.06
   7   7  -7   19.59    1.07
  -7   7   7   20.85    1.10
   7  -7  -6    1.31    0.76
  -7  -7   6    0.59    0.61
   7   7  -6    0.29    0.59
  -7   7   6    0.53    0.66
   7  -7  -5   -0.80    0.70
  -7  -7   5    0.33    0.60
   7   7  -5    0.61    0.60
  -7   7   5    0.48    0.68
   7  -7  -4   34.38    1.48
  -7  -7   4   35.63    1.53
   7   7  -4   35.91    1.53
  -7   7   4   33.83    1.51
   7  -7  -3   10.83    0.83
  -7  -7   3   12.21    0.82
   7   7  -3   12.28    0.84
  -7   7   3   12.10    0.94
   7  -7  -2    0.92    0.64
  -7  -7   2    0.22    0.52
   7   7  -2    1.17    0.57
  -7   7   2    1.15    0.73
   7  -7  -1    9.53    0.82
  -7  -7   1   10.86    0.71
   7   7  -1   10.53    0.78
  -7   7   1    9.09    0.88
   7  -7   0    0.52    0.71
  -7  -7   0    0.89    0.49
   7   7   0    1.35    0.54
  -7   7   0    1.37    0.73
   7  -7   1   36.37    1.64
  -7  -7  -1   34.50    1.43
   7   7   1   32.56    1.36
  -7   7  -1   36.41    1.60
   7  -7   2    7.48    0.83
  -7  -7  -2    6.99    0.69
   7   7   2    7.15    0.65
  -7   7  -2    8.63    0.82
   7  -7   3  131.40    4.56
  -7  -7  -3  141.60    4.83
   7   7   3  129.70    4.43
  -7   7  -3  133.00    4.63
   7  -7   4   42.08    1.71
  -7  -7  -4   42.87    1.67
   7   7   4   39.51    1.54
  -7   7  -4   44.50    1.85
   7  -7   5  102.40    3.60
  -7  -7  -5  105.30    3.62
   7   7   5  104.00    3.58
  -7   7  -5  102.10    3.64
   7  -7   6    0.66    0.57
   7   7   6    1.39    0.55
  -7   7  -6    2.11    0.71
   7  -7   7    4.49    0.67
   7   7   7    5.36    0.59
  -7   7  -7    5.54    0.74
   7  -7   8    1.72    0.62
   7   7   8    1.06    0.47
  -7   7  -8    1.70    0.66
   7  -7   9    0.53    0.65
   7   7   9    0.14    0.43
  -7   7  -9    0.39    0.69
   7  -7  10   18.86    1.09
   7   7  10   19.53    0.84
  -7   7 -10   19.19    1.12
   7  -7  11   47.68    1.84
  -7   7 -11   59.31    2.29
   7  -7  12    3.29    0.63
  -7   7 -12    3.43    0.76
   7  -7  13   -1.22    0.58
  -7   7 -13    1.81    0.65
   7  -7  14    3.60    0.67
  -7   7 -14    3.17    0.64
   7  -7  15   47.71    1.86
  -7   7 -15   47.39    1.90
   7  -7  16   10.26    0.81
  -7   7 -16    9.68    0.79
   7  -7  17   14.65    0.85
  -7   7 -17   13.09    0.84
   7  -7  18   -0.51    0.55
  -7   7 -18    0.89    0.56
   7  -7  19    6.90    0.69
  -7   7 -19    6.70    0.64
   7  -7  20    0.39    0.51
  -7   7 -20    0.53    0.54
   7  -7  21    4.55    0.56
  -7   7 -21    3.45    0.61
   7  -7  22    0.98    0.47
  -7   7 -22    1.17    0.50
  -7  -9  17   11.50    0.78
   7   9 -17   11.26    0.85
  -7   9  17   12.00    1.40
  -7  -9  16    0.30    0.62
   7   9 -16    1.23    0.63
  -7   9  16    0.24    1.20
  -7  -9  15   22.65    1.11
   7   9 -15   22.92    1.12
  -7   9  15   20.06    1.48
  -7  -9  14    1.86    0.66
   7   9 -14    1.72    0.62
  -7   9  14    1.01    1.02
  -7  -9  13   -0.04    0.65
   7   9 -13    0.11    0.67
  -7   9  13    1.76    0.98
  -7  -9  12   -0.12    0.67
   7   9 -12    0.48    0.66
  -7   9  12   -0.46    0.95
  -7  -9  11    1.10    0.71
   7   9 -11    1.35    0.70
  -7   9  11    1.21    0.94
  -7  -9  10   10.33    0.87
   7   9 -10   11.63    0.88
  -7   9  10    9.88    1.05
  -7  -9   9    3.61    0.71
   7   9  -9    4.32    0.72
  -7   9   9    2.75    0.88
   7  -9  -8    0.38    0.73
  -7  -9   8   -0.16    0.58
   7   9  -8    1.48    0.62
  -7   9   8    1.38    0.86
   7  -9  -7   -0.32    0.85
  -7  -9   7    1.15    0.64
   7   9  -7    0.50    0.66
  -7   9   7    0.25    0.80
   7  -9  -6    5.86    0.89
  -7  -9   6    7.53    0.77
   7   9  -6    6.81    0.81
  -7   9   6    6.61    0.91
   7  -9  -5    7.78    0.88
  -7  -9   5    7.71    0.81
   7   9  -5    8.27    0.79
  -7   9   5    7.15    0.88
   7  -9  -4    0.05    0.71
  -7  -9   4   -0.76    0.68
   7   9  -4    0.60    0.69
  -7   9   4   -0.24    0.75
   7  -9  -3   36.52    1.65
  -7  -9   3   34.93    1.51
   7   9  -3   32.82    1.47
  -7   9   3   35.19    1.59
   7  -9  -2   -0.01    0.76
  -7  -9   2    0.23    0.70
   7   9  -2    0.64    0.67
  -7   9   2    0.14    0.74
   7  -9  -1   17.54    1.09
  -7  -9   1   15.22    1.00
   7   9  -1   16.81    1.06
  -7   9   1   14.93    1.06
   7  -9   0    4.59    0.75
  -7  -9   0    5.19    0.85
   7   9   0    5.22    0.75
  -7   9   0    6.42    0.89
   7  -9   1    0.46    0.71
  -7  -9  -1    0.18    0.75
   7   9   1    0.56    0.71
  -7   9  -1    1.30    0.80
   7  -9   2   19.16    1.11
  -7  -9  -2   15.33    1.06
   7   9   2   16.95    1.04
  -7   9  -2   16.65    1.14
   7  -9   3   10.27    0.88
  -7  -9  -3   10.72    0.94
   7   9   3    8.62    0.88
  -7   9  -3   11.12    0.99
   7  -9   4   18.74    1.12
  -7  -9  -4   17.74    1.08
   7  -9   5    0.90    0.72
   7   9   5    0.10    0.87
  -7   9  -5    0.92    0.74
   7  -9   6    9.30    0.84
   7   9   6    8.79    1.05
  -7   9  -6    7.66    0.90
   7  -9   7    2.92    0.70
   7   9   7    2.58    0.87
  -7   9  -7    2.41    0.72
   7  -9   8    0.68    0.62
   7   9   8   -0.63    0.83
  -7   9  -8   -0.34    0.73
   7  -9   9   52.18    2.00
   7   9   9   57.34    2.17
  -7   9  -9   53.75    2.12
   7  -9  10    0.32    0.59
   7   9  10    0.13    0.57
  -7   9 -10   -0.68    0.63
   7  -9  11    5.00    0.67
  -7   9 -11    4.03    0.74
   7  -9  12    2.54    0.60
  -7   9 -12    3.51    0.66
   7  -9  13    3.23    0.59
  -7   9 -13    5.00    0.68
   7  -9  14    3.75    0.63
  -7   9 -14    4.55    0.68
   7  -9  15   -1.33    0.58
  -8   0  34    1.26    0.97
  -8   0  33   -0.11    0.83
  -8   0  32    1.13    0.91
  -8   0  31    1.24    0.83
  -8   0  30    3.20    0.88
  -8   0  29    0.50    0.73
  -8   0  28   69.40    2.63
  -8   0  27    0.54    0.74
  -8   0  26  237.80    8.00
  -8   0  25   -0.64    0.71
  -8   0  24  183.30    6.28
  -8   0  23    0.05    0.76
  -8   0  22    5.40    0.87
  -8   0  21   -0.16    0.64
  -8   0  20   43.56    1.80
  -8   0  19    0.36    0.65
  -8   0  18    1.40    0.65
  -8   0  17    0.22    0.58
  -8   0  16  132.70    4.57
  -8   0  15    0.76    0.58
  -8   0  14    5.85    0.70
  -8   0  13    0.05    0.57
  -8   0  12  846.30   27.58
  -8   0  11   -0.01    0.60
  -8   0  10   11.61    0.85
  -8   0   9   -0.34    0.61
  -8   0   2   47.20    1.78
   8   0  -1    0.72    0.53
  -8   0   1    0.07    0.56
   8   0   1    0.29    0.52
  -8   0  -1    0.23    0.49
   8   0   2    2.18    0.53
  -8   0  -2    2.35    0.51
   8   0   3    0.19    0.46
  -8   0  -3    0.76    0.51
   8   0   4   97.61    3.32
  -8   0  -4   96.58    3.30
   8   0   5    0.04    0.43
  -8   0  -5   -0.18    0.49
   8   0   6   -0.06    0.43
  -8   0  -6    0.81    0.44
   8   0   7    0.18    0.46
  -8   0  -7   -0.38    0.45
   8   0   8    0.78    0.47
  -8   0  -8   -0.01    0.47
   8   0   9    0.64    0.47
  -8   0  -9    0.40    0.49
   8   0  10   10.25    0.70
  -8   0 -10   11.13    0.71
   8   0  11   -0.09    0.48
  -8   0 -11   -0.44    0.52
   8   0  12  230.40    7.67
  -8   0 -12  220.30    7.33
   8   0  13   -0.48    0.52
  -8   0 -13   -0.26    0.49
   8   0  14  188.50    6.34
  -8   0 -14  192.20    6.47
   8   0  15    0.35    0.56
  -8   0 -15    0.41    0.56
   8   0  16  164.20    5.58
  -8   0 -16  165.90    5.64
   8   0  17    0.36    0.57
  -8   0 -17   -0.32    0.57
   8   0  18    4.12    0.70
  -8   0 -18    4.62    0.62
   8   0  19   -0.64    0.61
  -8   0 -19   -0.33    0.53
   8   0  20   22.20    1.18
  -8   0 -20   21.92    1.09
   8   0  21    0.02    0.70
  -8   0 -21    0.05    0.57
   8   0  22   61.64    2.35
  -8   0 -22   56.16    2.15
   8   0  23    0.11    0.67
  -8   0 -23    0.35    0.56
   8   0  24   58.44    2.28
   8   0  25    0.20    0.69
   8   0  26  102.90    3.67
   8   0  27    0.91    0.73
   8   0  28   34.61    1.55
   8   0  29   -0.53    0.75
   8   0  30    3.41    0.89
   8   0  31   -0.31    0.88
  -8  -2  33    0.80    0.81
  -8   2  33    2.16    1.04
  -8  -2  32   27.65    1.38
  -8   2  32   28.10    1.49
  -8  -2  31    0.02    0.81
  -8   2  31    0.29    0.91
  -8  -2  30    7.81    0.88
  -8   2  30    5.71    0.93
  -8  -2  29    2.29    0.77
  -8   2  29    3.16    0.90
  -8  -2  28    0.37    0.75
  -8   2  28   -0.48    0.81
  -8  -2  27    5.30    0.79
  -8   2  27   10.84    1.03
  -8  -2  26   -0.20    0.72
  -8   2  26    0.25    0.82
  -8  -2  25    6.08    0.86
  -8   2  25    5.65    0.88
  -8  -2  24    7.56    0.89
  -8   2  24    6.77    0.91
  -8  -2  23    8.39    0.91
  -8   2  23    8.97    0.92
  -8  -2  22    4.67    0.86
  -8   2  22    5.12    0.86
  -8  -2  21    3.73    0.82
   8   2 -21    2.84    0.65
  -8   2  21    4.34    0.88
  -8  -2  20    2.29    0.78
   8   2 -20    3.52    0.66
  -8   2  20    3.43    0.79
  -8  -2  19   48.66    1.95
   8   2 -19   52.03    2.04
  -8   2  19   48.01    1.93
  -8  -2  18  149.70    5.16
   8   2 -18  149.50    5.15
  -8   2  18  149.00    5.10
  -8  -2  17    0.12    0.68
   8   2 -17    0.37    0.65
  -8   2  17    0.16    0.57
  -8  -2  16   13.66    0.97
   8   2 -16   15.01    0.94
  -8   2  16   15.38    0.95
  -8  -2  15  157.10    5.39
   8   2 -15  148.40    5.08
  -8  -2  14   26.39    1.23
   8   2 -14   31.12    1.41
  -8  -2  13   29.97    1.32
   8   2 -13   32.94    1.44
  -8  -2  12   31.46    1.40
   8   2 -12   33.37    1.43
  -8  -2  11   87.23    3.11
   8   2 -11   81.20    2.91
  -8  -2  10   84.35    3.00
   8   2 -10   84.28    3.00
  -8   2  10   92.77    3.28
  -8  -2   9   20.99    1.06
   8   2  -9   23.30    1.12
  -8   2   9   23.75    1.18
  -8  -2   8  104.60    3.66
   8   2  -8  106.60    3.71
  -8   2   8  103.10    3.59
  -8  -2   7  199.60    6.68
   8   2  -7  189.60    6.35
  -8   2   7  196.00    6.57
  -8  -2   6  153.20    5.17
   8   2  -6  147.20    4.97
  -8   2   6  152.50    5.17
   8  -2  -5    2.93    0.63
  -8  -2   5    4.33    0.62
   8   2  -5    4.18    0.56
  -8   2   5    3.86    0.65
   8  -2  -4    1.67    0.62
  -8  -2   4    2.42    0.55
   8   2  -4    1.61    0.53
  -8   2   4    2.51    0.67
   8  -2  -3  157.00    5.30
  -8  -2   3  168.10    5.60
   8   2  -3  161.00    5.37
  -8   2   3  154.70    5.25
   8  -2  -2  119.80    4.12
  -8  -2   2  114.80    3.86
   8   2  -2  113.00    3.80
  -8   2   2  113.40    3.93
   8  -2  -1  169.30    5.71
  -8  -2   1  177.00    5.84
   8   2  -1  165.10    5.46
  -8   2   1  176.20    5.93
   8  -2   0    2.19    0.66
  -8  -2   0    1.94    0.32
   8   2   0    1.31    0.31
  -8   2   0    0.96    0.65
   8  -2   1  143.00    4.85
  -8  -2  -1  137.50    4.54
  -8   2  -1  133.90    4.58
   8  -2   2   57.74    2.16
  -8   2  -2   61.59    2.28
   8  -2   3  137.10    4.66
  -8   2  -3  131.90    4.51
   8  -2   4  249.00    8.28
  -8   2  -4  260.50    8.67
   8  -2   5   13.44    0.87
  -8   2  -5   14.31    0.89
   8  -2   6   21.86    1.07
  -8   2  -6   19.65    1.07
   8  -2   7   69.45    2.52
   8   2   7   73.61    2.48
  -8   2  -7   71.54    2.61
   8  -2   8  205.20    6.89
   8   2   8  202.70    6.69
  -8   2  -8  217.10    7.28
   8  -2   9    5.05    0.65
   8   2   9    4.48    0.37
  -8   2  -9    5.06    0.69
   8  -2  10   30.22    1.36
   8   2  10   30.97    1.16
  -8   2 -10   29.88    1.32
   8  -2  11  260.20    8.68
   8   2  11  269.80    8.87
  -8   2 -11  271.90    9.05
   8  -2  12   13.81    0.92
   8   2  12   14.86    0.72
  -8   2 -12   12.74    0.90
   8  -2  13  239.00    8.01
   8   2  13  252.30    8.34
  -8   2 -13  246.00    8.21
   8  -2  14   17.33    0.99
   8   2  14   15.30    0.79
  -8   2 -14   16.33    0.94
   8  -2  15   93.00    3.35
   8   2  15   90.63    3.15
  -8   2 -15   93.38    3.36
   8  -2  16    5.15    0.71
   8   2  16    3.95    0.56
  -8   2 -16    4.27    0.77
   8  -2  17   15.21    0.98
   8   2  17   13.14    0.82
  -8   2 -17   13.45    0.87
   8  -2  18   23.26    1.19
   8   2  18   23.93    1.12
  -8   2 -18   24.33    1.18
   8  -2  19   42.10    1.77
   8   2  19   37.60    1.55
  -8   2 -19   42.08    1.74
   8  -2  20  160.20    5.50
   8   2  20  165.00    5.58
  -8   2 -20  166.60    5.70
   8  -2  21    0.51    0.69
   8   2  21    0.73    0.62
  -8   2 -21    0.23    0.57
   8  -2  22   37.33    1.64
   8   2  22   37.93    1.60
  -8   2 -22   39.24    1.65
   8  -2  23    8.06    0.78
   8   2  23    6.89    0.75
  -8   2 -23    7.78    0.74
   8  -2  24    4.16    0.78
   8   2  24    3.23    0.69
  -8   2 -24    3.86    0.64
   8  -2  25   10.39    0.82
   8   2  25    8.35    0.83
  -8   2 -25    8.93    0.83
   8  -2  26   12.84    0.96
   8   2  26   12.27    0.97
  -8   2 -26   12.71    0.90
   8  -2  27   10.63    0.83
   8   2  27   14.10    1.00
  -8   2 -27   11.11    0.84
   8  -2  28    0.97    0.75
   8   2  28    1.31    0.80
  -8   2 -28    0.26    0.65
   8  -2  29   22.46    1.27
   8  -2  30   10.04    0.81
   8   2  30    8.10    1.10
  -8   2 -30    9.92    0.86
  -8  -4  31    7.84    0.83
  -8   4  31    8.42    1.16
  -8   4  31    7.41    1.41
  -8  -4  30    2.39    0.78
  -8   4  30    1.46    1.12
  -8   4  30    2.84    1.07
  -8  -4  29    0.97    0.71
  -8   4  29    0.74    0.91
  -8   4  29   -0.26    1.00
  -8  -4  28    0.52    0.68
   8   4 -28   -0.16    0.48
  -8   4  28   -0.28    0.92
  -8   4  28    0.35    0.86
  -8  -4  27    0.46    0.74
   8   4 -27    1.68    0.66
  -8   4  27   -0.01    0.88
  -8   4  27    2.23    0.86
  -8  -4  26    0.43    0.68
   8   4 -26    0.31    0.58
  -8   4  26   -0.37    0.78
  -8   4  26    1.22    0.84
  -8  -4  25   14.96    1.02
   8   4 -25   14.38    0.94
  -8   4  25   14.69    1.10
  -8   4  25   14.03    1.09
  -8  -4  24    1.82    0.70
   8   4 -24   -0.46    0.60
  -8   4  24    0.89    0.88
  -8   4  24   -0.18    0.82
  -8  -4  23    0.26    0.71
   8   4 -23   -0.22    0.59
  -8   4  23    0.37    0.90
  -8   4  23   -0.65    0.81
  -8  -4  22    1.57    0.72
   8   4 -22    1.55    0.69
  -8   4  22    1.71    0.82
  -8   4  22    1.55    0.81
  -8  -4  21   79.85    2.94
   8   4 -21   77.63    2.87
  -8   4  21   84.31    3.12
  -8   4  21   82.56    3.04
  -8  -4  20   11.37    0.94
   8   4 -20    9.01    0.83
  -8   4  20   10.38    1.05
  -8   4  20    7.27    0.90
  -8  -4  19  106.20    3.80
   8   4 -19  105.30    3.73
  -8   4  19  105.80    3.79
  -8   4  19  108.90    3.91
  -8  -4  18    1.68    0.72
   8   4 -18    0.30    0.57
  -8   4  18    0.24    0.78
  -8  -4  17   11.09    0.94
   8   4 -17    8.65    0.78
  -8   4  17   11.12    0.93
  -8  -4  16    1.03    0.69
   8   4 -16   -0.30    0.56
  -8   4  16    0.53    0.82
  -8  -4  15    0.48    0.71
   8   4 -15    1.62    0.69
  -8   4  15    0.95    0.73
  -8  -4  14   11.53    0.84
   8   4 -14   11.03    0.93
  -8   4  14    8.48    0.78
  -8  -4  13   44.79    1.80
   8   4 -13   42.58    1.78
  -8   4  13   39.50    1.67
  -8  -4  12    8.53    0.85
   8   4 -12   10.80    0.86
  -8   4  12    9.62    0.83
  -8  -4  11  108.70    3.83
   8   4 -11  110.50    3.89
  -8   4  11  113.00    3.93
  -8  -4  10   15.05    0.97
   8   4 -10   17.11    1.02
  -8   4  10   14.27    0.93
  -8  -4   9   42.76    1.78
   8   4  -9   47.01    1.90
  -8   4   9   47.08    1.86
  -8  -4   8  192.00    6.52
   8   4  -8  189.10    6.39
  -8   4   8  194.40    6.55
   8  -4  -7  166.70    5.66
  -8  -4   7  171.80    5.84
   8   4  -7  165.00    5.61
  -8   4   7  165.00    5.61
   8  -4  -6   48.56    1.92
  -8  -4   6   47.41    1.83
   8   4  -6   44.59    1.74
  -8   4   6   48.74    1.91
   8  -4  -5  217.80    7.32
  -8  -4   5  222.50    7.42
   8   4  -5  233.10    7.77
  -8   4   5  220.30    7.39
   8  -4  -4   24.39    1.20
  -8  -4   4   22.11    1.04
   8   4  -4   22.63    1.06
  -8   4   4   23.05    1.16
   8  -4  -3  153.00    5.22
  -8  -4   3  153.30    5.17
   8   4  -3  146.70    4.95
  -8   4   3  151.20    5.17
   8  -4  -2   64.30    2.40
  -8  -4   2   64.96    2.32
   8   4  -2   65.59    2.34
  -8   4   2   61.86    2.33
   8  -4  -1   17.45    1.02
  -8  -4   1   16.93    0.82
   8   4  -1   16.67    0.82
  -8   4   1   15.89    0.93
   8   4   0    1.74    0.42
  -8   4   0    1.49    0.65
   8  -4   1   85.64    3.10
  -8  -4  -1   89.04    3.03
   8   4   1   94.64    3.21
  -8   4  -1   95.04    3.38
   8  -4   2  127.90    4.45
  -8  -4  -2  127.40    4.26
   8   4   2  125.10    4.18
  -8   4  -2  121.80    4.23
   8  -4   3    9.67    0.84
  -8  -4  -3    9.89    0.53
   8   4   3    9.59    0.51
  -8   4  -3    8.52    0.82
   8  -4   4  336.40   11.15
  -8  -4  -4  334.10   10.97
   8   4   4  342.70   11.26
  -8   4  -4  347.80   11.53
   8  -4   5   50.54    1.99
   8   4   5   45.09    1.56
  -8   4  -5   46.20    1.87
   8  -4   6    1.59    0.61
   8   4   6    0.33    0.20
  -8   4  -6    0.54    0.66
   8  -4   7  336.10   11.13
  -8   4  -7  328.20   10.89
   8  -4   8    3.77    0.68
  -8   4  -8    4.41    0.70
   8  -4   9   74.45    2.76
  -8   4  -9   77.37    2.85
   8  -4  10    4.03    0.79
  -8   4 -10    3.33    0.69
   8  -4  11    0.94    0.66
  -8   4 -11   -0.04    0.70
   8  -4  12    8.55    0.80
  -8   4 -12    7.19    0.79
   8  -4  13    4.54    0.67
  -8   4 -13    5.70    0.72
   8  -4  14    0.68    0.55
   8   4  14    0.20    0.31
   8   4  14    0.88    0.31
  -8   4 -14    0.42    0.63
   8  -4  15   34.19    1.50
   8   4  15   34.73    1.29
   8   4  15   35.88    1.31
  -8   4 -15   34.11    1.49
   8  -4  16   44.96    1.85
   8   4  16   40.41    1.47
   8   4  16   42.23    1.52
  -8   4 -16   40.87    1.69
   8  -4  17   47.47    1.88
   8   4  17   51.01    1.82
   8   4  17   49.25    1.78
  -8   4 -17   50.94    2.00
   8  -4  18    1.09    0.58
   8   4  18    1.01    0.44
   8   4  18    0.86    0.42
  -8   4 -18    1.33    0.61
   8  -4  19   58.81    2.25
   8   4  19   63.87    2.26
   8   4  19   61.72    2.20
  -8   4 -19   62.33    2.34
   8  -4  20    1.96    0.61
   8   4  20    1.31    0.50
   8   4  20    1.16    0.54
  -8   4 -20    1.28    0.58
   8  -4  21   20.85    1.06
   8   4  21   22.11    1.01
   8   4  21   19.38    0.98
  -8   4 -21   21.85    1.09
   8  -4  22   10.73    0.80
   8   4  22   11.15    0.78
   8   4  22    9.55    0.77
  -8   4 -22   12.09    0.79
   8  -4  23    4.95    0.66
   8   4  23    5.34    0.76
   8   4  23    6.79    0.70
  -8   4 -23    5.23    0.62
   8  -4  24    9.14    0.79
   8   4  24    9.92    0.87
   8   4  24    9.33    0.94
  -8   4 -24   10.39    0.74
   8  -4  25    2.61    0.67
   8   4  25    1.68    0.75
   8   4  25    2.32    1.00
  -8   4 -25    3.40    0.67
   8  -4  26    0.86    0.60
   8   4  26    1.72    0.84
   8   4  26    2.53    1.16
  -8   4 -26    0.68    0.56
   8  -4  27    8.20    0.79
   8   4  27   10.05    1.16
   8   4  27    7.06    1.53
  -8   4 -27    8.69    0.71
   8  -4  28    8.52    0.72
   8   4  28    7.79    1.60
   8   4  28    8.50    1.19
  -8   4 -28    8.11    0.67
  -8  -6  28   10.07    0.82
  -8   6  28    6.05    1.30
  -8   6  28    6.74    1.75
  -8  -6  27    2.93    0.65
   8   6 -27    3.04    0.58
  -8   6  27    4.91    1.42
  -8   6  27    3.45    1.11
  -8  -6  26    4.55    0.63
   8   6 -26    5.85    0.63
  -8   6  26    4.51    1.10
  -8   6  26    6.14    1.36
  -8  -6  25   14.61    0.91
   8   6 -25   13.33    0.83
  -8   6  25   12.87    1.38
  -8   6  25   12.35    1.18
  -8  -6  24    1.01    0.61
   8   6 -24    1.09    0.63
  -8   6  24    2.02    0.98
  -8   6  24    2.43    1.23
  -8  -6  23   19.85    1.10
   8   6 -23   17.74    0.98
  -8   6  23   20.68    1.38
  -8   6  23   19.75    1.25
  -8  -6  22   10.07    0.80
   8   6 -22   10.16    0.78
  -8   6  22    7.09    1.07
  -8   6  22    9.51    1.00
  -8  -6  21    2.28    0.77
   8   6 -21    2.92    0.62
  -8   6  21    2.64    0.95
  -8   6  21    2.70    0.89
  -8  -6  20   12.26    0.91
   8   6 -20   13.23    0.89
  -8   6  20   14.59    1.12
  -8  -6  19    1.23    0.70
   8   6 -19   -0.20    0.57
  -8   6  19    0.37    0.84
  -8  -6  18    4.33    0.77
   8   6 -18    4.24    0.68
  -8   6  18    3.47    0.85
  -8  -6  17    3.42    0.78
   8   6 -17    4.23    0.73
  -8   6  17    2.50    0.81
  -8  -6  16    9.77    0.86
   8   6 -16    8.84    0.82
  -8   6  16    9.32    0.96
  -8  -6  15    6.16    0.75
   8   6 -15    6.93    0.74
  -8   6  15    7.52    0.86
  -8  -6  14    0.41    0.62
   8   6 -14   -0.32    0.62
  -8   6  14   -0.25    0.80
  -8  -6  13   52.56    2.06
   8   6 -13   50.95    2.02
  -8   6  13   51.10    2.07
  -8  -6  12  108.90    3.86
   8   6 -12  116.50    4.11
  -8   6  12  117.80    4.13
  -8  -6  11   78.13    2.88
   8   6 -11   76.32    2.82
  -8   6  11   73.24    2.72
  -8  -6  10   30.20    1.41
   8   6 -10   30.77    1.40
  -8   6  10   31.15    1.46
  -8  -6   9   25.68    1.33
   8   6  -9   27.30    1.27
  -8   6   9   28.11    1.36
   8  -6  -8   14.36    0.90
  -8  -6   8   15.34    1.00
   8   6  -8   16.55    0.96
  -8   6   8   15.90    1.03
   8  -6  -7    5.88    0.77
  -8  -6   7    4.03    0.69
   8   6  -7    4.42    0.61
  -8   6   7    4.29    0.76
   8  -6  -6   20.86    1.14
  -8  -6   6   22.63    1.11
   8   6  -6   21.84    1.07
  -8   6   6   22.37    1.18
   8  -6  -5   95.60    3.44
  -8  -6   5   99.06    3.47
   8   6  -5   92.29    3.27
  -8   6   5   97.67    3.47
   8  -6  -4   32.15    1.51
  -8  -6   4   31.67    1.32
   8   6  -4   31.72    1.37
  -8   6   4   33.01    1.47
   8  -6  -3   21.19    1.19
  -8  -6   3   19.05    0.96
   8   6  -3   18.92    0.98
  -8   6   3   19.16    1.11
   8  -6  -2  139.40    4.80
  -8  -6   2  127.50    4.36
   8   6  -2  130.80    4.49
  -8   6   2  134.90    4.68
   8  -6  -1    1.34    0.64
  -8  -6   1    0.86    0.59
   8   6  -1    2.19    0.55
  -8   6   1    2.27    0.77
   8  -6   0  249.70    8.34
  -8  -6   0  258.50    8.62
   8   6   0  248.00    8.24
  -8   6   0  248.40    8.33
   8  -6   1   66.00    2.49
  -8  -6  -1   60.41    2.25
   8   6   1   58.15    2.12
  -8   6  -1   58.74    2.26
   8  -6   2    3.36    0.75
  -8  -6  -2    3.71    0.61
   8   6   2    4.04    0.50
  -8   6  -2    3.86    0.69
   8  -6   3    9.58    0.90
  -8  -6  -3    7.24    0.64
   8   6   3    7.18    0.55
  -8   6  -3    7.79    0.79
   8  -6   4   11.88    0.89
  -8  -6  -4   11.82    0.70
   8   6   4   13.72    0.74
  -8   6  -4   12.35    0.94
   8  -6   5   51.27    2.03
  -8  -6  -5   55.19    1.95
   8   6   5   55.10    1.98
  -8   6  -5   50.27    2.04
   8  -6   6  178.20    6.06
   8   6   6  191.30    6.35
  -8   6  -6  200.30    6.80
   8  -6   7    6.53    0.72
   8   6   7    7.07    0.49
  -8   6  -7    9.18    0.87
   8  -6   8   44.36    1.75
   8   6   8   42.28    1.51
  -8   6  -8   43.37    1.79
   8  -6   9   38.96    1.61
   8   6   9   45.29    1.59
  -8   6  -9   40.98    1.72
   8  -6  10    7.59    0.77
  -8   6 -10    9.57    0.88
   8  -6  11    8.68    0.79
  -8   6 -11    7.41    0.87
   8  -6  12   36.37    1.58
  -8   6 -12   33.52    1.54
   8  -6  13   93.93    3.34
  -8   6 -13   98.76    3.55
   8  -6  14    1.83    0.62
  -8   6 -14    0.55    0.57
   8  -6  15    8.69    0.76
  -8   6 -15   10.92    0.82
   8  -6  16    1.27    0.59
  -8   6 -16    0.90    0.58
   8  -6  17    4.09    0.58
  -8   6 -17    3.45    0.67
   8  -6  18    3.78    0.62
  -8   6 -18    4.77    0.68
   8  -6  19    9.72    0.77
  -8   6 -19    7.94    0.70
   8  -6  20   13.29    0.82
  -8   6 -20   15.35    0.88
   8  -6  21    0.21    0.55
  -8   6 -21    0.39    0.53
   8  -6  22    5.02    0.65
  -8   6 -22    4.33    0.59
   8  -6  23    0.88    0.52
  -8   6 -23    0.23    0.52
   8  -6  24    5.67    0.59
  -8   6 -24    5.08    0.66
   8  -6  25    2.66    0.66
  -8  -8  22    4.78    0.56
   8   8 -22    2.75    0.63
  -8   8  22    3.26    1.39
  -8   8  22    3.11    1.46
  -8  -8  21    0.46    0.55
   8   8 -21    0.94    0.54
  -8   8  21    1.94    1.20
  -8  -8  20    3.72    0.63
   8   8 -20    4.76    0.61
  -8   8  20    2.73    1.06
  -8  -8  19    0.90    0.63
   8   8 -19    0.53    0.57
  -8   8  19    0.62    1.06
  -8  -8  18    5.51    0.64
   8   8 -18    6.18    0.72
  -8   8  18    3.93    1.00
  -8  -8  17    4.12    0.67
   8   8 -17    5.40    0.72
  -8   8  17    3.77    1.00
  -8  -8  16    8.29    0.75
   8   8 -16    8.02    0.79
  -8   8  16    6.68    0.99
  -8  -8  15   14.71    0.95
   8   8 -15   14.31    0.91
  -8   8  15   15.69    1.13
  -8  -8  14   59.38    2.26
   8   8 -14   57.74    2.21
  -8   8  14   62.95    2.44
  -8  -8  13   25.22    1.24
   8   8 -13   26.63    1.27
  -8   8  13   25.72    1.33
  -8  -8  12   -0.31    0.64
   8   8 -12    0.50    0.58
  -8   8  12    1.77    0.81
  -8  -8  11    4.32    0.69
   8   8 -11    3.25    0.70
  -8   8  11    4.08    0.80
  -8  -8  10   70.08    2.57
   8   8 -10   72.03    2.66
  -8   8  10   71.25    2.65
  -8  -8   9   11.82    0.87
   8   8  -9   10.09    0.85
  -8   8   9   10.75    0.91
   8  -8  -8   24.15    1.31
  -8  -8   8   23.64    1.18
   8   8  -8   19.21    1.03
  -8   8   8   20.39    1.16
   8  -8  -7    0.13    0.70
  -8  -8   7    0.92    0.64
   8   8  -7    0.56    0.57
  -8   8   7   -0.51    0.64
   8  -8  -6   54.15    2.14
  -8  -8   6   51.72    2.02
   8   8  -6   53.37    2.04
  -8   8   6   50.44    2.03
   8  -8  -5   15.42    1.01
  -8  -8   5   14.94    0.94
   8   8  -5   15.50    0.95
  -8   8   5   17.59    1.04
   8  -8  -4    2.20    0.73
  -8  -8   4    3.31    0.60
   8   8  -4    3.83    0.65
  -8   8   4    2.43    0.77
   8  -8  -3    3.70    0.78
  -8  -8   3    4.64    0.62
   8   8  -3    5.15    0.69
  -8   8   3    4.53    0.78
   8  -8  -2    8.33    0.85
  -8  -8   2    7.46    0.73
   8   8  -2    6.92    0.71
  -8   8   2    6.67    0.84
   8  -8  -1    6.26    0.84
  -8  -8   1    3.98    0.66
   8   8  -1    4.33    0.64
  -8   8   1    5.29    0.80
   8  -8   0  112.10    3.96
  -8  -8   0  119.90    4.16
   8   8   0  121.90    4.20
  -8   8   0  113.50    3.99
   8  -8   1   34.08    1.48
  -8  -8  -1   32.68    1.43
   8   8   1   33.52    1.42
  -8   8  -1   34.25    1.54
   8  -8   2   45.63    1.85
  -8  -8  -2   49.39    1.88
   8   8   2   46.09    1.77
  -8   8  -2   48.93    1.97
   8  -8   3    0.17    0.68
  -8  -8  -3    0.52    0.62
   8   8   3   -0.21    0.52
  -8   8  -3    0.18    0.72
   8  -8   4    8.62    0.83
  -8  -8  -4    7.44    0.71
   8   8   4    6.92    0.63
  -8   8  -4    7.20    0.87
   8  -8   5    1.25    0.65
  -8  -8  -5    1.09    0.66
   8   8   5    1.00    0.61
  -8   8  -5    1.74    0.67
   8  -8   6   15.38    0.99
   8   8   6   14.37    0.86
  -8   8  -6   15.10    1.07
   8  -8   7   57.86    2.19
   8   8   7   59.98    2.18
  -8   8  -7   59.91    2.32
   8  -8   8   47.92    1.87
   8   8   8   46.56    1.74
  -8   8  -8   41.23    1.75
   8  -8   9   10.46    0.84
   8   8   9   10.64    0.65
  -8   8  -9   10.40    0.86
   8  -8  10   52.63    2.03
  -8   8 -10   50.07    2.01
   8  -8  11   23.82    1.14
  -8   8 -11   25.83    1.28
   8  -8  12   20.26    1.07
  -8   8 -12   19.07    1.04
   8  -8  13   11.73    0.81
  -8   8 -13    9.48    0.84
   8  -8  14   14.42    0.83
  -8   8 -14   12.71    0.89
   8  -8  15    1.75    0.55
  -8   8 -15    2.24    0.64
   8  -8  16   19.52    0.95
  -8   8 -16   20.41    1.04
   8  -8  17    0.12    0.57
  -8   8 -17    0.21    0.56
   8  -8  18   -0.13    0.47
  -8   8 -18   -0.27    0.53
   8  -8  19    0.29    0.50
  -8   8 -19    1.49    0.56
  -8 -10  10   25.64    1.37
  -8 -10   9   19.00    1.12
   8  10  -9   17.51    1.07
  -8  10   9   17.06    1.30
  -8 -10   8    1.96    0.73
   8  10  -8    2.05    0.85
  -8  10   8    1.69    0.92
   8 -10  -7    0.76    0.88
  -8 -10   7    3.16    0.81
   8  10  -7    0.83    0.76
  -8  10   7    0.11    0.90
   8 -10  -6   17.08    1.24
  -8 -10   6   19.11    1.17
   8  10  -6   19.12    1.19
  -8  10   6   19.61    1.26
   8 -10  -5   16.95    1.15
  -8 -10   5   19.34    1.13
   8  10  -5   16.02    1.14
  -8  10   5   14.13    1.08
   8 -10  -4   27.25    1.43
  -8 -10   4   27.47    1.36
   8  10  -4   25.46    1.36
  -8  10   4   24.00    1.32
   8 -10  -3    2.00    0.84
  -8 -10   3    2.16    0.84
   8  10  -3    3.74    0.89
  -8  10   3    3.96    0.87
   8 -10  -2   -1.62    0.90
  -8 -10   2   -0.33    0.89
   8  10  -2   -0.63    0.90
  -8  10   2   -0.13    0.94
   8 -10  -1   27.45    1.36
  -8 -10   1   25.10    1.42
   8  10  -1   27.87    1.45
  -8  10   1   28.65    1.51
   8 -10   0    1.23    0.79
  -8 -10   0    1.91    0.99
   8  10   0    0.17    0.91
  -8  10   0    0.83    0.92
   8 -10   1    4.53    0.81
  -8 -10  -1    3.59    1.06
   8  10   1    2.63    0.99
  -8  10  -1    2.95    0.94
   8 -10   2    0.78    0.74
  -8 -10  -2   -0.11    0.98
   8  10   2   -0.08    0.95
  -8  10  -2    0.41    0.85
   8 -10   3    0.69    0.75
  -8 -10  -3   -0.04    1.07
   8  10   3   -0.65    0.95
  -8  10  -3    0.27    0.86
   8 -10   4    2.38    0.73
   8  10   4    0.62    1.20
  -8  10  -4    1.71    0.75
   8 -10   5    4.51    0.81
   8  10   5    6.75    1.38
  -8  10  -5    4.36    0.87
   8 -10   6    7.25    0.79
   8  10   6    7.37    1.42
  -8  10  -6    5.75    0.89
   8 -10   7   29.67    1.48
  -9  -1  34    3.78    1.04
  -9   1  34    3.23    1.19
  -9  -1  33    5.30    0.88
  -9   1  33    4.71    0.98
  -9  -1  32   10.84    1.06
  -9   1  32   10.97    1.00
  -9  -1  31    2.13    0.89
  -9   1  31    1.28    0.92
  -9  -1  30    8.01    0.87
  -9   1  30    6.97    0.94
  -9  -1  29   21.19    1.22
  -9   1  29   23.64    1.27
  -9  -1  28    0.42    0.79
  -9   1  28   -0.08    0.80
  -9  -1  27   32.98    1.57
  -9   1  27   29.39    1.48
  -9  -1  26   23.38    1.29
  -9   1  26   22.74    1.27
  -9  -1  25    1.92    0.79
  -9   1  25    4.20    0.83
  -9  -1  24   -0.20    0.74
  -9   1  24   -0.17    0.75
  -9  -1  23   47.51    1.98
  -9   1  23   49.37    2.05
  -9  -1  22   13.57    1.05
  -9   1  22   12.01    1.06
  -9  -1  21   59.16    2.34
  -9   1  21   59.49    2.37
  -9  -1  20  128.70    4.50
  -9   1  20  133.40    4.64
  -9  -1  19   67.34    2.54
  -9   1  19   64.97    2.46
  -9  -1  18    0.46    0.67
  -9   1  18    1.37    0.67
  -9  -1  17  107.00    3.78
  -9   1  17  106.60    3.73
  -9  -1  16   75.09    2.75
  -9   1  16   66.29    2.46
  -9  -1  15   94.49    3.34
  -9   1  15   96.03    3.39
  -9  -1  14   62.15    2.33
  -9   1  14   58.98    2.22
  -9  -1  13   86.09    3.10
  -9   1  13   86.90    3.08
  -9  -1  12   40.26    1.65
  -9  -1  11   47.21    1.84
  -9  -1  10    0.05    0.63
  -9  -1   9  113.10    3.92
  -9  -1   8    4.35    0.67
  -9  -1   7   -0.67    0.57
  -9  -1   6    2.40    0.63
  -9  -1   5    7.56    0.73
  -9   1   5    8.54    0.81
  -9  -1   4   64.87    2.35
  -9   1   4   66.24    2.43
   9  -1  -3  176.10    5.92
  -9   1   3  168.60    5.70
   9  -1  -2  194.50    6.51
  -9   1   2  195.90    6.57
   9  -1  -1  119.80    4.12
  -9   1   1  119.60    4.12
   9  -1   0   15.40    0.96
  -9  -1   0   14.00    0.66
  -9   1   0   13.90    0.92
   9  -1   1   74.65    2.67
  -9  -1  -1   66.82    2.27
  -9   1  -1   71.66    2.59
   9  -1   2   93.55    3.28
  -9  -1  -2   89.50    2.99
   9   1   2  100.40    3.34
  -9   1  -2   97.04    3.39
   9  -1   3   13.83    0.81
  -9  -1  -3   12.18    0.54
   9   1   3   12.49    0.55
  -9   1  -3   12.04    0.84
   9  -1   4   33.35    1.36
  -9  -1  -4   32.95    1.18
   9   1   4   32.37    1.16
  -9   1  -4   31.64    1.34
   9  -1   5    0.20    0.49
  -9  -1  -5    0.20    0.29
   9   1   5    0.24    0.30
  -9   1  -5   -0.30    0.55
   9  -1   6   60.20    2.20
  -9  -1  -6   62.28    2.14
   9   1   6   62.67    2.15
  -9   1  -6   59.07    2.16
   9  -1   7   26.70    1.19
  -9  -1  -7   29.28    1.12
   9   1   7   28.96    1.10
  -9   1  -7   25.90    1.17
   9  -1   8    2.94    0.60
  -9  -1  -8    2.68    0.42
   9   1   8    2.83    0.43
  -9   1  -8    1.98    0.51
   9  -1   9   30.50    1.29
  -9  -1  -9   34.18    1.30
   9   1   9   34.20    1.31
  -9   1  -9   33.82    1.39
   9  -1  10  272.40    9.04
  -9  -1 -10  282.70    9.31
   9   1  10  283.70    9.34
  -9   1 -10  297.40    9.85
   9  -1  11  122.30    4.21
  -9  -1 -11  118.40    4.00
   9   1  11  118.70    4.03
  -9   1 -11  126.40    4.34
   9  -1  12   27.34    1.23
  -9  -1 -12   27.76    1.15
   9   1  12   26.22    1.11
  -9   1 -12   28.06    1.26
   9  -1  13   18.75    1.03
  -9  -1 -13   21.85    1.00
   9   1  13   18.08    0.92
  -9   1 -13   19.74    0.99
   9  -1  14    5.92    0.71
  -9  -1 -14    6.62    0.61
   9   1  14    6.43    0.61
  -9   1 -14    6.91    0.65
   9  -1  15    0.10    0.62
  -9  -1 -15    0.78    0.55
   9   1  15    0.10    0.49
  -9   1 -15    0.35    0.62
   9  -1  16  152.30    5.21
  -9  -1 -16  153.00    5.20
   9   1  16  155.40    5.28
  -9   1 -16  157.20    5.37
   9  -1  17    4.66    0.73
  -9  -1 -17    5.72    0.60
   9   1  17    6.94    0.67
  -9   1 -17    5.85    0.66
   9  -1  18    9.71    0.86
  -9  -1 -18   11.52    0.74
   9   1  18   10.55    0.78
  -9   1 -18    8.72    0.75
   9  -1  19    0.74    0.59
   9   1  19    0.01    0.60
  -9   1 -19    0.10    0.59
   9  -1  20   17.03    1.01
   9   1  20   16.02    0.94
  -9   1 -20   15.85    0.95
   9  -1  21   29.79    1.42
   9   1  21   31.42    1.37
  -9   1 -21   31.62    1.41
   9  -1  22   94.74    3.41
   9   1  22   89.47    3.21
  -9   1 -22   92.13    3.29
   9  -1  23   58.57    2.31
   9   1  23   61.62    2.35
  -9   1 -23   60.53    2.31
   9  -1  24    4.86    0.79
   9   1  24    4.41    0.71
  -9   1 -24    4.55    0.71
   9  -1  25   27.17    1.33
   9   1  25   23.21    1.18
  -9   1 -25   26.09    1.23
   9  -1  26   13.00    0.91
   9   1  26   13.06    0.98
  -9   1 -26   12.39    0.86
   9  -1  27    3.21    0.81
   9   1  27    4.80    0.85
  -9   1 -27    4.67    0.77
   9  -1  28    8.02    0.88
   9   1  28    8.10    0.94
  -9   1 -28    8.10    0.76
   9  -1  29    4.29    0.82
   9   1  29    5.26    0.86
   9  -1  30    4.58    0.74
   9   1  30    5.27    0.84
  -9  -3  32    7.55    0.78
  -9   3  32    7.17    1.10
  -9  -3  31    1.45    0.71
  -9   3  31    3.49    0.98
  -9  -3  30   46.94    1.93
  -9   3  30   48.43    2.03
  -9  -3  29    0.34    0.80
  -9   3  29   -0.01    0.85
  -9  -3  28   17.40    1.07
  -9   3  28   19.61    1.24
  -9  -3  27   -1.02    0.69
  -9   3  27    0.88    0.80
  -9  -3  26   37.36    1.62
  -9   3  26   38.28    1.69
  -9  -3  25    0.11    0.74
  -9   3  25    0.62    0.83
  -9  -3  24    1.42    0.76
   9   3 -24    2.68    0.65
  -9   3  24    1.62    0.86
  -9  -3  23   64.95    2.49
   9   3 -23   55.79    2.19
  -9   3  23   57.39    2.31
  -9  -3  22   58.60    2.32
   9   3 -22   58.45    2.28
  -9   3  22   59.73    2.34
  -9  -3  21   -0.04    0.75
   9   3 -21    0.55    0.63
  -9   3  21   -0.53    0.81
  -9  -3  20  206.40    7.03
   9   3 -20  186.50    6.36
  -9   3  20  198.70    6.75
  -9  -3  19    5.36    0.84
   9   3 -19    6.51    0.73
  -9   3  19    6.64    0.85
  -9  -3  18   19.02    1.12
   9   3 -18   16.85    0.99
  -9   3  18   19.19    1.17
  -9   3  18   17.45    1.08
  -9  -3  17   10.89    0.89
   9   3 -17   13.25    0.94
  -9   3  17    9.97    0.90
  -9  -3  16   77.87    2.86
  -9  -3  15    9.00    0.86
   9   3 -15   10.52    0.84
  -9   3  15    8.78    0.81
  -9  -3  14    0.64    0.65
   9   3 -14    0.39    0.67
  -9   3  14    1.25    0.61
  -9  -3  13   24.71    1.22
   9   3 -13   24.98    1.23
  -9   3  13   24.07    1.18
  -9  -3  12   12.15    0.89
   9   3 -12   14.87    0.96
  -9   3  12   12.84    0.88
  -9  -3  11   60.16    2.30
   9   3 -11   57.91    2.19
  -9   3  11   61.29    2.33
  -9  -3  10  299.90    9.96
   9   3 -10  313.80   10.40
  -9   3  10  309.30   10.25
  -9  -3   9    0.31    0.52
   9   3  -9    0.23    0.61
  -9   3   9    0.75    0.59
  -9  -3   8   82.47    2.91
   9   3  -8   80.33    2.87
  -9   3   8   80.66    2.89
  -9  -3   7   92.65    3.25
   9   3  -7   93.51    3.28
  -9   3   7   90.80    3.20
   9  -3  -6   26.21    1.22
  -9  -3   6   26.36    1.16
   9   3  -6   26.57    1.19
  -9   3   6   25.22    1.18
   9  -3  -5   19.03    1.02
  -9  -3   5   18.52    0.93
   9   3  -5   19.62    0.98
  -9   3   5   19.17    1.02
   9  -3  -4   96.80    3.42
  -9  -3   4  107.40    3.68
   9   3  -4   98.36    3.40
  -9   3   4  100.50    3.53
   9  -3  -3   36.93    1.56
  -9  -3   3   34.73    1.39
   9   3  -3   35.65    1.39
  -9   3   3   33.72    1.46
   9  -3  -2   82.60    2.96
  -9  -3   2   80.08    2.80
   9   3  -2   83.38    2.87
  -9   3   2   84.03    3.00
   9  -3  -1   61.38    2.28
  -9  -3   1   60.23    2.14
   9   3  -1   56.21    1.99
  -9   3   1   54.61    2.07
   9  -3   0    0.03    0.62
  -9  -3   0    0.47    0.36
   9   3   0    0.54    0.34
  -9   3   0   -0.18    0.57
   9  -3   1  202.20    6.76
  -9  -3  -1  201.90    6.64
   9   3   1  194.10    6.39
  -9   3  -1  201.40    6.76
   9  -3   2   27.78    1.26
  -9  -3  -2   27.18    0.98
   9   3   2   26.26    0.95
  -9   3  -2   29.23    1.34
   9  -3   3  145.50    4.98
  -9  -3  -3  152.70    5.37
  -9   3  -3  147.10    5.04
   9  -3   4  198.50    6.70
  -9   3  -4  192.30    6.49
   9  -3   5   57.07    2.19
  -9   3  -5   62.25    2.34
   9  -3   6  241.20    8.08
  -9   3  -6  231.20    7.74
   9  -3   7   22.53    1.12
  -9   3  -7   21.44    1.13
   9  -3   8    1.39    0.63
  -9   3  -8    0.93    0.64
   9  -3   9   10.73    0.79
  -9   3  -9    9.54    0.84
   9  -3  10    3.29    0.72
  -9   3 -10    3.08    0.70
   9  -3  11   28.53    1.32
   9   3  11   26.70    0.97
   9   3  11   26.30    0.96
  -9   3 -11   25.07    1.23
   9  -3  12   39.40    1.65
   9   3  12   33.57    1.22
   9   3  12   36.54    1.30
  -9   3 -12   39.40    1.68
   9  -3  13   21.51    1.14
   9   3  13   19.34    0.79
   9   3  13   21.62    0.87
  -9   3 -13   22.25    1.19
   9  -3  14   -0.14    0.66
   9   3  14    0.16    0.37
  -9   3 -14    0.37    0.62
   9  -3  15   14.31    0.94
   9   3  15   14.36    0.74
  -9   3 -15   13.84    0.89
   9  -3  16  151.60    5.23
   9  -3  17   36.89    1.59
   9   3  17   37.72    1.46
  -9   3 -17   35.77    1.56
   9  -3  18   15.50    0.92
   9   3  18   17.71    0.88
  -9   3 -18   17.41    1.00
   9  -3  19   55.73    2.16
   9   3  19   59.99    2.18
  -9   3 -19   58.49    2.24
   9  -3  20   17.06    1.00
   9   3  20   16.60    0.90
  -9   3 -20   16.85    0.98
   9  -3  21    1.76    0.62
   9   3  21    1.16    0.61
  -9   3 -21    1.57    0.60
   9  -3  22   -0.40    0.67
   9   3  22    0.20    0.61
  -9   3 -22   -0.07    0.53
   9  -3  23    8.36    0.80
   9   3  23    8.87    0.75
  -9   3 -23    9.32    0.76
   9  -3  24   15.36    0.93
   9   3  24   13.77    0.90
  -9   3 -24   15.40    0.97
   9  -3  25    2.34    0.62
   9   3  25    2.87    0.70
  -9   3 -25    3.13    0.66
   9  -3  26    0.41    0.66
   9   3  26    0.09    0.77
  -9   3 -26    0.22    0.61
   9  -3  27    3.64    0.69
   9   3  27    4.82    0.84
  -9   3 -27    2.96    0.67
   9  -3  28   10.38    0.91
   9   3  28    9.23    1.00
  -9   3 -28    8.60    0.74
   9  -3  29   27.74    1.27
   9   3  29   28.29    1.53
  -9   3 -29   29.17    1.30
  -9  -5  30   12.19    0.95
  -9   5  30    9.10    1.58
  -9   5  30   11.85    1.31
  -9  -5  29    0.66    0.59
   9   5 -29    1.98    0.51
  -9   5  29    1.73    1.00
  -9   5  29    1.67    1.20
  -9  -5  28    0.26    0.60
   9   5 -28    0.67    0.60
  -9   5  28    0.78    0.95
  -9   5  28    0.22    1.08
  -9  -5  27    1.26    0.63
   9   5 -27    1.79    0.57
  -9   5  27    2.53    1.07
  -9   5  27    3.10    1.00
  -9  -5  26    8.31    0.82
   9   5 -26    8.70    0.77
  -9   5  26    8.68    1.21
  -9   5  26    8.57    0.99
  -9  -5  25    3.62    0.69
   9   5 -25    2.92    0.65
  -9   5  25    3.65    1.03
  -9   5  25    3.01    0.90
  -9  -5  24   10.89    0.92
   9   5 -24   10.81    0.81
  -9   5  24    8.91    1.03
  -9   5  24   10.26    0.99
  -9  -5  23   84.02    3.07
   9   5 -23   79.29    2.88
  -9   5  23   88.77    3.22
  -9   5  23   85.72    3.17
  -9  -5  22   34.41    1.49
   9   5 -22   33.24    1.47
  -9   5  22   33.45    1.61
  -9   5  22   34.07    1.56
  -9  -5  21   10.58    0.90
   9   5 -21    9.10    0.82
  -9   5  21    8.79    0.97
  -9   5  21    8.55    0.95
  -9  -5  20    3.13    0.84
   9   5 -20    3.65    0.69
  -9   5  20    3.33    0.86
  -9  -5  19    0.91    0.72
   9   5 -19    0.78    0.64
  -9   5  19    0.79    0.81
  -9  -5  18   16.21    1.05
   9   5 -18   13.98    0.94
  -9   5  18   14.29    1.09
  -9  -5  17    2.21    0.73
   9   5 -17    2.61    0.62
  -9   5  17    3.25    0.82
  -9  -5  16   22.01    1.24
   9   5 -16   22.54    1.15
  -9   5  16   21.58    1.21
  -9  -5  15   22.05    1.24
   9   5 -15   18.28    1.04
  -9   5  15   20.07    1.19
  -9  -5  14  129.30    4.55
   9   5 -14  129.70    4.52
  -9   5  14  129.30    4.50
  -9  -5  13    0.21    0.70
   9   5 -13    0.25    0.58
  -9   5  13    0.66    0.79
  -9  -5  12   28.16    1.32
   9   5 -12   32.64    1.48
  -9   5  12   30.98    1.47
  -9  -5  11   97.51    3.43
   9   5 -11  101.20    3.61
  -9   5  11   99.26    3.54
  -9  -5  10   47.29    1.88
   9   5 -10   49.55    1.98
  -9   5  10   46.75    1.88
  -9  -5   9   33.43    1.43
   9   5  -9   32.75    1.44
  -9   5   9   32.33    1.45
   9   5  -8   26.88    1.27
  -9   5   8   23.59    1.16
   9  -5  -7   61.85    2.30
  -9  -5   7   65.54    2.43
   9   5  -7   64.92    2.43
  -9   5   7   62.52    2.36
   9  -5  -6   -0.25    0.55
  -9  -5   6    0.33    0.62
   9   5  -6   -0.23    0.57
  -9   5   6    0.76    0.66
   9  -5  -5    2.61    0.60
  -9  -5   5    2.05    0.66
   9   5  -5    2.64    0.61
  -9   5   5    1.52    0.59
   9  -5  -4   31.33    1.36
  -9  -5   4   32.13    1.42
   9   5  -4   30.90    1.34
  -9   5   4   31.58    1.43
   9  -5  -3    0.98    0.61
  -9  -5   3    1.32    0.54
   9   5  -3    1.21    0.52
  -9   5   3    1.16    0.67
   9  -5  -2   86.91    3.15
  -9  -5   2   84.19    2.95
   9   5  -2   86.93    3.04
  -9   5   2   83.78    3.04
   9  -5  -1    1.39    0.66
  -9  -5   1    0.92    0.50
   9   5  -1    0.13    0.48
  -9   5   1   -0.14    0.60
   9  -5   0   55.35    2.17
  -9  -5   0   52.08    1.91
   9   5   0   50.06    1.84
  -9   5   0   50.03    1.97
   9  -5   1   62.92    2.39
  -9  -5  -1   65.02    2.30
   9   5   1   65.44    2.31
  -9   5  -1   64.66    2.45
   9  -5   2   17.17    1.05
  -9  -5  -2   16.30    0.77
   9   5   2   16.82    0.78
  -9   5  -2   16.86    1.02
   9  -5   3  133.50    4.61
  -9  -5  -3  132.60    4.42
   9   5   3  138.20    4.62
  -9   5  -3  134.80    4.68
   9  -5   4    5.57    0.77
  -9  -5  -4    4.22    0.37
   9   5   4    5.45    0.41
  -9   5  -4    6.68    0.81
   9  -5   5   30.42    1.43
   9   5   5   27.10    1.01
  -9   5  -5   30.50    1.41
   9  -5   6    0.32    0.75
   9   5   6   -0.01    0.26
  -9   5  -6   -0.71    0.71
   9  -5   7    3.62    0.76
   9   5   7    3.32    0.21
  -9   5  -7    2.48    0.68
   9  -5   8    9.87    0.94
  -9   5  -8    9.54    0.83
   9  -5   9    9.03    0.74
  -9   5  -9   10.01    0.86
   9  -5  10  124.70    4.31
  -9   5 -10  131.80    4.59
   9  -5  11    7.89    0.74
  -9   5 -11    8.46    0.81
   9  -5  12   28.25    1.35
  -9   5 -12   27.78    1.33
   9  -5  13   21.48    1.14
  -9   5 -13   20.83    1.13
   9  -5  14   26.47    1.28
  -9   5 -14   28.21    1.33
   9  -5  15    2.11    0.66
  -9   5 -15    1.83    0.62
   9  -5  16    1.13    0.60
  -9   5 -16    1.15    0.59
   9  -5  17   20.54    1.11
  -9   5 -17   20.88    1.08
   9  -5  18   50.56    1.96
  -9   5 -18   39.68    1.63
   9  -5  19   40.58    1.63
  -9   5 -19   43.90    1.74
   9  -5  20    4.11    0.65
  -9   5 -20    5.21    0.65
   9  -5  21    2.72    0.59
  -9   5 -21    2.83    0.59
   9  -5  22   22.86    1.14
  -9   5 -22   23.36    1.10
   9  -5  23    1.40    0.59
  -9   5 -23    0.84    0.54
   9  -5  24    1.97    0.59
  -9   5 -24    2.36    0.55
   9  -5  25    0.78    0.56
  -9   5 -25    2.04    0.56
   9  -5  26    6.31    0.70
  -9   5 -26    5.26    0.70
  -9  -7  25    1.57    0.61
   9   7 -25    0.69    0.54
  -9   7  25    0.16    1.12
  -9   7  25   -0.67    1.31
  -9  -7  24    6.27    0.74
   9   7 -24    6.27    0.67
  -9   7  24    5.57    1.20
  -9   7  24    5.47    1.20
  -9  -7  23    2.27    0.69
   9   7 -23    0.49    0.55
  -9   7  23    1.38    1.11
  -9   7  23    1.89    1.16
  -9  -7  22    2.99    0.69
   9   7 -22    3.88    0.63
  -9   7  22    2.91    1.02
  -9   7  22    3.94    1.02
  -9  -7  21    2.42    0.70
   9   7 -21    0.95    0.60
  -9   7  21    0.71    0.99
  -9  -7  20   -1.10    0.72
   9   7 -20   -0.17    0.57
  -9   7  20    1.71    0.93
  -9  -7  19   31.70    1.42
   9   7 -19   30.04    1.37
  -9   7  19   32.56    1.59
  -9  -7  18    1.84    0.63
   9   7 -18    1.86    0.68
  -9   7  18    0.62    0.87
  -9  -7  17   98.87    3.51
   9   7 -17   97.44    3.48
  -9   7  17   97.59    3.50
  -9  -7  16   -0.08    0.64
   9   7 -16    0.99    0.68
  -9   7  16    0.73    0.81
  -9  -7  15   63.57    2.43
   9   7 -15   69.11    2.58
  -9   7  15   65.93    2.50
  -9  -7  14    3.37    0.67
   9   7 -14    4.01    0.73
  -9   7  14    3.44    0.82
  -9  -7  13    8.17    0.72
   9   7 -13    6.84    0.73
  -9   7  13    6.72    0.83
  -9  -7  12    5.50    0.66
   9   7 -12    3.65    0.65
  -9   7  12    4.28    0.79
  -9  -7  11    2.43    0.60
   9   7 -11    1.53    0.59
  -9   7  11    2.69    0.75
  -9  -7  10   18.58    1.03
   9   7 -10   17.93    1.01
  -9   7  10   19.64    1.15
   9  -7  -9   59.29    2.30
  -9  -7   9   58.44    2.25
   9   7  -9   55.99    2.18
  -9   7   9   59.57    2.31
   9  -7  -8    0.43    0.72
  -9  -7   8    0.38    0.64
   9   7  -8    0.06    0.59
  -9   7   8    0.29    0.74
   9  -7  -7    0.51    0.70
  -9  -7   7    0.21    0.63
   9   7  -7    0.27    0.62
  -9   7   7   -0.01    0.70
   9  -7  -6    2.01    0.75
  -9  -7   6    0.64    0.61
   9   7  -6    0.69    0.53
  -9   7   6    0.09    0.64
   9  -7  -5   32.28    1.46
  -9  -7   5   31.96    1.40
   9   7  -5   31.54    1.38
  -9   7   5   33.46    1.50
   9  -7  -4   14.77    0.96
  -9  -7   4   13.76    0.83
   9   7  -4   12.90    0.87
  -9   7   4   15.90    1.07
   9  -7  -3  141.90    4.93
  -9  -7   3  132.60    4.52
   9   7  -3  133.30    4.59
  -9   7   3  128.30    4.48
   9  -7  -2    3.44    0.79
  -9  -7   2    3.75    0.56
   9   7  -2    4.36    0.64
  -9   7   2    3.80    0.81
   9  -7  -1   83.05    3.10
  -9  -7   1   79.61    2.82
   9   7  -1   74.87    2.70
  -9   7   1   81.19    3.00
   9  -7   0    7.08    0.86
  -9  -7   0    7.93    0.67
   9   7   0    6.62    0.63
  -9   7   0    9.25    0.91
   9  -7   1    4.62    0.78
  -9  -7  -1    4.44    0.63
   9   7   1    5.21    0.59
  -9   7  -1    6.28    0.86
   9  -7   2   31.75    1.40
  -9  -7  -2   28.46    1.24
   9   7   2   28.79    1.22
  -9   7  -2   32.78    1.50
   9  -7   3   12.72    0.85
  -9  -7  -3   12.17    0.75
   9   7   3   12.87    0.73
  -9   7  -3   12.81    0.93
   9  -7   4    8.67    0.75
  -9  -7  -4    8.74    0.63
   9   7   4    8.58    0.67
  -9   7  -4    7.52    0.80
   9  -7   5   69.13    2.60
  -9  -7  -5   67.34    2.36
   9   7   5   73.28    2.57
  -9   7  -5   70.85    2.67
   9  -7   6    4.27    0.73
   9   7   6    5.00    0.53
  -9   7  -6    4.65    0.79
   9  -7   7   -0.20    0.58
   9   7   7    0.65    0.40
  -9   7  -7    0.20    0.70
   9  -7   8   17.84    1.03
   9   7   8   17.06    0.72
  -9   7  -8   15.55    0.99
   9  -7   9   38.97    1.62
  -9   7  -9   56.15    2.18
   9  -7  10   -0.52    0.57
  -9   7 -10    0.30    0.64
   9  -7  11   45.48    1.83
  -9   7 -11   41.96    1.77
   9  -7  12    4.83    0.70
  -9   7 -12    5.26    0.73
   9  -7  13   24.88    1.16
  -9   7 -13   24.01    1.22
   9  -7  14    2.07    0.56
  -9   7 -14    1.20    0.65
   9  -7  15    9.48    0.79
  -9   7 -15    8.43    0.77
   9  -7  16    7.83    0.67
  -9   7 -16    8.16    0.76
   9  -7  17    9.33    0.72
  -9   7 -17    9.61    0.81
   9  -7  18    0.00    0.52
  -9   7 -18    0.29    0.55
   9  -7  19    1.13    0.58
  -9   7 -19    0.69    0.54
   9  -7  20    3.54    0.59
  -9   7 -20    3.42    0.60
   9  -7  21    0.36    0.51
  -9   7 -21    0.62    0.53
   9  -7  22    2.51    0.60
  -9   7 -22    1.39    0.59
  -9  -9  17    0.33    0.63
   9   9 -17    1.42    0.73
  -9   9  17    0.94    1.09
  -9  -9  16    0.97    0.63
   9   9 -16    0.96    0.69
  -9   9  16    1.85    1.10
  -9  -9  15    6.73    0.66
   9   9 -15    6.96    0.76
  -9   9  15    7.89    1.15
  -9  -9  14    1.10    0.58
   9   9 -14    2.16    0.67
  -9   9  14    1.62    1.10
  -9  -9  13    6.89    0.74
   9   9 -13    7.05    0.75
  -9   9  13    5.68    1.08
  -9  -9  12    1.34    0.71
   9   9 -12    1.94    0.71
  -9   9  12    0.99    1.01
  -9  -9  11    7.72    0.84
   9   9 -11    6.15    0.81
  -9   9  11    6.48    1.06
  -9  -9  10    4.59    0.77
   9   9 -10    4.22    0.73
  -9   9  10    3.98    0.93
  -9  -9   9    8.07    0.83
   9   9  -9    6.71    0.79
  -9   9   9    6.82    0.95
   9  -9  -8    1.81    0.74
  -9  -9   8    2.85    0.68
   9   9  -8    2.05    0.73
  -9   9   8    2.36    0.86
   9  -9  -7   31.13    1.45
  -9  -9   7   31.68    1.42
   9   9  -7   34.90    1.52
  -9   9   7   30.51    1.50
   9  -9  -6    4.17    0.87
  -9  -9   6    5.29    0.73
   9   9  -6    4.53    0.76
  -9   9   6    5.82    0.89
   9  -9  -5    1.82    0.80
  -9  -9   5   -0.39    0.66
   9   9  -5    0.56    0.63
  -9   9   5   -0.15    0.70
   9  -9  -4   14.24    1.09
  -9  -9   4   15.28    0.96
   9   9  -4   14.22    0.95
  -9   9   4   12.77    1.01
   9  -9  -3   19.40    1.19
  -9  -9   3   16.66    1.06
   9   9  -3   19.88    1.09
  -9   9   3   17.12    1.11
   9  -9  -2   30.21    1.44
  -9  -9   2   29.67    1.43
   9   9  -2   30.12    1.39
  -9   9   2   31.82    1.47
   9  -9  -1    2.54    0.77
  -9  -9   1    3.29    0.77
   9   9  -1    2.87    0.74
  -9   9   1    1.55    0.80
   9  -9   0    3.30    0.76
  -9  -9   0    3.82    0.75
   9   9   0    3.89    0.76
  -9   9   0    3.42    0.85
   9  -9   1   13.13    0.99
  -9  -9  -1   13.46    0.99
   9   9   1   11.12    0.89
  -9   9  -1   14.50    1.01
   9  -9   2   -0.23    0.67
  -9  -9  -2   -0.74    0.80
   9   9   2    0.06    0.64
  -9   9  -2   -0.40    0.75
   9  -9   3   46.50    1.90
  -9  -9  -3   48.11    1.93
   9   9   3   49.04    1.96
  -9   9  -3   45.82    1.89
   9  -9   4    0.30    0.75
  -9  -9  -4    1.04    0.78
   9   9   4    0.79    0.82
  -9   9  -4    0.06    0.68
   9  -9   5   27.90    1.37
   9   9   5   28.95    1.42
  -9   9  -5   28.50    1.43
   9  -9   6    9.09    0.87
   9   9   6    8.93    0.91
  -9   9  -6    9.66    0.89
   9  -9   7   14.73    0.95
   9   9   7   15.32    0.96
  -9   9  -7   14.39    1.01
   9  -9   8    8.44    0.77
   9   9   8    8.46    0.63
  -9   9  -8    7.64    0.80
   9  -9   9   11.53    0.85
  -9   9  -9   13.83    0.92
   9  -9  10    7.29    0.77
  -9   9 -10    9.43    0.87
   9  -9  11   15.10    0.94
  -9   9 -11   16.10    0.96
   9  -9  12    3.63    0.63
  -9   9 -12    5.01    0.73
   9  -9  13   -0.30    0.57
  -9   9 -13    0.92    0.59
   9  -9  14    2.46    0.54
  -9   9 -14    2.94    0.71
 -10   0  34   34.43    1.60
 -10   0  33    1.64    0.93
 -10   0  32   74.17    2.77
 -10   0  31    0.77    0.88
 -10   0  30   37.17    1.64
 -10   0  29    0.43    0.80
 -10   0  28    0.54    0.79
 -10   0  27    0.70    0.82
 -10   0  26   13.00    1.02
 -10   0  25    1.69    0.75
 -10   0  24   90.16    3.30
 -10   0  23   -0.70    0.76
 -10   0  22   34.36    1.63
 -10   0  21    0.10    0.71
 -10   0  20   54.56    2.14
 -10   0  19   -0.31    0.58
 -10   0  18    8.45    0.81
 -10   0  17    0.76    0.64
 -10   0  16   19.89    1.08
 -10   0  15   -0.02    0.61
 -10   0  14  228.50    7.65
 -10   0  13    0.13    0.60
 -10   0  12  296.80    9.82
 -10   0  11   -0.56    0.56
 -10   0  10    2.97    0.65
 -10   0   3    0.95    0.66
 -10   0   2  746.10   24.30
  10   0  -1    0.88    0.62
 -10   0   1    1.33    0.58
  10   0   1   -0.15    0.50
 -10   0  -1   -0.16    0.50
  10   0   2  319.70   10.50
 -10   0  -2  295.60    9.72
  10   0   3    0.64    0.45
 -10   0  -3    0.14    0.46
  10   0   4    1.53    0.50
 -10   0  -4    0.89    0.46
  10   0   5    0.16    0.47
 -10   0  -5    0.98    0.45
  10   0   6  354.30   11.62
 -10   0  -6  347.40   11.40
  10   0   7   -0.34    0.45
 -10   0  -7   -0.41    0.43
  10   0   8  119.40    4.07
 -10   0  -8  118.80    4.04
  10   0   9    0.25    0.47
 -10   0  -9   -0.42    0.51
  10   0  10  207.50    6.91
 -10   0 -10  211.60    7.05
  10   0  11    0.44    0.49
 -10   0 -11    0.53    0.50
  10   0  12   11.57    0.75
 -10   0 -12   10.34    0.70
  10   0  13   -0.38    0.53
 -10   0 -13    0.23    0.48
  10   0  14    2.27    0.59
 -10   0 -14    2.28    0.58
  10   0  15    0.20    0.55
 -10   0 -15    0.22    0.54
  10   0  16   72.84    2.68
 -10   0 -16   74.06    2.69
  10   0  17   -0.21    0.58
 -10   0 -17   -0.82    0.50
  10   0  18   59.06    2.25
 -10   0 -18   59.99    2.23
  10   0  19    0.78    0.63
 -10   0 -19    0.84    0.51
  10   0  20  205.20    6.91
 -10   0 -20  206.00    6.92
  10   0  21   -0.54    0.64
 -10   0 -21   -0.16    0.55
  10   0  22  105.70    3.73
 -10   0 -22  101.90    3.58
  10   0  23   -0.22    0.66
 -10   0 -23    0.43    0.58
  10   0  24    2.08    0.76
 -10   0 -24    2.32    0.65
  10   0  25   -0.10    0.67
  10   0  26   10.50    0.91
  10   0  27   -0.74    0.70
  10   0  28    0.32    0.81
  10   0  29    0.17    0.79
  10   0  30    3.20    0.80
 -10  -2  33    0.70    0.83
 -10   2  33    0.39    0.90
 -10  -2  32    1.29    0.80
 -10   2  32    0.89    0.93
 -10  -2  31    4.46    0.89
 -10   2  31    4.34    0.91
 -10  -2  30    1.97    0.81
 -10   2  30    2.64    0.85
 -10  -2  29    0.58    0.80
 -10   2  29    0.24    0.77
 -10  -2  28    0.71    0.77
 -10   2  28    0.97    0.77
 -10  -2  27    2.84    0.80
 -10   2  27    3.21    0.84
 -10  -2  26   23.62    1.31
 -10   2  26   27.16    1.36
 -10  -2  25   18.18    1.14
 -10   2  25   17.69    1.16
 -10  -2  24   26.91    1.38
 -10   2  24   29.79    1.47
 -10  -2  23    1.21    0.80
 -10   2  23    1.18    0.82
 -10  -2  22    1.61    0.77
 -10   2  22    2.41    0.86
 -10  -2  21   13.43    1.00
 -10   2  21   15.22    1.08
 -10  -2  20   22.11    1.23
 -10   2  20   20.64    1.22
 -10  -2  19   19.40    1.13
 -10   2  19   19.46    1.09
 -10  -2  18   18.81    1.11
  10   2 -18   19.51    1.09
 -10   2  18   15.95    0.99
 -10  -2  17    6.03    0.75
  10   2 -17    6.79    0.75
 -10   2  17    4.74    0.69
 -10  -2  16    2.01    0.63
  10   2 -16    1.96    0.66
 -10  -2  15    0.73    0.65
  10   2 -15    1.28    0.60
 -10  -2  14  190.40    6.42
  10   2 -14  199.60    6.75
 -10  -2  13   91.78    3.27
  10   2 -13   92.06    3.29
 -10  -2  12    0.30    0.65
  10   2 -12    0.55    0.62
 -10  -2  11   14.05    0.92
  10   2 -11   15.16    0.93
 -10   2  11   17.75    0.99
 -10  -2  10  206.30    6.93
 -10  -2   9    0.99    0.66
  10   2  -9    2.09    0.64
 -10   2   9    0.62    0.65
 -10  -2   8   11.64    0.85
  10   2  -8   12.03    0.81
 -10   2   8   11.57    0.84
 -10  -2   7   64.09    2.35
  10   2  -7   61.00    2.26
 -10   2   7   62.38    2.34
 -10  -2   6    1.13    0.55
  10   2  -6    1.56    0.53
 -10   2   6    1.08    0.62
  10  -2  -5   39.98    1.63
 -10  -2   5   39.36    1.52
  10   2  -5   41.76    1.60
 -10   2   5   39.74    1.61
  10  -2  -4   78.24    2.81
 -10  -2   4   72.25    2.54
  10   2  -4   78.11    2.74
 -10   2   4   73.34    2.67
  10  -2  -3   40.39    1.65
 -10  -2   3   40.91    1.52
 -10   2   3   37.40    1.55
  10  -2  -2  247.30    8.23
 -10  -2   2  254.20    8.35
 -10   2   2  257.20    8.54
  10  -2  -1    0.65    0.61
 -10  -2   1    1.78    0.34
 -10   2   1    0.98    0.66
  10  -2   0   14.66    0.95
 -10  -2   0   12.53    0.56
 -10   2   0   14.21    0.87
  10  -2   1    2.50    0.62
 -10  -2  -1    2.54    0.26
 -10   2  -1    2.26    0.59
  10  -2   2  307.80   10.18
 -10   2  -2  318.40   10.53
  10  -2   3  112.40    3.91
 -10   2  -3  118.00    4.10
  10  -2   4    4.83    0.67
 -10   2  -4    4.54    0.65
  10  -2   5   48.60    1.87
 -10   2  -5   47.27    1.86
  10  -2   6    3.27    0.59
 -10   2  -6    1.61    0.64
  10  -2   7  201.50    6.77
  10   2   7  201.60    6.79
 -10   2  -7  193.10    6.50
  10  -2   8    3.22    0.64
  10   2   8    3.28    0.29
 -10   2  -8    3.43    0.65
  10  -2   9  280.00    9.31
  10   2   9  298.80    9.82
 -10   2  -9  275.20    9.16
  10  -2  10   73.50    2.68
  10   2  10   77.28    2.63
 -10   2 -10   77.12    2.80
  10  -2  11    5.27    0.65
  10   2  11    5.11    0.43
 -10   2 -11    5.97    0.73
  10  -2  12   20.90    1.06
  10   2  12   22.05    0.92
 -10   2 -12   20.75    1.10
  10  -2  13    4.90    0.66
  10   2  13    5.05    0.50
 -10   2 -13    6.31    0.67
  10  -2  14  433.60   14.30
  10   2  14  453.50   14.86
 -10   2 -14  437.60   14.42
  10  -2  15   -0.49    0.68
  10   2  15    0.67    0.46
 -10   2 -15    0.41    0.63
  10  -2  16   40.40    1.71
  10   2  16   41.98    1.60
 -10   2 -16   42.77    1.75
  10  -2  17    1.44    0.61
  10   2  17    1.62    0.49
 -10   2 -17    1.34    0.55
  10  -2  18    4.99    0.69
  10   2  18    4.84    0.60
 -10   2 -18    6.10    0.73
  10  -2  19   54.66    2.12
  10   2  19   55.21    2.08
 -10   2 -19   51.87    2.03
  10  -2  20    7.88    0.76
  10   2  20    8.52    0.70
 -10   2 -20    7.09    0.75
  10  -2  21   16.30    0.97
  10   2  21   16.94    0.94
 -10   2 -21   15.84    0.93
  10  -2  22    0.26    0.66
  10   2  22    0.47    0.60
 -10   2 -22   -0.07    0.57
  10  -2  23   38.27    1.63
  10   2  23   35.73    1.51
 -10   2 -23   38.49    1.61
  10  -2  24   32.46    1.44
  10   2  24   32.61    1.41
 -10   2 -24   32.64    1.45
  10  -2  25    0.77    0.68
  10   2  25   -0.27    0.69
 -10   2 -25    0.07    0.63
  10  -2  26   51.14    2.01
  10   2  26   49.29    2.00
 -10   2 -26   52.01    2.00
  10  -2  27    2.51    0.74
  10   2  27    2.30    0.80
 -10   2 -27    1.74    0.71
  10  -2  28   23.46    1.20
  10   2  28   24.18    1.35
 -10   2 -28   24.24    1.18
  10  -2  29    1.02    0.70
  10   2  29    0.93    0.93
 -10   2 -29    1.19    0.64
 -10  -4  31    4.79    0.73
 -10   4  31    3.21    1.13
 -10   4  31    2.60    1.07
 -10  -4  30    6.31    0.80
 -10   4  30    4.81    1.25
 -10   4  30    7.30    1.07
 -10  -4  29    1.32    0.72
 -10   4  29    1.34    0.91
 -10   4  29   -0.49    1.09
 -10  -4  28   10.40    0.94
 -10   4  28    9.40    1.13
 -10   4  28   10.94    1.06
 -10  -4  27   60.96    2.31
 -10   4  27   70.75    2.75
 -10   4  27   69.59    2.66
 -10  -4  26    3.69    0.81
  10   4 -26    2.04    0.63
 -10   4  26    2.39    0.91
 -10   4  26    2.75    0.98
 -10  -4  25   33.11    1.47
  10   4 -25   36.19    1.55
 -10   4  25   33.86    1.59
 -10   4  25   32.65    1.65
 -10  -4  24   -0.08    0.75
  10   4 -24   -0.55    0.61
 -10   4  24    0.12    0.80
 -10   4  24   -0.24    0.86
 -10  -4  23   37.46    1.66
  10   4 -23   36.98    1.59
 -10   4  23   34.99    1.62
 -10   4  23   38.70    1.76
 -10  -4  22    1.28    0.68
  10   4 -22   -0.32    0.63
 -10   4  22   -0.31    0.80
 -10   4  22   -0.74    0.78
 -10  -4  21    7.07    0.84
  10   4 -21    7.96    0.80
 -10   4  21    9.03    0.97
 -10   4  21    7.45    1.03
 -10  -4  20   34.98    1.59
  10   4 -20   37.32    1.62
 -10   4  20   40.77    1.80
 -10   4  20   38.09    1.71
 -10  -4  19   65.27    2.55
  10   4 -19   67.01    2.53
 -10   4  19   66.87    2.57
 -10  -4  18    9.84    0.91
  10   4 -18    9.45    0.80
 -10   4  18    8.32    0.97
 -10  -4  17   12.94    0.96
  10   4 -17   12.01    0.87
 -10   4  17   12.54    1.02
 -10  -4  16   27.94    1.34
  10   4 -16   30.00    1.37
 -10   4  16   29.27    1.44
 -10  -4  15   41.15    1.72
  10   4 -15   41.47    1.74
 -10   4  15   40.09    1.73
 -10  -4  14   87.64    3.18
  10   4 -14   87.97    3.19
 -10   4  14   89.32    3.23
 -10  -4  13   40.46    1.70
  10   4 -13   39.75    1.67
 -10   4  13   37.78    1.63
 -10  -4  12    0.24    0.70
  10   4 -12    1.63    0.66
 -10   4  12    0.27    0.65
 -10  -4  11  365.30   12.11
  10   4 -11  355.20   11.75
 -10   4  11  369.30   12.20
 -10  -4  10   40.20    1.68
  10   4 -10   39.41    1.63
 -10   4  10   37.98    1.61
 -10  -4   9    9.44    0.77
  10   4  -9    9.94    0.81
 -10   4   9   10.05    0.83
  10  -4  -8   29.02    1.34
 -10  -4   8   32.50    1.40
  10   4  -8   26.78    1.25
 -10   4   8   30.97    1.38
  10  -4  -7   46.77    1.89
 -10  -4   7   48.22    1.86
  10   4  -7   48.30    1.87
 -10   4   7   47.51    1.89
  10  -4  -6    1.02    0.67
 -10  -4   6    1.01    0.50
  10   4  -6    1.63    0.54
 -10   4   6    1.28    0.62
  10  -4  -5   35.22    1.58
 -10  -4   5   34.79    1.40
  10   4  -5   35.70    1.44
 -10   4   5   36.58    1.57
  10  -4  -4   50.35    1.98
 -10  -4   4   51.59    1.94
  10   4  -4   49.26    1.84
 -10   4   4   49.27    1.95
  10  -4  -3    0.13    0.67
 -10  -4   3    1.38    0.49
  10   4  -3    1.79    0.47
 -10   4   3    1.37    0.62
  10  -4  -2   15.61    0.97
 -10  -4   2   14.94    0.77
  10   4  -2   15.14    0.77
 -10   4   2   15.80    1.00
  10  -4  -1  275.50    9.18
 -10  -4   1  283.50    9.33
  10   4  -1  265.20    8.74
 -10   4   1  282.80    9.41
  10  -4   0    8.75    0.81
 -10  -4   0    9.81    0.59
  10   4   0    7.57    0.51
 -10   4   0    7.83    0.74
  10  -4   1  203.10    6.86
 -10  -4  -1  206.30    6.82
  10   4   1  193.30    6.39
 -10   4  -1  205.40    6.93
  10  -4   2   13.87    0.96
 -10  -4  -2   13.24    0.61
  10   4   2   12.96    0.59
 -10   4  -2   12.79    0.94
  10  -4   3   79.74    2.89
 -10  -4  -3   79.95    2.69
  10   4   3   75.97    2.56
 -10   4  -3   81.73    2.98
  10  -4   4   83.09    3.01
  10   4   4   83.99    2.90
 -10   4  -4   86.62    3.14
  10  -4   5    4.24    0.68
 -10   4  -5    5.21    0.74
  10  -4   6    1.90    0.64
 -10   4  -6    0.50    0.67
  10  -4   7    5.60    0.74
 -10   4  -7    4.85    0.69
  10  -4   8   69.69    2.63
 -10   4  -8   70.61    2.64
  10  -4   9    6.83    0.79
 -10   4  -9    6.31    0.80
  10  -4  10    0.41    0.71
 -10   4 -10    0.24    0.64
  10  -4  11   92.17    3.33
 -10   4 -11   96.17    3.48
  10  -4  12   21.59    1.11
 -10   4 -12   23.48    1.20
  10  -4  13   47.78    1.93
 -10   4 -13   45.52    1.88
  10  -4  14   16.49    0.98
 -10   4 -14   16.82    1.03
  10  -4  15   31.11    1.40
 -10   4 -15   34.68    1.50
  10  -4  16    8.91    0.73
 -10   4 -16    8.97    0.77
  10  -4  17   20.24    1.08
 -10   4 -17   21.34    1.09
  10  -4  18   16.11    0.96
  10   4  18   13.59    0.63
  10   4  18   15.20    0.67
 -10   4 -18   12.64    0.83
  10  -4  19    0.41    0.54
  10   4  19    1.08    0.43
  10   4  19    0.20    0.38
 -10   4 -19    0.42    0.53
  10  -4  20   33.88    1.43
  10   4  20   35.03    1.32
 -10   4 -20   32.25    1.39
  10  -4  21   35.58    1.50
  10   4  21   32.00    1.29
 -10   4 -21   34.47    1.46
  10  -4  22    3.19    0.62
  10   4  22    2.66    0.55
  10   4  22    1.54    0.61
 -10   4 -22    2.13    0.55
  10  -4  23    0.67    0.57
  10   4  23    2.24    0.68
  10   4  23    1.63    0.62
 -10   4 -23    2.21    0.58
  10  -4  24    8.80    0.77
  10   4  24    8.83    0.95
  10   4  24   11.51    0.85
 -10   4 -24    9.72    0.75
  10  -4  25    2.68    0.66
  10   4  25    2.52    0.71
  10   4  25    1.61    0.95
 -10   4 -25    2.36    0.63
  10  -4  26    0.88    0.61
  10   4  26    1.09    0.83
  10   4  26   -0.06    0.98
 -10   4 -26    0.05    0.55
  10  -4  27   61.64    2.31
  10   4  27   63.13    2.66
  10   4  27   62.08    2.37
 -10   4 -27   60.81    2.23
 -10  -6  28    2.29    0.60
  10   6 -28    1.36    0.58
 -10   6  28    1.61    1.49
 -10   6  28    1.86    1.15
 -10  -6  27   13.13    0.86
  10   6 -27   10.81    0.74
 -10   6  27   10.73    1.12
 -10   6  27   12.03    1.48
 -10  -6  26    2.30    0.66
  10   6 -26    2.83    0.59
 -10   6  26    3.48    1.02
 -10   6  26    4.83    1.17
 -10  -6  25    2.24    0.63
  10   6 -25    2.44    0.67
 -10   6  25    1.29    1.01
 -10   6  25    2.81    1.16
 -10  -6  24    7.08    0.80
  10   6 -24    5.87    0.71
 -10   6  24    7.22    1.06
 -10   6  24    7.55    1.23
 -10  -6  23   10.57    0.80
  10   6 -23   13.07    0.86
 -10   6  23   12.09    1.12
 -10   6  23   11.72    1.22
 -10  -6  22    0.71    0.69
  10   6 -22    0.31    0.58
 -10   6  22    0.69    0.89
 -10   6  22   -0.10    0.96
 -10  -6  21    7.98    0.81
  10   6 -21    8.00    0.76
 -10   6  21    9.17    1.00
 -10  -6  20   12.91    0.91
  10   6 -20   11.89    0.87
 -10   6  20   14.21    1.10
 -10  -6  19   27.39    1.35
  10   6 -19   28.48    1.33
 -10   6  19   26.12    1.34
 -10  -6  18    0.89    0.70
  10   6 -18    1.88    0.67
 -10   6  18    0.75    0.77
 -10  -6  17  136.70    4.75
  10   6 -17  142.90    4.94
 -10   6  17  152.40    5.24
 -10  -6  16    6.91    0.78
  10   6 -16    8.26    0.80
 -10   6  16    7.57    0.94
 -10  -6  15    0.13    0.69
  10   6 -15   -0.16    0.64
 -10   6  15    0.04    0.78
 -10  -6  14   47.08    1.88
  10   6 -14   46.44    1.89
 -10   6  14   44.94    1.88
 -10  -6  13   10.57    0.92
  10   6 -13   11.25    0.88
 -10   6  13   10.11    0.89
 -10  -6  12   37.01    1.67
  10   6 -12   38.16    1.63
 -10   6  12   38.33    1.67
 -10  -6  11   54.23    2.15
  10   6 -11   54.01    2.11
 -10   6  11   61.66    2.36
 -10  -6  10    0.88    0.69
  10   6 -10    0.18    0.57
 -10   6  10    0.96    0.72
  10  -6  -9   -0.58    0.62
 -10  -6   9    0.04    0.59
  10   6  -9    0.45    0.59
 -10   6   9    0.07    0.67
  10  -6  -8  155.60    5.37
 -10  -6   8  150.90    5.15
  10   6  -8  149.50    5.15
 -10   6   8  152.90    5.26
  10  -6  -7   97.98    3.53
 -10  -6   7   96.87    3.41
  10   6  -7   99.34    3.52
 -10   6   7  101.60    3.63
  10  -6  -6    2.53    0.75
 -10  -6   6    2.24    0.60
  10   6  -6    1.67    0.56
 -10   6   6    1.80    0.75
  10  -6  -5    5.55    0.85
 -10  -6   5    5.61    0.63
  10   6  -5    5.28    0.62
 -10   6   5    5.97    0.83
  10  -6  -4   35.24    1.54
 -10  -6   4   37.81    1.53
  10   6  -4   36.59    1.51
 -10   6   4   38.98    1.68
  10  -6  -3   -0.27    0.70
 -10  -6   3    0.48    0.49
  10   6  -3    1.25    0.50
 -10   6   3    1.66    0.69
  10  -6  -2    1.44    0.75
 -10  -6   2    2.10    0.56
  10   6  -2    2.11    0.52
 -10   6   2    1.19    0.74
  10  -6  -1   22.51    1.22
 -10  -6   1   24.65    1.13
  10   6  -1   23.38    1.05
 -10   6   1   23.58    1.27
  10  -6   0  153.80    5.30
 -10  -6   0  150.90    5.14
  10   6   0  144.10    4.86
 -10   6   0  148.90    5.14
  10  -6   1   17.11    1.15
 -10  -6  -1   18.80    0.95
  10   6   1   16.20    0.81
 -10   6  -1   16.58    1.03
  10  -6   2   15.87    0.97
 -10  -6  -2   16.78    0.85
  10   6   2   16.74    0.79
 -10   6  -2   16.56    1.09
  10  -6   3   18.32    1.03
 -10  -6  -3   19.81    0.88
  10   6   3   19.08    0.87
 -10   6  -3   18.78    1.13
  10  -6   4    9.95    0.79
 -10  -6  -4    8.01    0.53
  10   6   4   10.04    0.60
 -10   6  -4   10.77    0.91
  10  -6   5    2.70    0.58
  10   6   5    3.93    0.42
 -10   6  -5    2.84    0.70
  10  -6   6  119.60    4.15
  10   6   6  120.60    4.05
 -10   6  -6  118.50    4.17
  10  -6   7  125.60    4.34
  10   6   7  113.50    4.15
 -10   6  -7  102.50    3.67
  10  -6   8   95.63    3.44
 -10   6  -8  113.00    3.99
  10  -6   9    2.40    0.65
 -10   6  -9    2.85    0.69
  10  -6  10    3.53    0.67
 -10   6 -10    3.73    0.70
  10  -6  11    0.27    0.59
 -10   6 -11    1.44    0.67
  10  -6  12    2.73    0.63
 -10   6 -12    2.30    0.69
  10  -6  13   21.47    1.12
 -10   6 -13   21.69    1.14
  10  -6  14    4.89    0.70
 -10   6 -14    5.16    0.71
  10  -6  15    0.86    0.57
 -10   6 -15    0.35    0.56
  10  -6  16   19.81    1.00
 -10   6 -16   20.66    1.12
  10  -6  17   22.82    1.14
 -10   6 -17   24.13    1.17
  10  -6  18    0.42    0.54
 -10   6 -18    1.40    0.56
  10  -6  19    6.44    0.68
 -10   6 -19    6.86    0.67
  10  -6  20    0.68    0.61
 -10   6 -20    0.37    0.50
  10  -6  21   12.71    0.86
 -10   6 -21   13.58    0.80
  10  -6  22    1.22    0.53
 -10   6 -22    0.33    0.54
  10  -6  23   15.91    0.85
 -10   6 -23   15.31    0.84
  10  -6  24    0.76    0.57
 -10   6 -24   -0.50    0.58
 -10  -8  22    0.22    0.57
  10   8 -22    0.87    0.59
 -10   8  22    1.66    1.31
 -10  -8  21    5.05    0.65
  10   8 -21    5.04    0.64
 -10   8  21    6.14    1.22
 -10  -8  20   32.62    1.42
 -10  -8  19    2.43    0.64
  10   8 -19    2.47    0.68
 -10   8  19    1.45    1.00
 -10  -8  18   37.59    1.56
  10   8 -18   38.86    1.62
 -10   8  18   39.58    1.84
 -10  -8  17    4.19    0.65
  10   8 -17    4.13    0.73
 -10   8  17    5.01    1.02
 -10  -8  16    0.36    0.66
  10   8 -16   -0.75    0.65
 -10   8  16   -0.69    0.89
 -10  -8  15    1.40    0.61
  10   8 -15    1.37    0.65
 -10   8  15    0.82    0.86
 -10  -8  14    2.19    0.62
  10   8 -14    2.99    0.66
 -10   8  14    0.73    0.83
 -10  -8  13    5.45    0.70
  10   8 -13    5.47    0.73
 -10   8  13    5.25    0.86
 -10  -8  12   68.62    2.55
  10   8 -12   69.91    2.60
 -10   8  12   73.46    2.74
 -10  -8  11    0.20    0.66
  10   8 -11    0.48    0.69
 -10   8  11    0.50    0.77
 -10  -8  10    3.16    0.70
  10   8 -10    3.43    0.67
 -10   8  10    4.88    0.81
 -10  -8   9   -0.05    0.64
  10   8  -9   -1.21    0.56
 -10   8   9   -0.01    0.71
  10  -8  -8    8.21    0.88
 -10  -8   8   10.74    0.85
  10  -8  -7   10.58    0.91
 -10  -8   7   10.32    0.81
  10  -8  -6  108.40    3.80
 -10  -8   6  114.20    3.99
  10   8  -6  103.70    3.64
 -10   8   6  106.20    3.76
  10  -8  -5    0.31    0.71
 -10  -8   5   -0.96    0.58
  10   8  -5    0.17    0.55
 -10   8   5    0.82    0.76
  10  -8  -4   11.45    0.94
 -10  -8   4   10.70    0.80
  10   8  -4   10.07    0.79
 -10   8   4   11.07    0.96
  10  -8  -3    5.85    0.80
 -10  -8   3    4.16    0.66
  10   8  -3    5.21    0.65
 -10   8   3    6.20    0.82
  10  -8  -2    1.71    0.75
 -10  -8   2   -0.52    0.64
  10   8  -2   -0.80    0.58
 -10   8   2    0.06    0.64
  10  -8  -1   35.25    1.59
 -10  -8   1   37.30    1.54
  10   8  -1   35.43    1.47
 -10   8   1   35.30    1.59
  10  -8   0    1.61    0.68
 -10  -8   0    0.64    0.57
  10   8   0    0.33    0.55
 -10   8   0    0.00    0.66
  10  -8   1    8.02    0.80
 -10  -8  -1    7.67    0.71
  10   8   1    7.43    0.65
 -10   8  -1    7.10    0.86
  10  -8   2   12.79    0.94
 -10  -8  -2   13.14    0.83
  10   8   2   14.40    0.82
 -10   8  -2   12.37    0.95
  10  -8   3    1.13    0.68
 -10  -8  -3    2.31    0.68
  10   8   3    2.95    0.63
 -10   8  -3    2.49    0.70
  10  -8   4    2.54    0.73
 -10  -8  -4    2.26    0.63
  10   8   4    1.21    0.60
 -10   8  -4    1.55    0.76
  10  -8   5    0.53    0.64
  10   8   5    1.18    0.59
 -10   8  -5    0.95    0.78
  10  -8   6  117.20    4.08
  10   8   6  126.70    4.30
 -10   8  -6  114.20    4.02
  10  -8   7    1.38    0.61
  10   8   7    0.59    0.46
 -10   8  -7    1.52    0.72
  10  -8   8    2.85    0.70
 -10   8  -8    2.22    0.69
  10  -8   9    1.05    0.56
 -10   8  -9    1.18    0.73
  10  -8  10   69.00    2.53
 -10   8 -10   65.26    2.46
  10  -8  11   14.55    0.91
 -10   8 -11   14.75    0.93
  10  -8  12    1.83    0.53
 -10   8 -12    0.49    0.67
  10  -8  13    3.15    0.61
 -10   8 -13    2.45    0.65
  10  -8  14    1.06    0.51
 -10   8 -14    1.04    0.67
  10  -8  15    1.06    0.52
 -10   8 -15   -0.10    0.58
  10  -8  16    7.35    0.70
 -10   8 -16    8.59    0.73
  10  -8  17    0.74    0.51
 -10   8 -17    0.14    0.55
  10  -8  18    2.62    0.51
 -10   8 -18    2.77    0.60
 -10 -10   9    1.38    0.81
  10  10  -9    0.04    0.84
 -10  10   9    1.41    1.10
 -10 -10   8   12.92    1.06
  10  10  -8   13.74    1.07
 -10  10   8   14.12    1.18
  10 -10  -7   14.49    1.16
 -10 -10   7   12.36    1.03
  10  10  -7   12.99    1.06
 -10  10   7   12.15    1.03
  10 -10  -6    0.23    0.86
 -10 -10   6    0.47    0.75
  10  10  -6   -0.44    0.82
 -10  10   6    0.89    0.81
  10 -10  -5    0.35    0.85
 -10 -10   5    0.25    0.76
  10  10  -5   -0.39    0.88
 -10  10   5   -0.21    0.80
  10 -10  -4    3.60    0.91
 -10 -10   4    3.00    0.88
  10  10  -4    4.31    0.94
 -10  10   4    3.28    0.91
  10 -10  -3   11.57    0.96
 -10 -10   3   14.38    1.16
  10  10  -3   14.39    1.14
 -10  10   3   11.32    1.06
  10 -10  -2    0.79    0.76
 -10 -10   2   -0.36    0.95
  10  10  -2   -0.23    0.89
 -10  10   2    0.67    0.88
  10 -10  -1   28.23    1.35
 -10 -10   1   31.36    1.62
  10  10  -1   30.41    1.60
 -10  10   1   32.00    1.56
  10 -10   0    7.52    0.89
 -10 -10   0    6.05    1.13
  10  10   0    8.78    1.11
 -10  10   0    7.50    0.96
  10 -10   1    8.96    0.86
 -10 -10  -1    9.47    1.20
  10  10   1    8.79    1.12
 -10  10  -1    8.06    0.97
  10 -10   2    1.45    0.71
 -10 -10  -2    1.53    1.20
  10  10   2    1.55    1.18
 -10  10  -2    1.31    0.78
  10 -10   3   -1.10    0.79
 -10 -10  -3   -1.39    1.21
  10  10   3    0.70    1.28
 -10  10  -3   -0.72    0.89
  10 -10   4    2.75    0.76
  10  10   4    1.63    1.29
 -10  10  -4    1.36    0.85
  10 -10   5   30.75    1.44
  10  10   5   32.00    1.82
 -10  10  -5   30.36    1.49
 -11  -1  34    9.40    1.01
 -11   1  34    7.96    1.07
 -11  -1  33    1.67    0.89
 -11   1  33    2.66    0.96
 -11  -1  32    4.78    0.88
 -11   1  32    6.50    1.02
 -11  -1  31    0.32    0.82
 -11   1  31   -0.44    0.84
 -11  -1  30   18.37    1.14
 -11   1  30   17.59    1.13
 -11  -1  29   15.13    1.07
 -11   1  29   12.88    1.01
 -11  -1  28   44.53    1.88
 -11   1  28   47.13    1.95
 -11  -1  27    3.89    0.80
 -11   1  27    2.02    0.82
 -11  -1  26    8.70    0.91
 -11   1  26    9.75    1.00
 -11  -1  25   46.97    1.98
 -11   1  25   46.25    1.95
 -11  -1  24    4.59    0.82
 -11   1  24    2.41    0.84
 -11  -1  23   70.97    2.68
 -11   1  23   69.26    2.67
 -11  -1  22  200.00    6.79
 -11   1  22  210.20    7.14
 -11  -1  21   34.68    1.65
 -11   1  21   37.38    1.72
 -11  -1  20    9.65    0.87
 -11   1  20    8.88    0.85
 -11  -1  19    2.49    0.71
 -11   1  19    3.22    0.72
 -11  -1  18    3.51    0.68
 -11   1  18    6.13    0.74
 -11  -1  17    0.41    0.65
 -11   1  17    0.02    0.57
 -11  -1  16   47.49    1.91
 -11   1  16   44.77    1.78
 -11  -1  15   22.54    1.15
 -11   1  15   21.71    1.10
 -11  -1  14    2.56    0.62
 -11  -1  13   69.23    2.57
 -11  -1  12   21.72    1.13
 -11  -1  11   55.62    2.09
 -11  -1  10   29.03    1.28
 -11  -1   9  185.70    6.24
 -11  -1   8   13.30    0.84
 -11  -1   7   12.52    0.81
 -11  -1   6   30.13    1.30
 -11   1   6   30.81    1.36
 -11   1   5    1.03    0.68
 -11   1   4    2.11    0.70
  11  -1  -3   71.65    2.60
 -11   1   3   72.42    2.63
  11  -1  -2   50.72    1.94
 -11   1   2   47.49    1.85
  11  -1  -1    2.84    0.65
 -11  -1   1    1.12    0.47
 -11   1   1    0.84    0.61
  11  -1   0    7.66    0.73
 -11  -1   0    6.61    0.51
 -11   1   0    5.84    0.68
  11  -1   1    5.29    0.64
 -11  -1  -1    4.39    0.41
 -11   1  -1    4.91    0.68
  11  -1   2  206.60    6.88
 -11  -1  -2  207.00    6.80
  11   1   2  218.60    7.18
 -11   1  -2  201.40    6.73
  11  -1   3  162.30    5.45
 -11  -1  -3  160.00    5.28
  11   1   3  160.10    5.29
 -11   1  -3  159.60    5.38
  11  -1   4   87.97    3.07
 -11  -1  -4   84.39    2.84
  11   1   4   87.85    2.95
 -11   1  -4   80.40    2.84
  11  -1   5   24.19    1.09
 -11  -1  -5   22.63    0.89
  11   1   5   23.25    0.91
 -11   1  -5   20.38    1.00
  11  -1   6   27.53    1.22
 -11  -1  -6   26.09    1.00
  11   1   6   27.00    1.05
 -11   1  -6   25.66    1.16
  11  -1   7   27.55    1.22
 -11  -1  -7   26.48    1.03
  11   1   7   26.59    1.05
 -11   1  -7   25.97    1.19
  11  -1   8   27.48    1.23
 -11  -1  -8   29.87    1.14
  11   1   8   28.34    1.11
 -11   1  -8   29.18    1.26
  11  -1   9   12.22    0.77
 -11  -1  -9   14.57    0.70
  11   1   9   13.48    0.69
 -11   1  -9   14.00    0.83
  11  -1  10    0.49    0.57
 -11  -1 -10    0.29    0.39
  11   1  10    0.58    0.42
 -11   1 -10    1.26    0.60
  11  -1  11   78.99    2.85
 -11  -1 -11   79.81    2.76
  11   1  11   79.68    2.78
 -11   1 -11   78.66    2.84
  11  -1  12    2.37    0.63
 -11  -1 -12    2.74    0.48
  11   1  12    1.54    0.50
 -11   1 -12    2.03    0.60
  11  -1  13    4.80    0.69
 -11  -1 -13    2.67    0.48
  11   1  13    1.72    0.48
 -11   1 -13    2.52    0.58
  11  -1  14  124.90    4.34
 -11  -1 -14  121.60    4.13
  11   1  14  131.90    4.49
 -11   1 -14  126.00    4.33
  11  -1  15  127.30    4.41
 -11  -1 -15  127.40    4.34
  11   1  15  124.00    4.25
 -11   1 -15  123.40    4.26
  11  -1  16    8.79    0.80
 -11  -1 -16    9.79    0.68
  11   1  16    9.78    0.71
 -11   1 -16    8.67    0.72
  11  -1  17   85.48    3.10
 -11  -1 -17   86.56    3.05
  11   1  17   91.10    3.22
 -11   1 -17   86.57    3.09
  11  -1  18    1.54    0.67
 -11  -1 -18    2.17    0.55
  11   1  18    2.94    0.61
 -11   1 -18    1.96    0.58
  11  -1  19   19.47    1.12
 -11  -1 -19   18.65    0.98
  11   1  19   21.59    1.08
 -11   1 -19   21.17    1.05
  11  -1  20  106.10    3.75
  11   1  20  110.00    3.83
 -11   1 -20  107.50    3.79
  11  -1  21   18.99    1.08
  11   1  21   18.18    1.02
 -11   1 -21   18.65    1.04
  11  -1  22   72.06    2.66
  11   1  22   74.14    2.70
 -11   1 -22   73.21    2.71
  11  -1  23    5.90    0.79
  11   1  23    4.66    0.74
 -11   1 -23    7.04    0.74
  11  -1  24    1.54    0.69
  11   1  24    2.71    0.68
 -11   1 -24    2.15    0.64
  11  -1  25   13.95    0.98
  11   1  25   16.63    1.02
 -11   1 -25   14.42    0.93
  11  -1  26   20.70    1.16
  11   1  26   21.64    1.21
 -11   1 -26   23.31    1.21
  11  -1  27    1.31    0.70
  11   1  27    2.31    0.77
 -11   1 -27    1.66    0.62
  11  -1  28    0.02    0.72
  11   1  28    0.65    0.81
 -11   1 -28    1.01    0.71
  11  -1  29    7.92    0.88
  11   1  29    5.01    0.91
 -11  -3  32    0.95    0.70
 -11   3  32   -0.37    0.97
 -11  -3  31    8.15    0.86
 -11   3  31    7.77    1.01
 -11  -3  30    8.60    0.88
 -11   3  30    9.83    1.02
 -11  -3  29   29.71    1.40
 -11   3  29   31.80    1.59
 -11  -3  28   35.32    1.62
 -11   3  28   37.14    1.69
 -11  -3  27    0.63    0.69
 -11   3  27    0.49    0.84
 -11  -3  26    0.97    0.80
 -11   3  26    0.05    0.81
 -11  -3  25   23.23    1.26
 -11   3  25   22.91    1.37
 -11  -3  24    0.59    0.73
 -11   3  24    0.48    0.85
 -11  -3  23   -0.66    0.80
 -11   3  23    0.75    0.82
 -11  -3  22    2.86    0.89
  11   3 -22    3.97    0.69
 -11   3  22    4.24    0.90
 -11  -3  21   -0.45    0.78
  11   3 -21   -0.06    0.65
 -11   3  21   -1.03    0.86
 -11  -3  20   49.09    1.98
  11   3 -20   52.56    2.07
 -11   3  20   56.93    2.29
 -11   3  20   57.54    2.32
 -11  -3  19   91.32    3.30
  11   3 -19   93.90    3.38
 -11   3  19   98.02    3.54
 -11   3  19  101.60    3.67
 -11  -3  18   50.14    2.05
 -11  -3  17   16.67    1.09
 -11  -3  16  184.80    6.31
  11   3 -16  174.30    5.94
 -11   3  16  182.30    6.19
 -11  -3  15    6.56    0.80
  11   3 -15    5.78    0.75
 -11   3  15    5.88    0.77
 -11  -3  14    0.12    0.61
  11   3 -14    0.57    0.62
 -11   3  14    1.31    0.69
 -11  -3  13   28.36    1.30
  11   3 -13   30.71    1.41
 -11   3  13   31.46    1.43
 -11  -3  12    1.37    0.56
  11   3 -12    2.50    0.65
 -11   3  12    2.49    0.72
 -11  -3  11   14.39    0.91
  11   3 -11   13.33    0.90
 -11   3  11   12.98    0.91
 -11  -3  10    9.56    0.77
  11   3 -10   10.69    0.83
 -11   3  10   10.45    0.83
 -11  -3   9   34.95    1.47
  11   3  -9   34.36    1.45
 -11   3   9   30.79    1.41
 -11  -3   8   74.47    2.69
  11   3  -8   70.39    2.55
 -11   3   8   68.44    2.54
  11  -3  -7   11.61    0.81
 -11  -3   7   11.45    0.80
  11   3  -7   10.95    0.77
 -11   3   7   11.73    0.87
  11  -3  -6   26.36    1.23
 -11  -3   6   24.81    1.16
  11   3  -6   26.84    1.18
 -11   3   6   26.11    1.23
  11  -3  -5  244.10    8.13
 -11  -3   5  256.90    8.53
  11   3  -5  249.70    8.28
 -11   3   5  245.50    8.20
  11  -3  -4  196.80    6.62
 -11  -3   4  204.00    6.79
  11   3  -4  206.10    6.86
 -11   3   4  194.20    6.55
  11  -3  -3  113.30    3.94
 -11  -3   3  112.00    3.83
  11   3  -3  115.70    3.92
 -11   3   3  118.10    4.10
  11  -3  -2  306.50   10.13
 -11  -3   2  321.30   10.56
  11   3  -2  308.90   10.14
 -11   3   2  315.00   10.44
  11  -3  -1   87.76    3.10
 -11  -3   1   90.33    3.08
  11  -3   0  123.00    4.24
 -11  -3   0  130.30    4.33
 -11   3   0  125.20    4.32
  11  -3   1   -0.17    0.67
 -11  -3  -1    0.19    0.24
 -11   3  -1   -0.07    0.64
  11  -3   2   48.18    1.92
 -11  -3  -2   50.53    1.72
 -11   3  -2   46.84    1.87
  11  -3   3   18.82    1.07
 -11   3  -3   19.52    1.07
  11  -3   4   12.02    0.90
 -11   3  -4   10.92    0.80
  11  -3   5    0.37    0.64
 -11   3  -5    1.53    0.66
  11  -3   6   47.68    1.87
 -11   3  -6   47.87    1.89
  11  -3   7   43.51    1.75
 -11   3  -7   41.75    1.72
  11  -3   8  129.60    4.48
 -11   3  -8  123.80    4.29
  11  -3   9   30.70    1.41
 -11   3  -9   27.56    1.31
  11  -3  10  244.90    8.21
 -11   3 -10  251.00    8.41
  11  -3  11   86.36    3.12
 -11   3 -11   87.07    3.15
  11  -3  12   22.11    1.13
 -11   3 -12   24.73    1.23
  11  -3  13    1.10    0.63
  11   3  13    0.48    0.27
  11   3  13    0.43    0.29
 -11   3 -13    0.48    0.71
  11  -3  14   39.67    1.70
  11   3  14   42.23    1.51
 -11   3 -14   44.14    1.83
  11  -3  15    8.07    0.80
  11   3  15    8.34    0.51
 -11   3 -15    7.59    0.77
  11  -3  16   12.93    0.93
  11   3  16   13.52    0.69
 -11   3 -16   12.83    0.87
  11  -3  17    3.14    0.62
  11   3  17    2.74    0.46
 -11   3 -17    3.11    0.61
  11  -3  18   25.51    1.27
  11   3  18   24.56    1.05
 -11   3 -18   24.19    1.18
  11  -3  19    1.73    0.67
  11   3  19    1.35    0.50
 -11   3 -19    1.69    0.65
  11  -3  20   55.39    2.12
  11  -3  21    7.31    0.78
  11   3  21    8.12    0.69
 -11   3 -21    7.51    0.75
  11  -3  22    7.94    0.77
  11   3  22    8.91    0.72
 -11   3 -22    8.78    0.77
  11  -3  23   52.48    2.04
  11   3  23   58.80    2.18
 -11   3 -23   53.83    2.06
  11  -3  24   10.49    0.80
  11   3  24   11.23    0.87
 -11   3 -24    9.83    0.80
  11  -3  25    4.65    0.73
  11   3  25    6.06    0.83
 -11   3 -25    5.65    0.74
  11  -3  26   18.22    1.05
  11   3  26   18.72    1.17
 -11   3 -26   18.33    1.02
  11  -3  27    9.47    0.87
  11   3  27   10.88    1.13
 -11   3 -27   10.27    0.79
  11  -3  28    1.28    0.68
  11   3  28    2.23    1.03
 -11   3 -28    2.04    0.66
 -11  -5  30    7.43    0.76
 -11   5  30    8.43    1.42
 -11   5  30    7.10    1.17
 -11  -5  29    6.99    0.81
 -11   5  29    6.99    1.23
 -11   5  29    5.78    1.10
 -11  -5  28    2.36    0.70
 -11   5  28    1.53    1.08
 -11   5  28    2.72    0.93
 -11  -5  27   -0.18    0.71
  11   5 -27    0.33    0.56
 -11   5  27    0.49    1.03
 -11   5  27    1.07    0.90
 -11  -5  26    0.81    0.66
  11   5 -26    1.58    0.62
 -11   5  26    0.18    1.11
 -11   5  26    0.71    0.93
 -11  -5  25   10.79    0.91
  11   5 -25    9.93    0.81
 -11   5  25    9.89    1.11
 -11   5  25    8.71    1.00
 -11  -5  24    1.54    0.73
  11   5 -24    2.25    0.64
 -11   5  24    2.44    0.86
 -11   5  24    1.57    0.88
 -11  -5  23   -0.35    0.71
  11   5 -23    0.95    0.63
 -11   5  23    1.26    0.82
 -11   5  23   -0.19    0.89
 -11  -5  22   62.58    2.40
  11   5 -22   64.30    2.42
 -11   5  22   62.82    2.45
 -11   5  22   62.67    2.47
 -11  -5  21    8.05    0.84
  11   5 -21    9.95    0.83
 -11   5  21    7.67    0.96
 -11  -5  20    1.40    0.72
  11   5 -20    0.94    0.62
 -11   5  20    0.69    0.85
 -11  -5  19   54.07    2.13
  11   5 -19   53.97    2.13
 -11   5  19   55.53    2.23
 -11  -5  18    4.10    0.78
  11   5 -18    3.31    0.67
 -11   5  18    2.96    0.92
 -11  -5  17    1.63    0.74
  11   5 -17    1.04    0.61
 -11   5  17    1.06    0.79
 -11  -5  16   11.83    0.96
  11   5 -16   11.55    0.87
 -11   5  16   10.63    0.99
 -11  -5  15   14.62    1.08
  11   5 -15   14.86    0.94
 -11   5  15   13.39    1.03
 -11  -5  14   45.72    1.87
  11   5 -14   51.62    2.04
 -11   5  14   50.20    2.09
 -11  -5  13   95.15    3.38
  11   5 -13   96.26    3.46
 -11   5  13   96.58    3.49
 -11  -5  12   16.71    1.00
  11   5 -12   17.24    1.00
 -11   5  12   20.26    1.18
 -11  -5  11   -0.28    0.62
  11   5 -11   -0.07    0.63
 -11   5  11   -0.25    0.74
 -11  -5  10   97.19    3.48
  11   5 -10   95.39    3.42
 -11   5  10   91.22    3.29
 -11  -5   9   13.60    0.96
  11   5  -9   13.98    0.94
 -11   5   9   14.09    0.97
  11  -5  -8    1.16    0.64
 -11  -5   8    1.04    0.65
  11   5  -8    0.25    0.63
 -11   5   8    0.30    0.68
  11  -5  -7   18.93    1.03
 -11  -5   7   19.75    1.07
  11   5  -7   18.84    1.05
 -11   5   7   18.66    1.08
  11  -5  -6   49.85    1.96
 -11  -5   6   48.20    1.94
  11   5  -6   49.61    1.90
 -11   5   6   46.77    1.90
  11  -5  -5   52.75    2.08
 -11  -5   5   53.67    2.08
  11   5  -5   51.96    1.98
 -11   5   5   53.25    2.08
  11  -5  -4    4.00    0.77
 -11  -5   4    4.36    0.61
  11   5  -4    4.48    0.60
 -11   5   4    3.75    0.74
  11  -5  -3   81.43    3.01
 -11  -5   3   74.95    2.65
  11   5  -3   77.62    2.75
 -11   5   3   80.86    2.93
  11  -5  -2   34.06    1.57
 -11  -5   2   33.57    1.32
  11   5  -2   31.96    1.30
 -11   5   2   32.61    1.44
  11  -5  -1  106.10    3.78
 -11  -5   1  110.30    3.76
  11   5  -1  102.70    3.52
 -11   5   1  103.50    3.67
  11  -5   0    1.28    0.66
 -11  -5   0    0.32    0.41
  11   5   0    0.48    0.43
 -11   5   0    1.46    0.63
  11  -5   1    1.63    0.65
 -11  -5  -1    0.43    0.40
  11   5   1    0.84    0.38
 -11   5  -1    0.86    0.64
  11  -5   2   66.78    2.50
 -11  -5  -2   63.80    2.19
  11   5   2   63.76    2.21
 -11   5  -2   62.10    2.39
  11  -5   3   23.60    1.21
 -11  -5  -3   24.18    0.92
  11   5   3   23.22    0.90
 -11   5  -3   24.04    1.23
  11  -5   4   90.50    3.30
 -11  -5  -4   87.68    2.95
  11   5   4   82.86    2.80
 -11   5  -4   84.59    3.09
  11  -5   5   10.51    0.92
 -11   5  -5   11.09    0.86
  11  -5   6   -0.04    0.69
 -11   5  -6    1.79    0.75
  11  -5   7   54.64    2.10
 -11   5  -7   54.29    2.14
  11  -5   8    0.69    0.52
 -11   5  -8    1.10    0.69
  11  -5   9    9.31    0.75
 -11   5  -9    8.80    0.82
  11  -5  10   26.04    1.23
 -11   5 -10   26.73    1.31
  11  -5  11   90.96    3.29
 -11   5 -11   93.18    3.36
  11  -5  12   58.86    2.27
 -11   5 -12   48.94    1.98
  11  -5  13    1.09    0.59
 -11   5 -13    1.22    0.69
  11  -5  14   57.63    2.21
 -11   5 -14   56.31    2.22
  11  -5  15   13.64    0.90
 -11   5 -15   13.74    0.90
  11  -5  16    4.02    0.69
 -11   5 -16    2.60    0.60
  11  -5  17    0.98    0.52
 -11   5 -17   -0.06    0.55
  11  -5  18    1.06    0.55
 -11   5 -18    0.36    0.61
  11  -5  19    1.90    0.66
 -11   5 -19    2.99    0.64
  11  -5  20    0.76    0.59
 -11   5 -20    1.24    0.61
  11  -5  21    0.16    0.62
 -11   5 -21   -0.12    0.58
  11  -5  22   28.60    1.31
 -11   5 -22   26.78    1.20
  11  -5  23   32.10    1.41
 -11   5 -23   32.73    1.38
  11  -5  24    3.63    0.67
 -11   5 -24    5.20    0.63
  11  -5  25    1.07    0.55
 -11   5 -25    2.20    0.62
  11  -5  26    0.60    0.66
 -11  -7  25   16.96    0.92
  11   7 -25   17.82    0.95
 -11   7  25   17.22    1.29
 -11   7  25   17.01    1.52
 -11  -7  24    3.41    0.70
  11   7 -24    4.58    0.63
 -11   7  24    2.69    1.01
 -11   7  24    3.62    1.29
 -11  -7  23   21.73    1.10
  11   7 -23   23.37    1.11
 -11   7  23   23.97    1.47
 -11   7  23   28.24    1.65
 -11  -7  22   -0.14    0.64
  11   7 -22   -0.85    0.58
 -11   7  22   -0.61    1.00
 -11  -7  21   15.17    0.96
  11   7 -21   16.02    0.94
 -11   7  21   16.46    1.30
 -11  -7  20   -0.87    0.67
  11   7 -20    0.23    0.60
 -11   7  20    0.99    0.96
 -11  -7  19    3.51    0.69
  11   7 -19    1.89    0.63
 -11   7  19    1.77    0.95
 -11  -7  18    0.30    0.69
  11   7 -18   -0.05    0.65
 -11   7  18   -0.66    0.91
 -11  -7  17    1.28    0.75
  11   7 -17    1.03    0.66
 -11   7  17    0.99    0.86
 -11  -7  16    9.63    0.83
  11   7 -16    7.53    0.82
 -11   7  16    6.80    0.89
 -11  -7  15   12.01    0.89
  11   7 -15   11.85    0.88
 -11   7  15    9.48    0.95
 -11  -7  14    0.49    0.66
  11   7 -14    0.08    0.60
 -11   7  14   -0.38    0.77
 -11  -7  13    2.63    0.70
  11   7 -13    4.38    0.68
 -11   7  13    2.91    0.79
 -11  -7  12   12.71    0.95
  11   7 -12   14.83    0.98
 -11   7  12   12.45    0.98
 -11  -7  11   25.26    1.28
  11   7 -11   23.56    1.22
 -11   7  11   26.97    1.34
 -11  -7  10    5.58    0.77
  11   7 -10    8.01    0.78
 -11   7  10    8.58    0.93
  11  -7  -9  182.30    6.22
 -11  -7   9  175.20    5.98
  11   7  -9  173.10    5.91
 -11   7   9  174.40    5.97
  11  -7  -8   31.07    1.46
 -11  -7   8   31.20    1.41
  11   7  -8   27.65    1.31
 -11   7   8   31.44    1.46
  11  -7  -7   21.50    1.15
 -11  -7   7   22.80    1.11
  11   7  -7   20.78    1.08
 -11   7   7   19.67    1.16
  11  -7  -6   14.53    0.95
 -11  -7   6   16.27    0.91
  11   7  -6   16.08    0.95
 -11   7   6   17.04    1.10
  11  -7  -5    6.14    0.80
 -11  -7   5    5.48    0.64
  11   7  -5    6.68    0.70
 -11   7   5    6.60    0.82
  11  -7  -4    1.57    0.71
 -11  -7   4    1.65    0.54
  11   7  -4    2.17    0.59
 -11   7   4    2.48    0.76
  11  -7  -3   14.37    1.08
 -11  -7   3   16.53    0.89
  11   7  -3   14.49    0.86
 -11   7   3   16.42    1.05
  11  -7  -2    6.15    0.84
 -11  -7   2    6.01    0.62
  11   7  -2    5.08    0.63
 -11   7   2    4.67    0.77
  11  -7  -1   17.20    1.06
 -11  -7   1   18.25    0.96
  11   7  -1   19.62    0.96
 -11   7   1   20.07    1.15
  11  -7   0    5.38    0.70
 -11  -7   0    6.25    0.64
  11   7   0    5.60    0.60
 -11   7   0    7.11    0.88
  11  -7   1   15.42    0.96
 -11  -7  -1   14.16    0.81
  11   7   1   12.52    0.72
 -11   7  -1   14.31    1.02
  11  -7   2   18.71    1.03
 -11  -7  -2   21.13    0.99
  11   7   2   20.07    0.98
 -11   7  -2   17.96    1.09
  11  -7   3   21.99    1.17
 -11  -7  -3   24.61    1.04
  11   7   3   24.05    1.05
 -11   7  -3   23.16    1.24
  11  -7   4   14.16    0.93
 -11  -7  -4   14.69    0.74
  11   7   4   16.12    0.80
 -11   7  -4   14.66    1.02
  11  -7   5   30.66    1.41
  11   7   5   33.58    1.28
 -11   7  -5   31.82    1.47
  11  -7   6    2.05    0.64
  11   7   6    0.87    0.34
 -11   7  -6    0.59    0.67
  11  -7   7   10.39    0.81
 -11   7  -7   11.80    0.90
  11  -7   8    0.20    0.59
 -11   7  -8    1.12    0.64
  11  -7   9   20.98    1.09
 -11   7  -9   21.77    1.19
  11  -7  10    1.22    0.64
 -11   7 -10   -0.42    0.71
  11  -7  11    1.57    0.62
 -11   7 -11   -0.32    0.63
  11  -7  12   15.16    0.90
 -11   7 -12   19.42    1.10
  11  -7  13    3.09    0.64
 -11   7 -13    2.82    0.72
  11  -7  14   -0.34    0.57
 -11   7 -14    0.85    0.63
  11  -7  15    6.80    0.63
 -11   7 -15    6.24    0.71
  11  -7  16   11.53    0.78
 -11   7 -16   10.26    0.80
  11  -7  17   25.47    1.13
 -11   7 -17   26.20    1.23
  11  -7  18   10.06    0.75
 -11   7 -18    9.61    0.74
  11  -7  19    9.08    0.72
 -11   7 -19    9.80    0.76
  11  -7  20    1.04    0.55
 -11   7 -20    1.55    0.64
  11  -7  21    0.01    0.53
 -11   7 -21    0.12    0.53
 -11  -9  17    1.70    0.66
  11   9 -17    0.97    0.73
 -11   9  17    2.89    1.09
 -11  -9  16    0.40    0.63
  11   9 -16   -0.28    0.65
 -11   9  16   -1.08    1.00
 -11  -9  15    4.39    0.61
  11   9 -15    4.16    0.71
 -11   9  15    3.36    1.00
 -11  -9  14   10.53    0.78
  11   9 -14   12.05    0.91
 -11   9  14    9.70    1.09
 -11  -9  13   15.05    0.91
  11   9 -13   14.21    0.97
 -11   9  13   13.59    1.22
 -11  -9  12    8.80    0.84
  11   9 -12    8.02    0.86
 -11   9  12    8.52    1.06
 -11  -9  11    0.98    0.71
  11   9 -11    1.33    0.73
 -11   9  11    1.97    0.90
 -11  -9  10    2.86    0.72
  11   9 -10    3.21    0.77
 -11   9  10    3.40    0.92
 -11  -9   9   14.42    0.97
  11   9  -9   15.67    1.04
 -11   9   9   14.39    1.13
  11  -9  -8    5.93    0.89
 -11  -9   8    5.30    0.75
  11   9  -8    6.17    0.80
 -11   9   8    4.73    0.93
  11  -9  -7    0.70    0.73
 -11  -9   7    0.20    0.69
  11   9  -7    0.30    0.68
 -11   9   7    1.11    0.82
  11  -9  -6    6.18    0.92
 -11  -9   6    7.44    0.81
  11   9  -6    7.78    0.83
 -11   9   6    7.88    0.87
  11  -9  -5   21.83    1.24
 -11  -9   5   19.93    1.11
  11   9  -5   19.60    1.08
 -11   9   5   20.44    1.23
  11  -9  -4    0.83    0.85
 -11  -9   4    0.23    0.69
  11   9  -4    0.15    0.69
 -11   9   4    0.39    0.81
  11  -9  -3   63.72    2.44
 -11  -9   3   62.17    2.37
  11   9  -3   57.18    2.21
 -11   9   3   62.34    2.41
  11  -9  -2    2.67    0.78
 -11  -9   2    2.06    0.73
  11   9  -2    2.24    0.71
 -11   9   2    0.81    0.78
  11  -9  -1    1.21    0.78
 -11  -9   1    1.66    0.72
  11   9  -1    0.76    0.70
 -11   9   1    1.67    0.81
  11  -9   0    4.36    0.82
 -11  -9   0    5.13    0.78
  11   9   0    6.07    0.78
 -11   9   0    5.00    0.78
  11  -9   1    0.52    0.75
 -11  -9  -1    0.88    0.79
  11   9   1    1.20    0.72
 -11   9  -1   -0.08    0.76
  11  -9   2   21.14    1.15
 -11  -9  -2   19.46    1.19
  11   9   2   20.94    1.25
 -11   9  -2   19.48    1.13
  11  -9   3   26.38    1.28
 -11  -9  -3   27.86    1.36
  11   9   3   28.14    1.44
 -11   9  -3   30.40    1.49
  11  -9   4    7.15    0.83
  11   9   4    8.78    0.93
 -11   9  -4    8.74    0.93
  11  -9   5    3.34    0.72
  11   9   5    2.07    0.74
 -11   9  -5    2.11    0.73
  11  -9   6    3.99    0.71
  11   9   6    4.05    0.60
 -11   9  -6    5.75    0.84
  11  -9   7    5.25    0.73
 -11   9  -7    4.94    0.74
  11  -9   8   -0.35    0.58
 -11   9  -8    0.00    0.70
  11  -9   9    0.45    0.60
 -11   9  -9    0.06    0.63
  11  -9  10    1.07    0.61
 -11   9 -10    0.50    0.71
  11  -9  11    5.22    0.63
 -11   9 -11    5.50    0.71
  11  -9  12    5.82    0.63
 -11   9 -12    4.93    0.72
  11  -9  13    1.37    0.52
 -11   9 -13    1.30    0.62
 -12   0  34    7.73    1.03
 -12   0  33    0.11    0.80
 -12   0  32   37.34    1.72
 -12   0  31   -0.34    0.78
 -12   0  30    2.46    0.87
 -12   0  29    0.38    0.80
 -12   0  28    3.75    0.82
 -12   0  27   -0.08    0.76
 -12   0  26   50.94    2.09
 -12   0  25   -0.53    0.79
 -12   0  24   23.63    1.34
 -12   0  23   -0.36    0.81
 -12   0  22   51.92    2.14
 -12   0  21   -0.27    0.83
 -12   0  20    3.97    0.70
 -12   0  19   -0.14    0.62
 -12   0  18   25.79    1.27
 -12   0  17    0.10    0.61
 -12   0  16  210.00    7.08
 -12   0  15   -0.36    0.57
 -12   0  14  523.10   17.16
 -12   0  13   -0.21    0.65
 -12   0  12   57.19    2.18
 -12   0   3    0.50    0.60
 -12   0   2   14.71    0.86
  12   0  -1   -0.12    0.60
 -12   0   1   -0.24    0.54
  12   0   1    0.02    0.52
 -12   0  -1   -0.21    0.50
  12   0   2  419.40   13.73
 -12   0  -2  407.30   13.34
  12   0   3   -0.07    0.47
 -12   0  -3   -0.15    0.43
  12   0   4    1.04    0.46
 -12   0  -4    0.46    0.49
  12   0   5   -0.21    0.47
 -12   0  -5   -0.07    0.44
  12   0   6   14.69    0.80
 -12   0  -6   13.48    0.74
  12   0   7   -0.22    0.47
 -12   0  -7   -0.08    0.44
  12   0   8  714.80   23.31
 -12   0  -8  720.50   23.49
  12   0   9    0.25    0.49
 -12   0  -9    0.02    0.47
  12   0  10  131.40    4.47
 -12   0 -10  134.30    4.56
  12   0  11    0.87    0.52
 -12   0 -11   -0.04    0.49
  12   0  12  466.40   15.32
 -12   0 -12  456.50   14.97
  12   0  13    0.10    0.53
 -12   0 -13   -0.46    0.55
  12   0  14  197.30    6.64
 -12   0 -14  194.50    6.53
  12   0  15   -0.62    0.56
 -12   0 -15   -0.07    0.51
  12   0  16   38.39    1.57
 -12   0 -16   36.63    1.50
  12   0  17    0.56    0.57
 -12   0 -17    0.35    0.52
  12   0  18    1.95    0.60
 -12   0 -18    3.19    0.56
  12   0  19    0.26    0.59
 -12   0 -19    0.90    0.57
  12   0  20   64.61    2.42
 -12   0 -20   66.65    2.49
  12   0  21   -0.29    0.63
 -12   0 -21    0.99    0.58
  12   0  22   17.50    1.02
 -12   0 -22   17.49    0.97
  12   0  23    0.08    0.61
 -12   0 -23    0.94    0.62
  12   0  24   31.28    1.40
 -12   0 -24   32.11    1.43
  12   0  25    0.91    0.66
 -12   0 -25   -0.24    0.60
  12   0  26   32.48    1.46
  12   0  27    0.05    0.68
  12   0  28    0.94    0.73
  12   0  29   -0.07    0.72
 -12  -2  33    4.67    0.86
 -12   2  33    1.99    0.88
 -12  -2  32   -0.17    0.76
 -12   2  32    1.54    0.89
 -12  -2  31    0.62    0.79
 -12   2  31    1.83    0.86
 -12  -2  30   21.04    1.23
 -12   2  30   23.24    1.34
 -12  -2  29    8.78    0.94
 -12   2  29    5.90    0.92
 -12  -2  28    0.44    0.74
 -12   2  28    0.62    0.81
 -12  -2  27   15.97    1.11
 -12   2  27   14.03    1.07
 -12  -2  26    5.06    0.82
 -12   2  26    4.14    0.83
 -12  -2  25   50.97    2.07
 -12   2  25   52.26    2.11
 -12  -2  24    7.96    0.94
 -12   2  24   10.48    1.00
 -12  -2  23    5.30    0.90
 -12   2  23    4.24    0.89
 -12  -2  22    8.93    0.92
 -12   2  22    6.44    0.95
 -12  -2  21    0.32    0.72
 -12   2  21    0.67    0.80
 -12  -2  20   40.64    1.81
 -12   2  20   45.65    1.95
 -12  -2  19    6.35    0.93
 -12   2  19    4.47    0.75
 -12  -2  18   50.25    2.01
 -12   2  18   48.90    1.97
 -12  -2  17   37.96    1.59
 -12  -2  16   33.51    1.47
 -12  -2  15    3.92    0.69
 -12  -2  14   48.31    1.93
 -12  -2  13  286.90    9.56
 -12  -2  12   27.70    1.32
 -12   2  12   30.46    1.36
 -12  -2  11  390.80   12.90
 -12   2  11  372.60   12.30
 -12  -2  10  444.20   14.60
 -12   2  10  445.70   14.67
 -12  -2   9   26.11    1.21
 -12   2   9   25.04    1.23
 -12  -2   8   33.96    1.42
 -12   2   8   32.86    1.44
 -12  -2   7    1.08    0.51
 -12   2   7    0.67    0.67
 -12  -2   6   77.64    2.72
 -12   2   6   83.63    2.99
  12  -2  -5  101.00    3.55
 -12  -2   5   96.37    3.30
 -12   2   5   98.75    3.46
  12  -2  -4   25.45    1.19
 -12  -2   4   23.44    1.05
 -12   2   4   25.19    1.20
  12  -2  -3   73.99    2.70
 -12  -2   3   77.64    2.71
 -12   2   3   76.32    2.75
  12  -2  -2   69.14    2.53
 -12  -2   2   65.22    2.29
 -12   2   2   67.50    2.50
  12  -2  -1  589.60   19.29
 -12  -2   1  623.80   20.33
 -12   2   1  617.00   20.18
  12  -2   0   27.30    1.28
 -12  -2   0   28.22    1.06
 -12   2   0   24.19    1.17
  12  -2   1  669.70   21.88
 -12  -2  -1  644.80   21.06
 -12  -2  -1  677.80   22.13
 -12   2  -1  690.30   22.56
  12  -2   2    1.24    0.67
 -12  -2  -2    0.86    0.22
 -12  -2  -2    0.53    0.21
 -12   2  -2    1.51    0.61
  12  -2   3  106.70    3.72
 -12   2  -3  103.00    3.62
  12  -2   4    0.20    0.61
 -12   2  -4    1.13    0.56
  12  -2   5    8.01    0.77
 -12   2  -5    8.34    0.77
  12  -2   6  718.70   23.48
 -12   2  -6  728.00   23.77
  12  -2   7   14.77    0.89
  12   2   7   14.05    0.54
 -12   2  -7   14.43    0.90
  12  -2   8  301.20    9.99
  12   2   8  315.90   10.44
 -12   2  -8  308.00   10.21
  12  -2   9    0.02    0.61
  12   2   9    0.03    0.26
 -12   2  -9   -0.29    0.62
  12  -2  10   35.41    1.52
  12   2  10   35.86    1.29
 -12   2 -10   34.40    1.49
  12  -2  11   10.68    0.84
  12   2  11   11.64    0.59
 -12   2 -11   10.43    0.84
  12  -2  12   53.00    2.07
  12   2  12   55.06    1.95
 -12   2 -12   53.08    2.06
  12  -2  13  259.00    8.67
  12   2  13  269.60    8.89
 -12   2 -13  262.30    8.75
  12  -2  14   48.38    1.95
  12   2  14   47.83    1.74
 -12   2 -14   52.12    2.03
  12  -2  15   29.17    1.32
  12   2  15   29.01    1.16
 -12   2 -15   28.08    1.32
  12  -2  16    9.34    0.82
  12   2  16    9.54    0.67
 -12   2 -16    8.32    0.73
  12  -2  17    0.63    0.57
  12   2  17    0.64    0.44
 -12   2 -17    0.63    0.61
  12  -2  18  257.50    8.61
  12   2  18  246.90    8.20
 -12   2 -18  248.30    8.31
  12  -2  19    1.73    0.70
  12   2  19    0.40    0.51
 -12   2 -19    1.02    0.62
  12  -2  20   46.89    1.90
  12   2  20   45.71    1.77
 -12   2 -20   41.69    1.71
  12  -2  21    2.61    0.68
  12   2  21    1.80    0.55
 -12   2 -21    0.72    0.63
  12  -2  22    3.62    0.62
  12   2  22    3.60    0.61
 -12   2 -22    3.35    0.70
  12  -2  23    1.26    0.66
  12   2  23    0.63    0.59
 -12   2 -23    0.50    0.66
  12  -2  24    3.85    0.72
  12   2  24    3.23    0.66
 -12   2 -24    4.28    0.71
  12  -2  25    9.04    0.83
  12   2  25    9.20    0.82
 -12   2 -25    9.62    0.83
  12  -2  26    1.69    0.70
  12   2  26   -0.21    0.67
 -12   2 -26    1.83    0.67
  12  -2  27   11.29    0.89
  12   2  27    9.02    0.92
 -12   2 -27   12.02    0.86
  12  -2  28    6.05    0.81
  12   2  28    7.57    0.95
 -12   2 -28    5.55    0.78
  12  -2  29    0.51    0.67
  12   2  29    0.79    0.86
 -12   2 -29   -0.33    0.76
 -12  -4  31   19.85    1.09
 -12   4  31   21.26    1.52
 -12   4  31   22.79    1.39
 -12  -4  30    4.08    0.75
 -12   4  30    3.14    0.92
 -12   4  30    1.78    1.05
 -12  -4  29    2.49    0.70
 -12   4  29    3.52    1.01
 -12   4  29    1.67    0.93
 -12  -4  28   13.04    0.95
 -12   4  28    9.90    1.08
 -12   4  28   12.81    1.10
 -12  -4  27   18.17    1.08
 -12   4  27   17.59    1.23
 -12   4  27   17.57    1.17
 -12  -4  26    2.59    0.70
 -12   4  26    4.37    0.93
 -12   4  26    3.89    0.94
 -12  -4  25    7.91    0.84
 -12   4  25    7.98    1.00
 -12   4  25    7.36    1.00
 -12  -4  24   -0.02    0.74
  12   4 -24    0.13    0.61
 -12   4  24    1.58    0.97
 -12   4  24   -0.87    0.85
 -12  -4  23    1.68    0.70
  12   4 -23    1.35    0.69
 -12   4  23    0.71    0.82
 -12   4  23    0.51    0.88
 -12  -4  22    1.59    0.74
  12   4 -22    3.08    0.68
 -12   4  22    1.71    0.96
 -12   4  22    2.14    0.89
 -12  -4  21   46.64    1.99
  12   4 -21   46.19    1.89
 -12   4  21   49.44    2.07
 -12   4  21   47.85    1.99
 -12  -4  20    4.48    0.87
  12   4 -20    4.88    0.71
 -12   4  20    4.19    0.93
 -12  -4  19  115.00    4.09
  12   4 -19  110.80    3.92
 -12   4  19  112.20    3.99
 -12  -4  18   -0.87    0.69
  12   4 -18    0.16    0.60
 -12   4  18    1.75    0.85
 -12  -4  17   63.04    2.40
  12   4 -17   70.93    2.63
 -12   4  17   74.49    2.83
 -12  -4  16   36.55    1.60
  12   4 -16   37.53    1.60
 -12   4  16   37.73    1.70
 -12  -4  15   -0.48    0.71
  12   4 -15    1.07    0.68
 -12   4  15    0.44    0.82
 -12  -4  14    9.39    0.92
 -12  -4  13   14.72    1.01
  12   4 -13   14.23    0.95
 -12   4  13   10.99    0.87
 -12  -4  12   -0.43    0.68
  12   4 -12    0.32    0.59
 -12   4  12    0.61    0.64
 -12  -4  11   43.24    1.77
  12   4 -11   51.02    2.00
 -12   4  11   49.29    1.98
 -12  -4  10    7.19    0.66
  12   4 -10    6.92    0.71
 -12   4  10    7.84    0.83
 -12  -4   9   15.01    0.91
  12   4  -9   18.21    1.01
 -12   4   9   18.08    1.06
  12  -4  -8  127.70    4.43
 -12  -4   8  130.00    4.46
  12   4  -8  116.60    4.04
 -12   4   8  122.20    4.27
  12  -4  -7  290.40    9.67
 -12  -4   7  301.70    9.98
  12   4  -7  297.30    9.85
 -12   4   7  295.60    9.84
  12  -4  -6  141.90    4.89
 -12  -4   6  147.20    4.98
  12   4  -6  144.10    4.90
 -12   4   6  152.00    5.22
  12  -4  -5  107.00    3.76
 -12  -4   5  114.70    3.97
  12   4  -5  107.50    3.72
 -12   4   5  110.00    3.86
  12  -4  -4   13.63    0.91
 -12  -4   4   13.25    0.80
  12   4  -4   13.46    0.78
 -12   4   4   11.36    0.85
  12  -4  -3   94.29    3.35
 -12  -4   3   97.58    3.39
  12   4  -3   95.78    3.30
 -12   4   3  100.70    3.57
  12  -4  -2   75.41    2.76
 -12  -4   2   77.18    2.70
  12   4  -2   73.06    2.55
 -12   4   2   74.96    2.75
  12  -4  -1   28.17    1.33
 -12  -4   1   28.72    1.14
  12   4  -1   26.47    1.06
 -12   4   1   28.56    1.35
  12  -4   0   34.94    1.53
 -12  -4   0   39.57    1.46
  12   4   0   38.66    1.41
 -12   4   0   38.72    1.65
  12  -4   1  119.00    4.16
 -12  -4  -1  118.80    3.99
  12   4   1  114.50    3.83
 -12   4  -1  110.50    3.88
  12  -4   2   10.91    0.86
 -12  -4  -2   10.26    0.49
 -12   4  -2    9.56    0.81
  12  -4   3   32.06    1.44
 -12   4  -3   28.60    1.34
  12  -4   4   35.01    1.50
 -12   4  -4   30.12    1.39
  12  -4   5   93.33    3.35
 -12   4  -5   97.58    3.48
  12  -4   6   27.44    1.34
 -12   4  -6   24.27    1.21
  12  -4   7  172.20    5.89
 -12   4  -7  160.90    5.52
  12  -4   8    4.86    0.79
 -12   4  -8    4.14    0.79
  12  -4   9  121.90    4.26
 -12   4  -9   99.99    3.59
  12  -4  10   13.10    0.93
 -12   4 -10   10.38    0.92
  12  -4  11   55.98    2.17
 -12   4 -11   55.62    2.16
  12  -4  12   51.58    2.04
 -12   4 -12   51.42    2.04
  12  -4  13    7.47    0.72
 -12   4 -13    6.24    0.73
  12  -4  14   51.58    2.01
 -12   4 -14   56.54    2.20
  12  -4  15   16.06    0.96
 -12   4 -15   12.67    0.89
  12  -4  16    1.04    0.59
 -12   4 -16    1.45    0.65
  12  -4  17    2.73    0.67
 -12   4 -17    1.74    0.58
  12  -4  18    7.95    0.72
 -12   4 -18    8.65    0.73
  12  -4  19   41.79    1.70
 -12   4 -19   40.85    1.68
  12  -4  20    7.78    0.71
 -12   4 -20    6.45    0.66
  12  -4  21   62.63    2.35
 -12   4 -21   65.69    2.41
  12  -4  22    4.03    0.64
 -12   4 -22    4.31    0.61
  12  -4  23   19.75    1.03
 -12   4 -23   19.90    1.00
  12  -4  24    0.27    0.61
 -12   4 -24    1.07    0.57
  12  -4  25    2.04    0.70
 -12   4 -25    1.07    0.64
  12  -4  26    3.75    0.72
 -12   4 -26    3.91    0.65
  12  -4  27    3.00    0.65
 -12   4 -27    2.57    0.72
 -12  -6  28    0.67    0.62
  12   6 -28    0.48    0.48
 -12   6  28    1.43    1.35
 -12   6  28    0.85    1.18
 -12  -6  27    3.99    0.70
  12   6 -27    4.39    0.59
 -12   6  27    4.98    1.25
 -12   6  27    2.56    0.96
 -12  -6  26    2.80    0.65
  12   6 -26    1.28    0.58
 -12   6  26    2.93    1.05
 -12   6  26    4.79    1.25
 -12  -6  25    9.50    0.77
  12   6 -25    8.17    0.74
 -12   6  25    8.20    1.19
 -12   6  25   11.14    1.15
 -12  -6  24    4.08    0.71
  12   6 -24    3.66    0.64
 -12   6  24    5.10    1.12
 -12   6  24    4.68    1.01
 -12  -6  23   10.67    0.88
  12   6 -23   10.12    0.79
 -12   6  23    9.27    1.12
 -12   6  23    9.80    1.09
 -12  -6  22    3.86    0.74
  12   6 -22    3.39    0.64
 -12   6  22    2.17    1.02
 -12  -6  21    1.20    0.66
  12   6 -21    0.66    0.59
 -12   6  21    1.69    0.94
 -12  -6  20   22.43    1.23
  12   6 -20   22.87    1.17
 -12   6  20   21.46    1.29
 -12  -6  19    9.54    0.88
  12   6 -19    8.43    0.81
 -12   6  19    7.04    0.93
 -12  -6  18   12.37    0.90
  12   6 -18   12.68    0.89
 -12   6  18   14.77    1.10
 -12  -6  17    0.91    0.63
  12   6 -17    2.10    0.68
 -12   6  17    1.84    0.81
 -12  -6  16   17.19    1.06
  12   6 -16   19.32    1.10
 -12   6  16   18.83    1.14
 -12  -6  15    3.96    0.80
  12   6 -15    4.35    0.75
 -12   6  15    4.79    0.92
 -12  -6  14   10.16    0.93
  12   6 -14   10.04    0.83
 -12   6  14    9.66    0.93
 -12  -6  13   44.50    1.89
  12   6 -13   44.95    1.84
 -12   6  13   41.63    1.83
 -12  -6  12   54.87    2.21
  12   6 -12   55.79    2.17
 -12   6  12   54.65    2.16
 -12  -6  11    8.90    0.83
  12   6 -11    7.19    0.75
 -12   6  11    9.70    0.91
 -12  -6  10   65.76    2.46
  12   6 -10   63.62    2.41
 -12   6  10   66.66    2.54
  12   6  -9    8.50    0.78
 -12   6   9    9.74    0.90
  12  -6  -8  130.40    4.60
 -12  -6   8  130.20    4.47
  12   6  -8  132.50    4.59
 -12   6   8  128.10    4.47
  12  -6  -7   24.14    1.30
 -12  -6   7   26.26    1.23
  12   6  -7   25.24    1.20
 -12   6   7   24.32    1.25
  12  -6  -6   15.70    1.05
 -12  -6   6   15.53    0.94
  12   6  -6   14.61    0.87
 -12   6   6   15.31    0.99
  12  -6  -5   35.66    1.55
 -12  -6   5   33.95    1.46
  12   6  -5   36.92    1.51
 -12   6   5   34.22    1.55
  12  -6  -4   46.59    1.86
 -12  -6   4   48.11    1.86
  12   6  -4   45.36    1.76
 -12   6   4   45.98    1.90
  12  -6  -3   28.58    1.31
 -12  -6   3   28.32    1.23
  12   6  -3   28.56    1.23
 -12   6   3   29.47    1.45
  12  -6  -2   32.43    1.52
 -12  -6   2   31.70    1.34
  12   6  -2   30.43    1.29
 -12   6   2   32.17    1.49
  12  -6  -1   22.53    1.24
 -12  -6   1   22.02    1.02
  12   6  -1   22.03    0.99
 -12   6   1   22.42    1.21
  12  -6   0   90.06    3.28
 -12  -6   0   91.37    3.17
  12   6   0   90.72    3.14
 -12   6   0   88.57    3.24
  12  -6   1    6.82    0.75
 -12  -6  -1    8.02    0.59
  12   6   1    8.57    0.62
 -12   6  -1    7.80    0.91
  12  -6   2   19.02    1.06
 -12  -6  -2   18.05    0.81
  12   6   2   19.69    0.89
 -12   6  -2   19.92    1.14
  12  -6   3   21.76    1.14
 -12  -6  -3   22.92    0.92
  12   6   3   23.34    0.95
 -12   6  -3   23.74    1.25
  12  -6   4   47.90    1.88
 -12  -6  -4   47.88    1.67
  12   6   4   50.13    1.76
 -12   6  -4   46.82    1.92
  12  -6   5   -0.13    0.54
 -12   6  -5   -0.43    0.73
  12  -6   6    0.14    0.62
 -12   6  -6   -0.03    0.67
  12  -6   7   84.71    3.12
 -12   6  -7   85.89    3.13
  12  -6   8   31.42    1.47
 -12   6  -8   29.51    1.43
  12  -6   9    3.79    0.64
 -12   6  -9    1.59    0.67
  12  -6  10    7.67    0.71
 -12   6 -10    6.29    0.75
  12  -6  11   23.52    1.16
 -12   6 -11   28.68    1.36
  12  -6  12    6.30    0.72
 -12   6 -12    5.84    0.73
  12  -6  13   39.15    1.65
 -12   6 -13   40.54    1.69
  12  -6  14    3.65    0.58
 -12   6 -14    3.10    0.76
  12  -6  15   27.92    1.25
 -12   6 -15   28.00    1.33
  12  -6  16    1.08    0.61
 -12   6 -16    0.16    0.60
  12  -6  17    0.25    0.54
 -12   6 -17    0.78    0.56
  12  -6  18   -0.43    0.58
 -12   6 -18    1.03    0.58
  12  -6  19    3.41    0.59
 -12   6 -19    4.37    0.63
  12  -6  20    7.64    0.73
 -12   6 -20    9.11    0.71
  12  -6  21   -0.76    0.55
 -12   6 -21   -0.73    0.54
  12  -6  22    4.00    0.61
 -12   6 -22    3.69    0.63
  12  -6  23    3.43    0.59
 -12   6 -23    5.48    0.64
 -12  -8  22    1.24    0.59
  12   8 -22    0.38    0.68
 -12   8  22    1.92    1.29
 -12  -8  21    0.37    0.56
  12   8 -21   -0.59    0.61
 -12   8  21   -0.57    1.11
 -12  -8  20    8.47    0.80
  12   8 -20    9.32    0.82
 -12   8  20   10.71    1.30
 -12  -8  19    0.99    0.71
  12   8 -19    1.74    0.68
 -12   8  19    2.20    0.98
 -12  -8  18   14.25    0.90
  12   8 -18   15.64    0.94
 -12   8  18   12.77    1.21
 -12  -8  17   -0.16    0.66
  12   8 -17    0.43    0.63
 -12   8  17   -1.22    0.97
 -12  -8  16    3.73    0.66
  12   8 -16    3.64    0.71
 -12   8  16    3.04    0.97
 -12  -8  15    0.04    0.68
  12   8 -15    0.74    0.69
 -12   8  15    0.98    0.84
 -12  -8  14   12.20    0.92
  12   8 -14   12.32    0.92
 -12   8  14   12.61    1.04
 -12  -8  13   15.40    0.99
  12   8 -13   15.20    0.99
 -12   8  13   17.10    1.15
 -12  -8  12   53.16    2.07
  12   8 -12   55.35    2.15
 -12   8  12   53.40    2.14
 -12  -8  11    1.68    0.65
  12   8 -11    1.79    0.62
 -12   8  11   -0.31    0.71
 -12  -8  10    2.90    0.66
  12   8 -10    4.24    0.73
 -12   8  10    2.33    0.77
  12  -8  -9    0.27    0.69
 -12  -8   9    0.56    0.58
  12   8  -9    0.06    0.63
 -12   8   9    0.34    0.72
  12  -8  -8    1.41    0.78
 -12  -8   8    3.71    0.65
  12   8  -8    2.30    0.69
 -12   8   8    3.57    0.78
  12  -8  -7   15.27    0.98
 -12  -8   7   16.07    0.96
  12   8  -7   15.30    0.96
 -12   8   7   16.89    1.10
  12  -8  -6   22.35    1.19
 -12  -8   6   22.42    1.13
  12   8  -6   23.25    1.14
 -12   8   6   23.27    1.29
  12  -8  -5    8.42    0.90
 -12  -8   5    8.12    0.76
  12   8  -5    8.15    0.77
 -12   8   5    9.29    0.93
  12  -8  -4   14.61    1.12
 -12  -8   4   13.70    0.88
  12   8  -4   11.84    0.84
 -12   8   4   13.46    1.02
  12  -8  -3   12.29    0.99
 -12  -8   3   14.11    0.86
  12   8  -3   13.96    0.88
 -12   8   3   14.31    0.99
  12  -8  -2   12.77    0.95
 -12  -8   2   11.94    0.82
  12   8  -2   11.48    0.82
 -12   8   2   12.45    0.97
  12  -8  -1   14.82    1.00
 -12  -8   1   12.69    0.81
  12   8  -1   11.49    0.80
 -12   8   1   13.06    0.94
  12  -8   0   87.22    3.18
 -12  -8   0   86.69    3.04
  12   8   0   85.22    3.01
 -12   8   0   89.17    3.24
  12  -8   1    4.08    0.75
 -12  -8  -1    4.18    0.64
  12   8   1    3.38    0.59
 -12   8  -1    2.31    0.80
  12  -8   2   31.64    1.46
 -12  -8  -2   33.27    1.39
  12   8   2   34.78    1.45
 -12   8  -2   34.40    1.56
  12  -8   3    1.10    0.66
 -12  -8  -3    1.98    0.56
  12   8   3    2.01    0.63
 -12   8  -3    2.09    0.81
  12  -8   4   24.21    1.16
  12   8   4   26.55    1.14
 -12   8  -4   26.63    1.36
  12  -8   5    1.72    0.61
  12   8   5    2.13    0.48
 -12   8  -5    1.85    0.71
  12  -8   6   16.62    1.00
 -12   8  -6   12.58    0.96
  12  -8   7    5.08    0.72
 -12   8  -7    3.25    0.70
  12  -8   8    0.59    0.55
 -12   8  -8   -0.06    0.63
  12  -8   9    4.12    0.66
 -12   8  -9    2.68    0.71
  12  -8  10    0.11    0.58
 -12   8 -10    0.43    0.63
  12  -8  11    0.00    0.51
 -12   8 -11   -0.37    0.61
  12  -8  12    7.81    0.69
 -12   8 -12    7.21    0.83
  12  -8  13    2.40    0.58
 -12   8 -13    1.68    0.63
  12  -8  14   12.79    0.80
 -12   8 -14   11.91    0.85
  12  -8  15    0.12    0.53
 -12   8 -15   -0.25    0.58
  12  -8  16   18.47    0.94
 -12   8 -16   19.50    0.99
  12  -8  17    1.60    0.48
 -12   8 -17    2.35    0.58
 -12 -10   8   11.24    1.00
 -12  10   8   10.99    1.23
  12 -10  -7   40.28    1.80
 -12 -10   7   39.39    1.72
  12  10  -7   44.30    1.92
 -12  10   7   41.92    1.91
  12 -10  -6    0.07    0.83
 -12 -10   6    0.45    0.82
  12  10  -6    0.30    0.88
 -12  10   6    0.61    0.91
  12 -10  -5    6.07    0.93
 -12 -10   5    5.12    0.92
  12  10  -5    4.75    0.97
 -12  10   5    5.79    0.94
  12 -10  -4    7.74    0.97
 -12 -10   4    6.94    1.04
  12  10  -4    7.55    1.06
 -12  10   4    6.69    0.98
  12 -10  -3    8.79    0.98
 -12 -10   3    8.71    1.08
  12  10  -3   10.33    1.18
 -12  10   3    9.11    1.01
  12 -10  -2    0.01    0.83
 -12 -10   2    0.89    1.02
  12  10  -2   -0.53    1.00
 -12  10   2    1.29    0.88
  12 -10  -1    0.73    0.85
 -12 -10   1   -0.83    1.05
  12  10  -1    0.90    0.97
 -12  10   1   -0.37    0.78
  12 -10   0    4.31    0.86
 -12 -10   0    1.94    1.10
  12  10   0    1.41    0.99
 -12  10   0    4.64    0.85
  12 -10   1   11.15    0.97
 -12 -10  -1   10.86    1.34
  12  10   1   13.78    1.36
 -12  10  -1   12.35    1.12
  12 -10   2    4.43    0.83
 -12 -10  -2    5.09    1.25
  12  10   2    4.05    1.36
 -12  10  -2    4.09    0.93
  12 -10   3    6.79    0.89
  12  10   3    7.05    1.37
 -12  10  -3    4.82    0.85
 -13  -1  34    2.20    0.89
 -13   1  34    0.84    0.88
 -13  -1  33   -0.22    0.91
 -13   1  33    0.71    1.02
 -13  -1  32    0.89    0.80
 -13   1  32   -0.21    0.91
 -13  -1  31   15.27    1.13
 -13   1  31   16.95    1.15
 -13  -1  30   48.88    2.01
 -13   1  30   47.93    1.99
 -13  -1  29   66.40    2.56
 -13   1  29   64.30    2.49
 -13  -1  28   12.33    1.01
 -13   1  28   14.26    1.04
 -13  -1  27   27.68    1.37
 -13   1  27   28.52    1.42
 -13  -1  26   -0.14    0.81
 -13   1  26   -0.06    0.77
 -13  -1  25    1.38    0.83
 -13   1  25    0.91    0.79
 -13  -1  24    8.26    0.89
 -13   1  24    8.76    1.01
 -13  -1  23   27.48    1.39
 -13   1  23   27.54    1.44
 -13  -1  22   24.44    1.37
 -13   1  22   22.89    1.33
 -13  -1  21   55.20    2.23
 -13   1  21   55.49    2.25
 -13  -1  20    0.77    0.78
 -13   1  20   -0.10    0.68
 -13  -1  19    0.88    0.64
 -13   1  19    0.64    0.64
 -13  -1  18  218.60    7.38
 -13   1  18  211.00    7.10
 -13  -1  17   91.00    3.28
 -13   1  17   85.64    3.07
 -13  -1  16    0.29    0.62
 -13   1  16    1.57    0.62
 -13  -1  15  231.50    7.76
 -13  -1  14   12.29    0.84
 -13  -1  13    7.60    0.74
 -13  -1  12  117.30    4.07
 -13  -1  11  187.20    6.29
 -13  -1  10   17.49    0.97
 -13  -1   9    0.96    0.62
 -13  -1   8   27.93    1.27
 -13  -1   7   89.98    3.18
 -13   1   7   82.84    2.98
 -13   1   6   84.19    3.02
 -13   1   5  172.30    5.83
 -13   1   4  106.20    3.70
  13  -1  -3  246.80    8.21
 -13   1   3  246.60    8.19
  13  -1  -2  323.40   10.67
 -13   1   2  339.90   11.20
  13  -1  -1   54.22    2.03
 -13  -1   1   50.10    1.81
 -13   1   1   52.28    1.97
  13  -1   0  176.10    5.91
 -13  -1   0  160.20    5.32
 -13   1   0  159.80    5.39
  13  -1   1   56.10    2.08
 -13  -1  -1   52.65    1.86
 -13   1  -1   58.14    2.14
  13  -1   2    0.48    0.60
 -13  -1  -2    0.99    0.38
  13   1   2    1.44    0.38
 -13   1  -2    0.81    0.50
  13  -1   3    8.06    0.72
 -13  -1  -3    6.63    0.46
  13   1   3    7.30    0.48
 -13   1  -3    6.29    0.60
  13  -1   4    1.77    0.54
 -13  -1  -4    0.64    0.33
  13   1   4    0.50    0.36
 -13   1  -4    1.48    0.55
  13  -1   5   24.02    1.13
 -13  -1  -5   23.70    0.94
  13   1   5   24.96    0.99
 -13   1  -5   22.92    1.05
  13  -1   6  210.10    7.03
 -13  -1  -6  213.70    7.04
  13   1   6  226.60    7.47
 -13   1  -6  215.70    7.20
  13  -1   7    2.73    0.60
 -13  -1  -7    3.05    0.39
  13   1   7    2.48    0.43
 -13   1  -7    2.58    0.54
  13  -1   8   88.75    3.14
 -13  -1  -8   87.67    2.98
  13   1   8   92.49    3.15
 -13   1  -8   87.26    3.10
  13  -1   9  244.50    8.15
 -13  -1  -9  248.20    8.18
  13   1   9  239.80    7.92
 -13   1  -9  229.20    7.67
  13  -1  10   16.27    0.94
 -13  -1 -10   15.29    0.75
  13   1  10   15.80    0.78
 -13   1 -10   14.49    0.90
  13  -1  11  351.50   11.62
 -13  -1 -11  347.50   11.41
  13   1  11  358.10   11.76
 -13   1 -11  351.40   11.62
  13  -1  12  119.50    4.15
 -13  -1 -12  117.70    4.00
  13   1  12  118.00    4.02
 -13   1 -12  110.70    3.85
  13  -1  13   37.95    1.58
 -13  -1 -13   38.44    1.49
  13   1  13   40.25    1.58
 -13   1 -13   37.57    1.54
  13  -1  14    3.42    0.66
 -13  -1 -14    4.20    0.56
  13  -1  15    0.67    0.60
 -13  -1 -15    0.09    0.50
  13   1  15    0.85    0.52
 -13   1 -15    0.38    0.56
  13  -1  16    4.48    0.67
 -13  -1 -16    3.26    0.55
  13   1  16    3.91    0.53
 -13   1 -16    3.14    0.56
  13  -1  17   46.49    1.86
 -13  -1 -17   48.10    1.84
  13   1  17   45.45    1.78
 -13   1 -17   40.18    1.65
  13  -1  18   47.83    1.89
 -13  -1 -18   46.55    1.82
  13   1  18   46.51    1.79
 -13   1 -18   48.98    1.90
  13  -1  19   37.43    1.58
 -13  -1 -19   37.94    1.54
  13   1  19   36.35    1.49
 -13   1 -19   38.76    1.64
  13  -1  20   10.49    0.87
 -13  -1 -20   12.21    0.77
  13   1  20   11.02    0.80
 -13   1 -20   13.00    0.90
  13  -1  21   25.10    1.19
  13   1  21   26.39    1.24
 -13   1 -21   26.80    1.26
  13  -1  22   31.68    1.43
  13   1  22   32.31    1.41
 -13   1 -22   33.22    1.45
  13  -1  23   28.64    1.34
  13   1  23   28.30    1.28
 -13   1 -23   28.71    1.31
  13  -1  24   80.53    2.95
  13  -1  25   14.87    0.97
  13   1  25   16.16    0.98
 -13   1 -25   15.27    0.93
  13  -1  26    1.26    0.63
  13   1  26    1.89    0.66
 -13   1 -26    2.09    0.66
  13  -1  27    3.32    0.77
  13   1  27    3.47    0.81
 -13   1 -27    2.75    0.72
  13  -1  28    1.24    0.73
  13   1  28    1.51    0.86
 -13   1 -28    1.17    0.69
  13  -1  29   10.90    0.97
  13   1  29   10.97    1.04
 -13  -3  32   -0.43    0.72
 -13   3  32    2.37    0.97
 -13   3  32    0.44    0.95
 -13  -3  31    2.28    0.79
 -13   3  31    3.33    0.90
 -13   3  31    1.54    0.97
 -13  -3  30    0.74    0.78
 -13   3  30    0.68    0.83
 -13  -3  29   -0.75    0.73
 -13   3  29    0.00    0.90
 -13  -3  28    2.99    0.77
 -13   3  28    3.31    0.89
 -13  -3  27    9.83    0.92
 -13   3  27   10.07    1.03
 -13  -3  26    9.76    0.96
 -13   3  26    8.40    0.96
 -13  -3  25   20.23    1.15
 -13   3  25   19.69    1.22
 -13  -3  24   61.40    2.40
 -13   3  24   63.71    2.49
 -13  -3  23   32.69    1.60
 -13   3  23   35.41    1.65
 -13  -3  22  126.30    4.45
 -13   3  22  127.80    4.51
 -13   3  22  130.30    4.58
 -13  -3  21   44.41    1.88
 -13   3  21   45.77    1.96
 -13   3  21   50.84    2.14
 -13  -3  20    0.25    0.75
 -13   3  20    1.09    0.81
 -13   3  20    0.84    0.86
 -13  -3  19    2.25    0.79
 -13   3  19    1.05    0.89
 -13  -3  18   17.91    1.14
  13   3 -18   15.92    0.97
 -13   3  18   14.29    1.12
 -13  -3  17    1.37    0.70
  13   3 -17    0.81    0.73
 -13   3  17    1.11    0.72
 -13  -3  16  122.50    4.30
  13   3 -16  116.30    4.09
 -13   3  16  109.20    3.88
 -13  -3  15   43.66    1.77
  13   3 -15   48.43    1.95
 -13   3  15   43.80    1.81
 -13  -3  14    4.63    0.67
  13   3 -14    6.59    0.80
 -13   3  14    4.30    0.74
 -13  -3  13   70.63    2.61
  13   3 -13   72.32    2.68
 -13   3  13   66.72    2.50
 -13  -3  12   40.97    1.68
  13   3 -12   42.99    1.77
 -13   3  12   41.23    1.73
 -13  -3  11  142.20    4.91
  13   3 -11  137.30    4.73
 -13   3  11  135.80    4.70
 -13  -3  10  148.90    5.14
  13   3 -10  144.20    4.94
 -13   3  10  141.10    4.86
 -13  -3   9  151.90    5.21
  13   3  -9  146.50    5.01
 -13   3   9  150.90    5.19
 -13  -3   8  297.20    9.86
  13   3  -8  292.30    9.69
 -13   3   8  292.90    9.74
  13  -3  -7   14.10    0.95
 -13  -3   7   14.03    0.88
  13   3  -7   13.05    0.85
 -13   3   7   12.66    0.93
  13  -3  -6   22.34    1.17
 -13  -3   6   22.65    1.09
  13   3  -6   21.95    1.03
 -13   3   6   22.26    1.17
  13  -3  -5   13.02    0.91
 -13  -3   5   13.30    0.80
  13   3  -5   14.20    0.78
 -13   3   5   12.32    0.89
  13  -3  -4    6.17    0.75
 -13  -3   4    4.78    0.53
 -13   3   4    4.76    0.75
  13  -3  -3   40.36    1.64
 -13  -3   3   39.10    1.47
 -13   3   3   36.74    1.57
  13  -3  -2   73.25    2.67
 -13  -3   2   72.86    2.53
 -13   3   2   75.53    2.75
  13  -3  -1    0.68    0.63
 -13  -3   1    1.18    0.37
 -13   3   1    0.58    0.60
  13  -3   0    9.86    0.85
 -13  -3   0    9.23    0.47
 -13   3   0    8.37    0.75
  13  -3   1   53.80    2.10
 -13  -3  -1   52.62    1.78
 -13   3  -1   53.15    2.06
  13  -3   2  147.50    5.07
 -13   3  -2  148.90    5.10
  13  -3   3  149.20    5.11
 -13   3  -3  142.50    4.89
  13  -3   4   78.68    2.85
 -13   3  -4   76.89    2.81
  13  -3   5  121.80    4.21
 -13   3  -5  123.80    4.29
  13  -3   6  122.80    4.27
 -13   3  -6  113.70    3.97
  13  -3   7   10.99    0.90
 -13   3  -7   12.03    0.88
  13  -3   8    1.18    0.62
 -13   3  -8    1.16    0.59
  13  -3   9   23.46    1.20
 -13   3  -9   26.95    1.28
  13  -3  10   70.87    2.63
 -13   3 -10   75.42    2.78
  13  -3  11    0.13    0.67
 -13   3 -11    0.32    0.67
  13  -3  12   -0.75    0.69
 -13   3 -12   -1.03    0.66
  13  -3  13    6.00    0.81
 -13   3 -13    5.63    0.74
  13  -3  14    0.09    0.57
 -13   3 -14    0.36    0.65
  13  -3  15   64.55    2.45
  13   3  15   66.40    2.28
 -13   3 -15   63.29    2.39
  13  -3  16    4.35    0.67
  13   3  16    4.50    0.42
 -13   3 -16    3.81    0.73
  13  -3  17   39.49    1.69
  13   3  17   41.19    1.50
 -13   3 -17   41.59    1.73
  13  -3  18  103.30    3.66
  13   3  18  107.00    3.63
 -13   3 -18  101.40    3.59
  13  -3  19   21.88    1.10
  13   3  19   21.79    0.96
 -13   3 -19   22.94    1.16
  13  -3  20    0.21    0.56
  13   3  20    0.22    0.49
 -13   3 -20   -0.24    0.62
  13  -3  21    9.88    0.78
  13   3  21    8.97    0.68
 -13   3 -21    9.66    0.78
  13  -3  22    7.26    0.71
  13   3  22    6.21    0.68
 -13   3 -22    7.37    0.73
  13  -3  23    8.76    0.75
  13   3  23    9.89    0.82
 -13   3 -23    8.18    0.75
  13  -3  24    0.29    0.68
  13   3  24    1.67    0.70
 -13   3 -24    0.33    0.63
  13  -3  25    0.74    0.68
  13   3  25   -0.90    0.75
 -13   3 -25    1.14    0.66
  13  -3  26   10.42    0.80
  13   3  26    9.54    1.05
 -13   3 -26   11.56    0.86
  13  -3  27   16.85    1.03
  13   3  27   17.79    1.31
 -13   3 -27   17.81    1.01
 -13  -5  30   18.85    1.00
 -13   5  30   15.84    1.49
 -13   5  30   18.03    1.35
 -13  -5  29    7.47    0.74
 -13   5  29    5.49    1.18
 -13   5  29    6.55    1.08
 -13  -5  28   13.79    0.89
 -13   5  28   16.53    1.33
 -13   5  28   14.66    1.15
 -13  -5  27    6.52    0.85
 -13   5  27    4.12    1.18
 -13   5  27    4.74    0.98
 -13  -5  26   -0.53    0.62
 -13   5  26   -0.70    1.00
 -13   5  26    0.82    0.93
 -13  -5  25   22.47    1.23
  13   5 -25   22.16    1.11
 -13   5  25   24.10    1.43
 -13   5  25   26.12    1.39
 -13  -5  24   -0.46    0.63
  13   5 -24    1.22    0.60
 -13   5  24    0.73    0.85
 -13   5  24   -0.88    0.99
 -13  -5  23    2.73    0.76
  13   5 -23    2.07    0.69
 -13   5  23    2.34    0.96
 -13   5  23    2.54    0.90
 -13  -5  22   77.79    2.89
  13   5 -22   95.03    3.40
 -13   5  22   96.49    3.50
 -13  -5  21   38.07    1.61
  13   5 -21   36.51    1.58
 -13   5  21   34.75    1.67
 -13  -5  20    8.79    0.87
  13   5 -20    7.67    0.81
 -13   5  20    7.41    1.03
 -13  -5  19   14.91    1.04
  13   5 -19   17.19    1.04
 -13   5  19   15.85    1.21
 -13  -5  18   79.51    2.99
  13   5 -18   72.03    2.70
 -13   5  18   79.53    2.98
 -13  -5  17    0.21    0.72
  13   5 -17    0.40    0.65
 -13   5  17    0.48    0.78
 -13  -5  16    7.10    0.82
  13   5 -16    5.87    0.76
 -13   5  16    4.80    0.90
 -13  -5  15    8.75    0.83
  13   5 -15    7.83    0.77
 -13   5  15   10.30    1.01
 -13  -5  14   27.02    1.29
  13   5 -14   27.43    1.29
 -13   5  14   28.70    1.47
 -13  -5  13    1.50    0.71
  13   5 -13    1.49    0.65
 -13   5  13    1.78    0.84
 -13  -5  12   -0.01    0.69
  13   5 -12    0.82    0.58
 -13   5  12    0.33    0.74
 -13  -5  11   34.67    1.50
  13   5 -11   32.23    1.42
 -13   5  11   37.10    1.64
 -13  -5  10   23.39    1.25
  13   5 -10   23.58    1.13
 -13   5  10   22.98    1.22
 -13  -5   9   57.80    2.28
  13   5  -9   62.74    2.36
 -13   5   9   59.74    2.30
  13  -5  -8    4.66    0.70
 -13  -5   8    4.37    0.64
  13   5  -8    3.19    0.66
 -13   5   8    2.72    0.76
  13  -5  -7   16.98    0.99
 -13  -5   7   18.33    1.01
  13   5  -7   20.40    1.07
 -13   5   7   17.91    1.05
  13  -5  -6    6.29    0.83
 -13  -5   6    7.08    0.73
  13   5  -6    7.11    0.69
 -13   5   6    6.31    0.79
  13  -5  -5    1.21    0.76
 -13  -5   5    0.43    0.52
  13   5  -5   -0.49    0.49
 -13   5   5    1.15    0.64
  13  -5  -4   57.02    2.24
 -13  -5   4   57.09    2.08
  13   5  -4   57.93    2.13
 -13   5   4   55.77    2.17
  13  -5  -3   35.11    1.56
 -13  -5   3   37.28    1.43
  13   5  -3   37.83    1.48
 -13   5   3   36.62    1.57
  13  -5  -2   85.08    3.08
 -13  -5   2   89.61    3.08
  13   5  -2   83.51    2.90
 -13   5   2   90.64    3.27
  13  -5  -1    1.10    0.70
 -13  -5   1    1.68    0.43
  13   5  -1    1.05    0.44
 -13   5   1    0.51    0.70
  13  -5   0    1.72    0.69
 -13  -5   0    2.05    0.43
  13   5   0    1.35    0.39
 -13   5   0    2.05    0.67
  13  -5   1   29.25    1.37
 -13  -5  -1   28.56    1.09
  13   5   1   26.18    1.03
 -13   5  -1   26.18    1.31
  13  -5   2   35.98    1.59
 -13  -5  -2   31.85    1.15
 -13   5  -2   34.43    1.53
 -13   5  -3   48.72    1.96
  13  -5   4  151.50    5.25
 -13   5  -4  150.10    5.18
  13  -5   5   21.20    1.17
 -13   5  -5   16.68    1.04
  13  -5   6    0.71    0.51
 -13   5  -6    1.25    0.69
  13  -5   7    0.57    0.52
 -13   5  -7    0.77    0.65
  13  -5   8    6.56    0.71
 -13   5  -8    5.88    0.77
  13  -5   9    9.67    0.81
 -13   5  -9   11.43    0.92
  13  -5  10    6.55    0.73
 -13   5 -10    4.95    0.75
  13  -5  11    4.13    0.63
 -13   5 -11    4.11    0.70
  13  -5  12   29.99    1.34
 -13   5 -12   27.94    1.33
  13  -5  13    0.88    0.57
 -13   5 -13    2.24    0.74
  13  -5  14    9.29    0.81
 -13   5 -14    9.03    0.86
  13  -5  15    4.08    0.65
 -13   5 -15    3.05    0.70
  13  -5  16   22.14    1.10
 -13   5 -16   21.92    1.14
  13  -5  17   -0.74    0.55
 -13   5 -17    0.68    0.62
  13  -5  18    8.89    0.77
 -13   5 -18    7.53    0.77
  13  -5  19    7.19    0.72
 -13   5 -19    7.85    0.76
  13  -5  20    6.05    0.69
 -13   5 -20    5.57    0.67
  13  -5  21   12.07    0.84
 -13   5 -21   11.37    0.79
  13  -5  22   24.72    1.19
 -13   5 -22   27.03    1.23
  13  -5  23   -0.03    0.56
 -13   5 -23    0.19    0.55
  13  -5  24   33.21    1.41
 -13   5 -24   36.46    1.48
  13  -5  25    0.15    0.62
 -13   5 -25    0.02    0.53
 -13  -7  25   -0.25    0.66
  13   7 -25    1.22    0.59
 -13   7  25    0.55    1.24
 -13   7  25    0.06    1.03
 -13  -7  24   10.65    0.83
  13   7 -24   10.51    0.78
 -13   7  24    9.90    1.16
 -13   7  24    8.41    1.22
 -13  -7  23    9.98    0.86
  13   7 -23   10.34    0.79
 -13   7  23   10.53    1.31
 -13  -7  22    3.43    0.72
  13   7 -22    2.42    0.70
 -13   7  22    0.92    1.07
 -13  -7  21   10.42    0.88
  13   7 -21   10.46    0.84
 -13   7  21    7.89    1.02
 -13  -7  20   -0.61    0.70
  13   7 -20   -0.06    0.65
 -13   7  20    1.50    1.00
 -13  -7  19    1.09    0.73
  13   7 -19    1.91    0.65
 -13   7  19    3.13    0.95
 -13  -7  18    5.32    0.73
  13   7 -18    5.80    0.75
 -13   7  18    6.72    1.00
 -13  -7  17   17.79    1.01
  13   7 -17   17.11    1.05
 -13   7  17   17.65    1.21
 -13  -7  16   33.75    1.49
  13   7 -16   34.45    1.52
 -13   7  16   34.17    1.58
 -13  -7  15  107.00    3.78
  13   7 -15  108.10    3.82
 -13   7  15  111.60    3.94
 -13  -7  14    2.37    0.77
  13   7 -14    3.52    0.67
 -13   7  14    2.42    0.85
 -13  -7  13   35.62    1.57
  13   7 -13   38.07    1.63
 -13   7  13   37.61    1.66
 -13  -7  12    0.11    0.70
  13   7 -12    0.39    0.64
 -13   7  12    0.03    0.79
 -13  -7  11   27.63    1.33
  13   7 -11   29.20    1.37
 -13   7  11   30.00    1.47
 -13  -7  10   23.26    1.12
  13   7 -10   24.97    1.21
 -13   7  10   26.44    1.36
  13  -7  -9   32.12    1.49
 -13  -7   9   31.64    1.39
  13   7  -9   33.54    1.47
 -13   7   9   31.12    1.45
  13  -7  -8    1.48    0.68
 -13  -7   8    2.39    0.59
  13   7  -8    1.50    0.60
 -13   7   8    2.06    0.80
  13  -7  -7    6.48    0.73
 -13  -7   7    7.59    0.68
  13   7  -7    6.72    0.71
 -13   7   7    6.20    0.89
  13  -7  -6   -0.55    0.67
 -13  -7   6    1.13    0.57
  13   7  -6    0.84    0.58
 -13   7   6    0.89    0.79
  13  -7  -5    7.40    0.89
 -13  -7   5    7.29    0.71
  13   7  -5    6.47    0.70
 -13   7   5    6.63    0.83
  13  -7  -4   14.12    1.02
 -13  -7   4   14.05    0.87
  13   7  -4   14.35    0.86
 -13   7   4   14.60    1.01
  13  -7  -3   30.51    1.44
 -13  -7   3   29.90    1.31
  13   7  -3   26.63    1.19
 -13   7   3   28.63    1.43
  13  -7  -2   10.06    0.89
 -13  -7   2   10.55    0.73
  13   7  -2   10.57    0.74
 -13   7   2   12.01    0.98
  13  -7  -1   48.21    1.93
 -13  -7   1   42.15    1.64
  13   7  -1   44.49    1.72
 -13   7   1   46.52    1.92
  13  -7   0    0.37    0.59
 -13  -7   0    0.64    0.47
  13   7   0   -0.04    0.46
 -13   7   0    0.61    0.75
  13  -7   1    0.69    0.60
 -13  -7  -1    0.75    0.50
  13   7   1   -0.02    0.56
 -13   7  -1   -0.18    0.74
  13  -7   2    4.56    0.72
 -13  -7  -2    6.14    0.55
  13   7   2    6.33    0.61
 -13   7  -2    6.18    0.82
  13  -7   3    3.21    0.65
 -13  -7  -3    2.89    0.47
  13   7   3    2.81    0.48
 -13   7  -3    2.44    0.76
  13  -7   4    2.73    0.66
  13   7   4    1.93    0.38
 -13   7  -4    2.24    0.71
  13  -7   5    5.86    0.69
 -13   7  -5    6.83    0.80
  13  -7   6    1.06    0.58
 -13   7  -6    1.36    0.67
  13  -7   7   15.52    0.91
 -13   7  -7   14.68    1.02
  13  -7   8    4.53    0.72
 -13   7  -8    2.87    0.74
  13  -7   9   29.20    1.34
 -13   7  -9   30.43    1.42
  13  -7  10   20.36    1.07
 -13   7 -10   22.93    1.17
  13  -7  11   59.49    2.23
 -13   7 -11   56.15    2.19
  13  -7  12   -0.30    0.58
 -13   7 -12   -0.43    0.60
  13  -7  13    3.46    0.61
 -13   7 -13    5.29    0.76
  13  -7  14    0.45    0.50
 -13   7 -14    0.53    0.69
  13  -7  15    1.73    0.60
 -13   7 -15    1.29    0.60
  13  -7  16    0.22    0.49
 -13   7 -16    0.15    0.56
  13  -7  17    1.81    0.58
 -13   7 -17    2.00    0.67
  13  -7  18    4.84    0.62
 -13   7 -18    4.84    0.69
  13  -7  19    2.14    0.53
 -13   7 -19    2.33    0.61
  13  -7  20    0.50    0.56
 -13   7 -20    0.71    0.54
 -13  -9  17    1.55    0.64
 -13  -9  16    4.53    0.64
  13   9 -16    6.38    0.81
 -13   9  16    5.92    1.02
 -13  -9  15    2.91    0.60
  13   9 -15    3.35    0.70
 -13   9  15    3.12    1.02
 -13  -9  14    2.93    0.66
  13   9 -14    3.10    0.81
 -13   9  14    2.75    1.02
 -13  -9  13   -0.56    0.58
  13   9 -13    0.65    0.70
 -13   9  13    0.83    0.96
 -13  -9  12    3.19    0.72
  13   9 -12    3.46    0.83
 -13   9  12    2.90    0.97
 -13  -9  11    9.02    0.85
  13   9 -11    8.14    0.86
 -13   9  11    7.45    1.06
 -13  -9  10    3.07    0.73
  13   9 -10    1.74    0.77
 -13   9  10    3.29    0.93
 -13  -9   9   48.77    1.93
  13   9  -9   51.72    2.08
 -13   9   9   48.72    2.05
  13  -9  -8    1.64    0.84
 -13  -9   8    1.60    0.70
  13   9  -8    2.70    0.72
 -13   9   8    2.86    0.80
  13  -9  -7    5.06    0.83
 -13  -9   7    7.58    0.86
  13   9  -7    7.80    0.86
 -13   9   7    7.39    0.96
  13   9  -6    7.72    0.86
 -13   9   6    6.37    0.95
  13  -9  -5    1.82    0.84
 -13  -9   5    0.70    0.71
  13   9  -5    1.30    0.72
 -13   9   5   -0.21    0.81
  13  -9  -4   12.53    0.98
 -13  -9   4   10.85    0.90
  13   9  -4   11.37    0.93
 -13   9   4   11.53    1.00
  13  -9  -3    4.13    0.84
 -13  -9   3    3.87    0.75
  13   9  -3    4.23    0.78
 -13   9   3    3.69    0.87
  13  -9  -2   26.06    1.36
 -13  -9   2   26.82    1.32
  13   9  -2   26.31    1.30
 -13   9   2   26.40    1.32
  13   9  -1    3.36    0.75
 -13   9   1    3.04    0.82
  13  -9   0    0.85    0.76
 -13  -9   0    0.84    0.74
  13   9   0    3.03    0.78
 -13   9   0    1.83    0.81
  13  -9   1    0.04    0.73
 -13  -9  -1    0.26    0.85
  13   9   1    0.93    0.92
 -13   9  -1   -0.17    0.72
  13  -9   2   -1.42    0.67
 -13  -9  -2   -0.51    0.76
  13   9   2   -0.48    0.85
 -13   9  -2   -0.57    0.79
  13  -9   3   17.99    1.07
  13   9   3   18.43    1.12
 -13   9  -3   15.78    1.05
  13  -9   4    1.12    0.62
 -13   9  -4   -0.44    0.76
  13  -9   5   22.05    1.13
 -13   9  -5   19.76    1.11
  13  -9   6    0.72    0.60
 -13   9  -6    1.05    0.74
  13  -9   7    0.93    0.66
 -13   9  -7    0.56    0.67
  13  -9   8    9.53    0.80
 -13   9  -8   11.51    0.91
  13  -9   9    0.91    0.57
 -13   9  -9    0.89    0.63
  13  -9  10   27.68    1.24
 -13   9 -10   28.47    1.33
  13  -9  11    0.21    0.55
 -13   9 -11    0.36    0.64
  13  -9  12    1.96    0.61
 -13   9 -12    1.56    0.64
 -14   0  34    1.41    0.85
 -14   0  33    0.30    0.88
 -14   0  32   20.19    1.28
 -14   0  31    0.15    0.85
 -14   0  30   22.49    1.25
 -14   0  29    0.27    0.83
 -14   0  28    4.98    0.89
 -14   0  27    0.72    0.80
 -14   0  26   24.66    1.33
 -14   0  25    0.41    0.82
 -14   0  24    5.34    0.90
 -14   0  23    0.97    0.81
 -14   0  22  193.80    6.60
 -14   0  21   -0.02    0.82
 -14   0  20   61.98    2.40
 -14   0  19   -0.52    0.65
 -14   0  18  147.00    5.07
 -14   0  17    0.59    0.59
 -14   0  16    0.92    0.63
 -14   0  15   -0.41    0.60
 -14   0  14    0.45    0.62
 -14   0  13   -0.19    0.59
 -14   0   4   81.80    2.90
 -14   0   3    0.03    0.61
 -14   0   2  256.20    8.48
  14   0  -1    1.41    0.52
 -14   0   1    1.14    0.58
 -14   0   0  742.20   24.19
  14   0   1   -0.11    0.53
 -14   0  -1   -0.04    0.51
  14   0   2   88.25    3.06
 -14   0  -2   81.03    2.83
  14   0   3    0.48    0.48
 -14   0  -3   -0.18    0.47
  14   0   4  279.20    9.21
 -14   0  -4  271.50    8.96
  14   0   5    0.28    0.51
 -14   0  -5   -0.10    0.45
  14   0   6   37.89    1.48
 -14   0  -6   37.51    1.48
  14   0   7    0.43    0.49
 -14   0  -7   -0.16    0.50
  14   0   8   55.82    2.05
 -14   0  -8   55.96    2.07
  14   0   9    0.25    0.50
 -14   0  -9    1.06    0.54
  14   0  10  125.60    4.31
 -14   0 -10  129.70    4.44
  14   0  11    0.13    0.57
 -14   0 -11    0.03    0.53
  14   0  12   -0.05    0.54
 -14   0 -12    0.22    0.49
  14   0  13    1.19    0.56
 -14   0 -13   -0.04    0.52
  14   0  14    6.97    0.68
 -14   0 -14    7.81    0.71
  14   0  15    0.37    0.58
 -14   0 -15   -0.31    0.54
  14   0  16    0.55    0.54
 -14   0 -16    0.79    0.54
  14   0  17    0.58    0.53
 -14   0 -17    0.22    0.55
  14   0  18    1.44    0.59
 -14   0 -18    1.49    0.57
  14   0  19    0.38    0.56
 -14   0 -19    1.09    0.58
  14   0  20   42.60    1.71
 -14   0 -20   43.58    1.74
  14   0  21    0.03    0.58
 -14   0 -21   -0.29    0.58
  14   0  22   62.19    2.33
 -14   0 -22   64.07    2.39
  14   0  23   -1.06    0.58
 -14   0 -23   -0.56    0.63
  14   0  24   13.24    0.90
 -14   0 -24   13.45    0.92
  14   0  25   -0.20    0.63
 -14   0 -25   -0.25    0.66
  14   0  26    1.24    0.68
  14   0  27    0.52    0.68
  14   0  28    0.15    0.71
  14   0  29   -0.09    0.88
 -14  -2  33   17.95    1.12
 -14   2  33   15.65    1.21
 -14  -2  32    0.94    0.75
 -14   2  32   -1.59    0.94
 -14  -2  31   11.06    1.05
 -14   2  31    8.58    1.01
 -14  -2  30    0.59    0.82
 -14   2  30   -0.84    0.79
 -14  -2  29   -0.27    0.72
 -14   2  29    0.16    0.76
 -14  -2  28    5.97    0.89
 -14   2  28    8.01    0.91
 -14  -2  27    9.09    0.89
 -14   2  27    6.65    0.92
 -14  -2  26   33.33    1.54
 -14   2  26   34.12    1.63
 -14  -2  25    2.47    0.82
 -14   2  25    2.88    0.89
 -14  -2  24   27.38    1.39
 -14   2  24   26.34    1.41
 -14  -2  23    4.41    0.84
 -14   2  23    3.03    0.87
 -14  -2  22   12.56    1.06
 -14   2  22   15.68    1.17
 -14  -2  21   14.82    1.13
 -14   2  21   17.24    1.16
 -14  -2  20   24.32    1.32
 -14   2  20   26.69    1.42
 -14  -2  19  105.60    3.75
 -14   2  19   97.56    3.51
 -14  -2  18   20.66    1.11
 -14  -2  17   12.14    0.92
 -14  -2  16   29.76    1.37
 -14  -2  15    6.88    0.79
 -14  -2  14   39.52    1.69
 -14  -2  13    1.14    0.61
 -14   2  13   -0.21    0.66
 -14  -2  12  173.00    5.87
 -14   2  12  139.60    4.81
 -14  -2  11   28.43    1.31
 -14   2  11   28.88    1.37
 -14  -2  10   25.29    1.18
 -14   2  10   28.63    1.34
 -14  -2   9  193.20    6.47
 -14   2   9  193.20    6.52
 -14  -2   8   41.77    1.65
 -14   2   8   46.49    1.86
 -14  -2   7  119.50    4.10
 -14   2   7  116.80    4.05
 -14  -2   6   56.26    2.09
 -14   2   6   50.56    1.98
  14  -2  -5  276.40    9.17
 -14  -2   5  274.40    9.06
 -14   2   5  275.90    9.17
  14  -2  -4   62.49    2.32
 -14  -2   4   63.77    2.29
 -14   2   4   65.89    2.45
  14  -2  -3    0.21    0.62
 -14  -2   3    0.65    0.48
 -14   2   3    0.84    0.62
  14  -2  -2  459.80   15.08
 -14  -2   2  470.70   15.40
 -14   2   2  449.20   14.76
  14  -2  -1    8.53    0.77
 -14  -2   1    8.30    0.56
 -14   2   1    7.95    0.76
  14  -2   0  545.60   17.86
 -14  -2   0  551.50   17.99
 -14  -2   0  542.70   17.71
 -14   2   0  498.90   16.37
  14  -2   1   17.98    0.99
 -14  -2  -1   14.81    0.62
 -14  -2  -1   15.43    0.65
 -14   2  -1   17.42    1.03
 -14  -2  -2   14.92    0.62
 -14  -2  -2   14.17    0.56
 -14   2  -2   12.58    0.82
  14  -2   3    0.73    0.63
 -14  -2  -3   -0.18    0.22
 -14   2  -3   -0.24    0.63
  14  -2   4   90.03    3.21
 -14  -2  -4   88.31    3.01
 -14   2  -4   86.85    3.09
  14  -2   5    9.17    0.80
 -14  -2  -5    8.54    0.35
 -14   2  -5    7.38    0.67
  14  -2   6    9.52    0.78
 -14  -2  -6    9.13    0.37
 -14   2  -6    8.13    0.70
  14  -2   7   97.31    3.44
 -14  -2  -7   96.42    3.25
  14   2   7   98.30    3.31
 -14   2  -7  104.70    3.68
  14  -2   8   17.82    1.02
 -14  -2  -8   18.75    0.71
  14   2   8   20.71    0.78
 -14   2  -8   20.35    1.09
  14  -2   9   50.12    1.97
 -14  -2  -9   45.07    1.57
  14   2   9   49.83    1.73
 -14   2  -9   49.13    1.93
  14  -2  10   89.50    3.20
 -14  -2 -10   89.20    3.01
  14   2  10   91.41    3.08
 -14   2 -10   99.53    3.54
  14  -2  11   11.68    0.88
  14   2  11   11.58    0.58
 -14   2 -11   11.95    0.87
  14  -2  12   48.43    1.95
  14  -2  13    5.92    0.78
  14   2  13    5.31    0.48
 -14   2 -13    4.71    0.75
  14  -2  14   52.53    2.05
  14   2  14   55.99    1.99
 -14   2 -14   51.23    2.04
  14  -2  15    1.58    0.58
  14   2  15    1.85    0.47
 -14   2 -15    1.97    0.61
  14  -2  16   48.12    1.93
  14   2  16   48.81    1.82
 -14   2 -16   46.74    1.87
  14  -2  17   16.27    0.98
  14   2  17   18.61    0.93
 -14   2 -17   18.05    1.00
  14  -2  18    2.53    0.70
  14   2  18    2.98    0.59
 -14   2 -18    2.79    0.68
  14  -2  19   30.20    1.39
  14   2  19   32.72    1.36
 -14   2 -19   34.02    1.48
  14  -2  20    1.22    0.67
  14   2  20    1.24    0.51
 -14   2 -20    1.46    0.65
  14  -2  21   12.84    0.92
  14   2  21   14.12    0.81
 -14   2 -21   13.29    0.91
  14  -2  22   -0.03    0.61
  14   2  22    0.52    0.54
 -14   2 -22    0.58    0.61
  14  -2  23    2.23    0.67
  14   2  23    3.58    0.68
 -14   2 -23    1.70    0.64
  14  -2  24    0.32    0.61
  14   2  24    0.74    0.63
 -14   2 -24    0.27    0.57
  14  -2  25    2.32    0.73
  14   2  25    3.36    0.73
 -14   2 -25    3.13    0.65
  14  -2  26    1.78    0.69
  14   2  26    1.11    0.73
 -14   2 -26    0.75    0.60
  14  -2  27    0.20    0.70
  14   2  27    1.22    0.75
 -14   2 -27    0.66    0.60
  14  -2  28    7.57    0.84
  14   2  28    6.80    0.96
 -14   2 -28    8.63    0.78
 -14  -4  31    9.64    0.91
 -14   4  31    8.23    1.20
 -14   4  31   10.04    1.16
 -14  -4  30    1.75    0.72
 -14   4  30    1.57    0.97
 -14   4  30    2.15    1.28
 -14  -4  29    4.60    0.77
 -14   4  29    5.16    0.94
 -14   4  29    2.88    1.19
 -14  -4  28    1.74    0.68
 -14   4  28    0.77    1.10
 -14   4  28    1.35    0.99
 -14  -4  27   30.78    1.47
 -14   4  27   31.39    1.57
 -14   4  27   33.74    1.75
 -14  -4  26   -0.32    0.67
 -14   4  26    2.09    0.89
 -14   4  26    0.73    0.87
 -14  -4  25   87.39    3.21
 -14   4  25   93.50    3.42
 -14   4  25   94.28    3.44
 -14  -4  24    7.64    0.85
 -14   4  24    7.38    1.05
 -14   4  24    6.52    0.96
 -14  -4  23   21.54    1.18
 -14   4  23   23.20    1.32
 -14   4  23   21.35    1.28
 -14  -4  22    5.39    0.86
 -14   4  22    5.01    0.90
 -14   4  22    5.75    1.05
 -14  -4  21    8.12    0.96
  14   4 -21    7.36    0.77
 -14   4  21    7.51    1.01
 -14  -4  20    5.48    0.90
  14   4 -20    4.03    0.73
 -14   4  20    6.55    0.94
 -14  -4  19    0.00    0.73
  14   4 -19   -0.53    0.61
 -14   4  19   -0.38    0.83
 -14  -4  18   13.19    0.97
  14   4 -18   12.06    0.89
 -14   4  18   14.36    1.10
 -14  -4  17    9.55    0.98
  14   4 -17    8.51    0.81
 -14   4  17    9.63    0.97
 -14  -4  16    2.10    0.81
  14   4 -16    2.29    0.64
 -14   4  16    1.73    0.86
 -14  -4  15   59.89    2.37
  14   4 -15   62.87    2.42
 -14   4  15   61.85    2.40
 -14  -4  14    0.40    0.74
  14   4 -14    0.07    0.66
 -14   4  14   -0.22    0.67
 -14  -4  13   96.33    3.45
  14   4 -13   95.71    3.42
 -14   4  13   97.09    3.51
 -14  -4  12   50.07    2.00
  14   4 -12   53.60    2.10
 -14   4  12   52.12    2.09
 -14  -4  11   93.91    3.34
  14   4 -11   99.43    3.52
 -14   4  11   90.78    3.27
 -14  -4  10    0.55    0.58
  14   4 -10    0.77    0.58
 -14   4  10    0.67    0.64
 -14  -4   9  173.00    5.86
  14   4  -9  161.10    5.47
 -14   4   9  163.90    5.60
  14  -4  -8    0.07    0.65
 -14  -4   8   -0.44    0.59
  14   4  -8    0.17    0.52
 -14   4   8    0.16    0.64
  14  -4  -7  138.50    4.76
 -14  -4   7  156.50    5.34
  14   4  -7  149.00    5.07
 -14   4   7  147.00    5.07
  14  -4  -6  198.70    6.67
 -14  -4   6  206.20    6.92
  14   4  -6  196.20    6.57
 -14   4   6  209.20    7.07
  14  -4  -5    6.43    0.72
 -14  -4   5    7.44    0.68
  14   4  -5    5.73    0.63
 -14   4   5    6.62    0.79
  14  -4  -4    2.32    0.68
 -14  -4   4    2.46    0.55
  14   4  -4    2.00    0.51
 -14   4   4    1.73    0.70
  14  -4  -3    4.02    0.72
 -14  -4   3    5.26    0.55
  14   4  -3    5.81    0.56
 -14   4   3    5.19    0.78
  14  -4  -2    0.70    0.66
 -14  -4   2   -0.10    0.42
 -14   4   2    2.00    0.68
  14  -4  -1  143.40    4.96
 -14  -4   1  153.40    5.12
 -14   4   1  143.90    4.96
  14  -4   0   20.27    1.12
 -14  -4   0   19.04    0.82
 -14   4   0   17.95    1.06
  14  -4   1  192.10    6.50
 -14  -4  -1  204.80    6.78
 -14   4  -1  185.90    6.30
  14  -4   2   31.12    1.42
 -14  -4  -2   30.45    1.08
 -14   4  -2   29.07    1.34
  14  -4   3   11.54    0.89
 -14   4  -3   11.39    0.85
  14  -4   4  161.60    5.55
 -14   4  -4  161.50    5.53
  14  -4   5    0.83    0.68
 -14   4  -5    0.34    0.69
  14  -4   6   33.95    1.53
 -14   4  -6   35.41    1.57
  14  -4   7    0.88    0.66
 -14   4  -7    0.77    0.64
  14  -4   8    2.87    0.76
 -14   4  -8    2.89    0.70
  14  -4   9   41.15    1.74
 -14   4  -9   38.42    1.68
  14  -4  10   30.60    1.38
 -14   4 -10   30.29    1.39
  14  -4  11   34.88    1.52
 -14   4 -11   34.60    1.52
  14  -4  12    6.48    0.68
 -14   4 -12    5.82    0.74
  14  -4  13    7.72    0.71
 -14   4 -13    6.61    0.80
  14  -4  14   26.60    1.25
 -14   4 -14   29.40    1.39
  14  -4  15  135.10    4.68
 -14   4 -15  141.20    4.89
  14  -4  16   18.99    1.04
 -14   4 -16   17.28    1.01
  14  -4  17   44.98    1.80
 -14   4 -17   39.89    1.67
  14  -4  18    2.46    0.63
 -14   4 -18    2.63    0.61
  14  -4  19    1.74    0.57
 -14   4 -19    1.86    0.56
  14  -4  20    2.03    0.58
 -14   4 -20    2.45    0.58
  14  -4  21    9.10    0.77
 -14   4 -21   11.24    0.81
  14  -4  22    1.98    0.59
 -14   4 -22    0.99    0.57
  14  -4  23    1.10    0.60
 -14   4 -23   -0.19    0.54
  14  -4  24    0.32    0.61
 -14   4 -24    0.53    0.57
  14  -4  25   26.67    1.26
 -14   4 -25   24.24    1.13
  14  -4  26    1.76    0.68
 -14   4 -26    0.76    0.61
 -14  -6  28    1.76    0.59
 -14   6  28    2.61    1.42
 -14   6  28    1.99    1.10
 -14  -6  27    3.21    0.70
 -14   6  27    5.01    1.10
 -14   6  27    2.22    1.15
 -14  -6  26    9.40    0.81
  14   6 -26   10.53    0.75
 -14   6  26   10.11    1.18
 -14   6  26    8.03    1.21
 -14  -6  25    2.23    0.68
  14   6 -25    1.57    0.62
 -14   6  25    0.91    1.14
 -14   6  25    2.89    0.98
 -14  -6  24    0.40    0.68
  14   6 -24    0.16    0.60
 -14   6  24   -0.04    1.04
 -14   6  24    0.54    0.91
 -14  -6  23    1.95    0.79
  14   6 -23    3.00    0.67
 -14   6  23    3.36    1.02
 -14  -6  22    2.54    0.73
  14   6 -22    2.42    0.64
 -14   6  22    0.26    1.00
 -14  -6  21    3.28    0.78
  14   6 -21    3.65    0.73
 -14   6  21    3.74    0.95
 -14  -6  20   31.84    1.48
  14   6 -20   28.43    1.36
 -14   6  20   27.80    1.48
 -14  -6  19   17.82    1.05
  14   6 -19   17.21    1.02
 -14   6  19   19.25    1.21
 -14  -6  18   19.46    1.11
  14   6 -18   16.92    1.02
 -14   6  18   16.61    1.15
 -14  -6  17   -0.51    0.75
  14   6 -17    0.66    0.65
 -14   6  17   -0.56    0.79
 -14  -6  16   -0.24    0.79
  14   6 -16    0.62    0.68
 -14   6  16   -0.25    0.78
 -14  -6  15    2.03    0.71
  14   6 -15    1.60    0.66
 -14   6  15    2.22    0.82
 -14  -6  14    9.08    0.87
  14   6 -14   11.08    0.88
 -14   6  14   11.86    1.10
 -14  -6  13   28.78    1.37
  14   6 -13   29.74    1.37
 -14   6  13   30.74    1.47
 -14  -6  12   45.70    1.85
  14   6 -12   45.76    1.87
 -14   6  12   45.01    1.92
 -14  -6  11   60.74    2.28
  14   6 -11   61.67    2.33
 -14   6  11   61.07    2.40
 -14  -6  10   56.01    2.16
  14   6 -10   51.98    2.05
 -14   6  10   52.34    2.12
  14  -6  -9  110.20    3.93
 -14  -6   9  110.20    3.87
  14   6  -9  102.30    3.61
 -14   6   9  110.10    3.93
  14  -6  -8    0.09    0.73
 -14  -6   8    0.26    0.61
  14   6  -8    0.02    0.54
 -14   6   8   -0.59    0.80
  14  -6  -7   25.71    1.28
 -14  -6   7   22.90    1.18
  14   6  -7   22.53    1.11
 -14   6   7   23.66    1.30
  14  -6  -6    2.28    0.70
 -14  -6   6    1.92    0.62
  14   6  -6    2.03    0.53
 -14   6   6    1.43    0.80
  14  -6  -5   74.82    2.73
 -14  -6   5   70.81    2.61
  14   6  -5   74.18    2.68
 -14   6   5   74.46    2.79
  14  -6  -4    0.48    0.63
 -14  -6   4    1.10    0.51
  14   6  -4    0.82    0.50
 -14   6   4    0.84    0.78
  14  -6  -3    4.67    0.74
 -14  -6   3    5.07    0.57
  14   6  -3    5.85    0.59
 -14   6   3    6.64    0.88
  14  -6  -2    0.45    0.69
 -14  -6   2    0.37    0.44
  14   6  -2    0.79    0.45
 -14   6   2    0.13    0.70
  14  -6  -1   39.76    1.72
 -14  -6   1   38.31    1.46
  14   6  -1   41.55    1.57
 -14   6   1   40.55    1.74
  14  -6   0    1.14    0.64
 -14  -6   0    0.57    0.43
  14   6   0    0.05    0.49
 -14   6   0    1.10    0.72
  14  -6   1    1.91    0.66
 -14  -6  -1    3.01    0.42
  14   6   1    3.34    0.48
 -14   6  -1    2.18    0.78
  14  -6   2   90.23    3.23
 -14  -6  -2   89.12    3.02
 -14   6  -2   86.44    3.17
  14  -6   3   12.45    0.85
 -14  -6  -3   12.35    0.55
 -14   6  -3   12.92    0.97
  14  -6   4    1.32    0.59
 -14   6  -4    0.72    0.71
  14  -6   5   15.77    0.98
 -14   6  -5   14.74    1.01
  14  -6   6   -0.24    0.63
 -14   6  -6   -0.06    0.70
  14  -6   7   78.03    2.87
 -14   6  -7   83.88    3.08
  14  -6   8    1.06    0.61
 -14   6  -8   -0.07    0.68
  14  -6   9    3.32    0.65
 -14   6  -9    5.07    0.78
  14  -6  10   43.94    1.80
 -14   6 -10   41.92    1.77
  14  -6  11   16.66    1.02
 -14   6 -11   16.85    1.05
  14  -6  12    7.61    0.75
 -14   6 -12    7.73    0.84
  14  -6  13    0.62    0.55
 -14   6 -13   -0.19    0.70
  14  -6  14   28.47    1.30
 -14   6 -14   29.35    1.40
  14  -6  15    0.14    0.59
 -14   6 -15    0.35    0.64
  14  -6  16   -0.16    0.51
 -14   6 -16    1.28    0.61
  14  -6  17    0.84    0.61
 -14   6 -17    0.93    0.65
  14  -6  18   -0.11    0.52
 -14   6 -18    0.24    0.58
  14  -6  19   30.44    1.33
 -14   6 -19   26.90    1.21
  14  -6  20   12.72    0.83
 -14   6 -20   15.36    0.90
  14  -6  21   19.15    0.99
 -14   6 -21   23.32    1.10
  14  -6  22    2.01    0.56
 -14   6 -22    2.73    0.60
 -14  -8  21   -0.95    0.67
  14   8 -21    0.04    0.64
 -14   8  21    0.73    1.10
 -14  -8  20    8.44    0.78
  14   8 -20   11.00    0.85
 -14   8  20    7.48    1.17
 -14  -8  19    1.00    0.74
  14   8 -19    0.70    0.66
 -14   8  19    0.11    1.00
 -14  -8  18   30.61    1.39
  14   8 -18   30.06    1.39
 -14   8  18   28.03    1.49
 -14  -8  17    0.84    0.62
  14   8 -17    1.62    0.66
 -14   8  17    1.15    0.91
 -14  -8  16   16.50    1.01
  14   8 -16   14.65    0.97
 -14   8  16   11.94    1.08
 -14  -8  15   10.46    0.90
  14   8 -15   10.07    0.86
 -14   8  15    7.88    0.97
 -14  -8  14    3.49    0.72
  14   8 -14    3.35    0.69
 -14   8  14    2.49    0.77
 -14  -8  13    2.71    0.70
  14   8 -13    4.60    0.78
 -14   8  13    3.80    0.87
 -14  -8  12    3.60    0.72
  14   8 -12    3.21    0.66
 -14   8  12    2.23    0.86
 -14  -8  11    3.62    0.69
  14   8 -11    2.10    0.70
 -14   8  11    2.51    0.83
 -14  -8  10    1.21    0.65
  14   8 -10    0.42    0.62
 -14   8  10    1.99    0.74
  14  -8  -9   30.02    1.41
 -14  -8   9   27.81    1.29
  14   8  -9   26.98    1.27
 -14   8   9   27.97    1.42
  14  -8  -8   12.42    0.92
 -14  -8   8   14.40    0.91
  14   8  -8   13.66    0.90
 -14   8   8   15.23    1.01
  14  -8  -7   13.79    0.96
 -14  -8   7   15.19    0.96
  14   8  -7   14.32    0.92
 -14   8   7   13.82    1.02
  14  -8  -6   56.65    2.23
 -14  -8   6   54.53    2.07
  14   8  -6   54.22    2.08
 -14   8   6   55.29    2.17
  14  -8  -5    2.94    0.82
 -14  -8   5    2.53    0.62
  14   8  -5    2.41    0.65
 -14   8   5    2.83    0.86
  14  -8  -4   52.45    2.08
 -14  -8   4   50.44    1.94
  14   8  -4   50.34    1.94
 -14   8   4   52.52    2.10
  14  -8  -3   15.22    1.01
 -14  -8   3   17.08    0.94
  14   8  -3   15.83    0.92
 -14   8   3   16.35    1.10
  14  -8  -2   43.58    1.80
 -14  -8   2   42.07    1.66
  14   8  -2   40.43    1.62
 -14   8   2   41.39    1.76
  14  -8  -1    2.08    0.78
 -14  -8   1    1.69    0.55
  14   8  -1    0.67    0.56
 -14   8   1    0.55    0.71
  14  -8   0   51.27    2.07
 -14  -8   0   51.02    1.94
  14   8   0   48.33    1.88
 -14   8   0   49.69    2.04
  14  -8   1    8.35    0.83
 -14  -8  -1    7.73    0.72
  14   8   1    8.98    0.76
 -14   8  -1    9.38    0.88
  14  -8   2    4.02    0.69
 -14  -8  -2    3.91    0.59
  14   8   2    2.25    0.61
 -14   8  -2    4.68    0.78
  14  -8   3    0.87    0.62
 -14  -8  -3    2.23    0.48
 -14   8  -3    1.85    0.75
  14  -8   4    3.47    0.68
 -14   8  -4    1.67    0.72
  14  -8   5    6.97    0.74
 -14   8  -5    5.74    0.77
  14  -8   6    0.96    0.60
 -14   8  -6    2.97    0.75
  14  -8   7   12.61    0.86
 -14   8  -7   13.62    0.94
  14  -8   8   87.96    3.16
 -14   8  -8   91.62    3.28
  14  -8   9   31.87    1.36
 -14   8  -9   32.19    1.44
  14  -8  10    2.05    0.58
 -14   8 -10    1.14    0.66
  14  -8  11    2.66    0.60
 -14   8 -11    3.07    0.78
  14  -8  12    2.58    0.54
 -14   8 -12    2.70    0.72
  14  -8  13    0.96    0.57
 -14   8 -13   -0.33    0.59
  14  -8  14    1.01    0.53
 -14   8 -14   -0.33    0.66
  14  -8  15    4.76    0.60
 -14   8 -15    5.28    0.63
  14  -8  16    3.06    0.56
 -14   8 -16    2.43    0.59
  14 -10  -6    2.90    0.94
 -14 -10   6    3.74    0.97
  14 -10  -5    1.13    0.81
 -14 -10   5    1.59    0.99
  14  10  -5    0.16    1.06
 -14  10   5    1.03    0.85
  14 -10  -4    0.65    0.80
 -14 -10   4    1.31    0.97
  14  10  -4    1.68    1.08
 -14  10   4    1.36    0.82
  14 -10  -3    3.36    0.79
 -14 -10   3    2.89    1.09
  14  10  -3    3.19    1.08
 -14  10   3    4.09    0.93
  14 -10  -2   28.09    1.36
 -14 -10   2   27.02    1.60
  14  10  -2   28.43    1.57
 -14  10   2   24.36    1.36
  14 -10  -1    2.40    0.81
 -14 -10   1    2.49    1.29
  14  10  -1    1.71    1.22
 -14  10   1    3.69    0.94
  14 -10   0   16.88    1.18
 -14 -10   0   15.61    1.47
  14  10   0   18.22    1.59
 -14  10   0   16.71    1.20
  14 -10   1    5.18    0.93
 -14 -10  -1    4.11    1.26
 -15  -1  34    3.59    0.92
 -15   1  34    2.26    0.87
 -15  -1  33    6.84    0.93
 -15   1  33    4.49    0.94
 -15  -1  32   10.09    0.99
 -15   1  32   10.35    1.07
 -15  -1  31    6.29    0.96
 -15   1  31    4.50    0.87
 -15  -1  30    1.73    0.82
 -15   1  30    2.74    0.80
 -15  -1  29   18.17    1.19
 -15   1  29   20.30    1.20
 -15  -1  28   14.06    1.04
 -15   1  28   11.30    1.00
 -15  -1  27    4.99    0.87
 -15   1  27    5.07    0.87
 -15  -1  26   23.59    1.30
 -15   1  26   25.71    1.38
 -15  -1  25    0.84    0.76
 -15   1  25    1.11    0.84
 -15  -1  24   35.34    1.59
 -15   1  24   34.57    1.60
 -15  -1  23    6.55    0.94
 -15   1  23    7.27    0.92
 -15  -1  22    0.60    0.85
 -15   1  22    1.57    0.89
 -15  -1  21   26.18    1.37
 -15   1  21   26.44    1.44
 -15  -1  20   32.22    1.57
 -15   1  20   26.48    1.34
 -15  -1  19    1.35    0.69
 -15   1  19    1.39    0.63
 -15  -1  18    2.03    0.67
 -15   1  18    1.01    0.65
 -15  -1  17    6.43    0.76
 -15   1  17    6.39    0.73
 -15  -1  16    8.47    0.77
 -15  -1  15    0.90    0.67
 -15  -1  14   34.03    1.47
 -15  -1  13    0.80    0.61
 -15  -1  12    4.22    0.70
 -15  -1  11   56.36    2.17
 -15  -1  10   92.29    3.27
 -15  -1   9   10.34    0.79
 -15  -1   8   76.80    2.76
 -15   1   8   50.81    2.01
 -15   1   7   26.59    1.28
 -15   1   6   18.84    1.07
 -15   1   5    5.07    0.76
 -15   1   4   28.51    1.30
  15  -1  -3   38.05    1.58
 -15   1   3   31.93    1.41
  15  -1  -2   41.82    1.67
 -15  -1   2   37.94    1.47
 -15   1   2   38.97    1.59
  15  -1  -1   30.43    1.32
 -15  -1   1   26.59    1.12
 -15   1   1   24.95    1.17
  15  -1   0   75.87    2.71
 -15  -1   0   75.03    2.61
 -15   1   0   75.27    2.71
  15  -1   1    4.57    0.67
 -15  -1  -1    3.83    0.50
 -15   1  -1    4.19    0.60
  15  -1   2   73.32    2.63
 -15  -1  -2   74.16    2.57
 -15   1  -2   72.30    2.61
  15  -1   3  331.70   10.94
 -15  -1  -3  325.30   10.67
  15   1   3  335.20   10.99
 -15   1  -3  312.60   10.33
  15  -1   4   42.54    1.69
 -15  -1  -4   41.67    1.52
  15   1   4   42.38    1.55
 -15   1  -4   43.59    1.71
  15  -1   5  190.40    6.39
 -15  -1  -5  190.20    6.29
  15   1   5  190.50    6.30
 -15   1  -5  188.30    6.33
  15  -1   6    0.80    0.58
 -15  -1  -6    0.56    0.38
  15   1   6    0.42    0.39
 -15   1  -6    1.08    0.58
  15  -1   7   13.21    0.85
 -15  -1  -7   15.13    0.71
  15   1   7   14.35    0.71
 -15   1  -7   12.31    0.79
  15  -1   8   20.76    1.06
 -15  -1  -8   18.81    0.85
  15   1   8   18.73    0.86
 -15   1  -8   20.31    1.06
  15  -1   9  172.20    5.83
 -15  -1  -9  176.80    5.89
  15   1   9  179.20    5.97
 -15   1  -9  158.90    5.41
  15  -1  10    0.90    0.60
 -15  -1 -10    0.75    0.43
  15   1  10    1.38    0.45
 -15   1 -10    0.52    0.59
  15  -1  11  209.70    7.04
 -15  -1 -11  214.30    7.13
  15   1  11  220.50    7.33
 -15   1 -11  210.70    7.08
  15  -1  12    5.23    0.70
 -15  -1 -12    4.90    0.57
  15   1  12    5.35    0.58
 -15   1 -12    4.91    0.68
  15  -1  13    2.09    0.65
 -15  -1 -13    3.40    0.53
  15   1  13    3.71    0.57
 -15   1 -13    2.81    0.64
  15  -1  14   16.54    0.95
 -15  -1 -14   19.21    0.95
  15   1  14   18.30    0.93
 -15   1 -14   15.70    0.95
  15  -1  15   23.87    1.12
 -15  -1 -15   21.54    1.00
  15   1  15   23.67    1.07
 -15   1 -15   24.57    1.20
  15  -1  16  169.30    5.78
 -15  -1 -16  162.10    5.45
  15   1  16  170.20    5.73
 -15   1 -16  170.50    5.81
  15  -1  17   16.37    0.97
 -15  -1 -17   15.28    0.84
  15   1  17   12.94    0.82
 -15   1 -17   14.17    0.91
  15  -1  18    0.47    0.65
 -15  -1 -18    2.04    0.52
  15   1  18    1.38    0.55
 -15   1 -18    1.52    0.62
  15  -1  19    2.34    0.67
 -15  -1 -19    2.50    0.57
  15   1  19    2.35    0.59
 -15   1 -19    2.59    0.62
  15  -1  20   11.14    0.89
 -15  -1 -20    9.07    0.72
  15   1  20   10.61    0.78
 -15   1 -20   10.83    0.82
  15  -1  21   12.91    0.90
  15   1  21   12.11    0.82
 -15   1 -21   14.09    0.91
  15  -1  22    2.86    0.67
  15   1  22    2.39    0.62
 -15   1 -22    2.86    0.64
  15  -1  23    9.61    0.84
  15   1  23   10.12    0.82
 -15   1 -23   10.84    0.83
  15  -1  24    4.25    0.70
  15   1  24    4.72    0.71
 -15   1 -24    5.82    0.77
  15  -1  25    3.83    0.73
  15   1  25    2.04    0.74
 -15   1 -25    3.46    0.74
  15  -1  26    1.79    0.71
  15   1  26    0.92    0.73
 -15   1 -26    1.11    0.71
  15  -1  27    5.25    0.78
  15   1  27    5.48    0.90
 -15   1 -27    6.85    0.80
  15  -1  28   17.79    1.09
 -15  -3  32    4.52    0.78
 -15   3  32    5.10    1.17
 -15   3  32    5.57    0.99
 -15  -3  31    5.17    0.78
 -15   3  31    3.76    0.97
 -15   3  31    3.77    1.05
 -15  -3  30   35.96    1.61
 -15   3  30   31.68    1.55
 -15   3  30   32.68    1.61
 -15  -3  29   13.04    1.03
 -15   3  29   13.61    1.12
 -15   3  29   15.44    1.16
 -15  -3  28    0.36    0.71
 -15   3  28   -0.81    0.80
 -15   3  28   -0.95    0.86
 -15  -3  27   17.56    1.15
 -15   3  27   17.83    1.15
 -15   3  27   14.79    1.11
 -15  -3  26    5.24    0.81
 -15   3  26    2.98    0.89
 -15   3  26    3.37    0.91
 -15  -3  25   20.18    1.19
 -15   3  25   20.88    1.28
 -15   3  25   19.41    1.27
 -15  -3  24    3.34    0.84
 -15   3  24    1.70    0.87
 -15   3  24    2.06    0.85
 -15  -3  23    9.46    0.93
 -15   3  23   10.31    1.04
 -15   3  23   11.01    1.12
 -15  -3  22   40.62    1.77
 -15   3  22   47.19    2.02
 -15   3  22   44.87    1.94
 -15  -3  21   28.43    1.41
 -15   3  21   27.96    1.51
 -15   3  21   27.84    1.45
 -15  -3  20   38.90    1.79
 -15   3  20   45.07    1.98
 -15  -3  19   43.93    1.91
 -15   3  19   47.09    2.01
 -15  -3  18    1.63    0.81
 -15   3  18    1.99    0.86
 -15  -3  17   32.12    1.50
 -15   3  17   31.98    1.48
 -15  -3  16   45.99    1.88
 -15   3  16   40.41    1.72
 -15  -3  15   20.58    1.09
 -15   3  15   20.38    1.13
 -15  -3  14  323.20   10.74
 -15   3  14  340.00   11.27
 -15  -3  13    2.00    0.71
 -15   3  13    1.37    0.74
 -15  -3  12   36.61    1.56
 -15   3  12   44.84    1.85
 -15  -3  11   16.80    1.02
 -15   3  11   15.38    1.00
 -15  -3  10    3.50    0.69
 -15   3  10    4.52    0.74
 -15  -3   9    6.15    0.67
 -15   3   9    7.02    0.79
 -15  -3   8   10.12    0.74
 -15   3   8   13.04    0.91
  15  -3  -7   11.94    0.91
 -15  -3   7   12.13    0.75
 -15   3   7   10.61    0.86
  15  -3  -6   14.22    0.99
 -15  -3   6   13.24    0.79
 -15   3   6   13.52    0.97
  15  -3  -5    4.65    0.70
 -15  -3   5    4.65    0.56
 -15   3   5    4.46    0.75
  15  -3  -4  190.60    6.43
 -15  -3   4  194.50    6.48
 -15   3   4  185.20    6.28
  15  -3  -3   74.82    2.74
 -15  -3   3   77.11    2.67
 -15   3   3   73.79    2.71
  15  -3  -2  129.50    4.49
 -15  -3   2  131.80    4.41
 -15   3   2  123.90    4.30
  15  -3  -1   86.60    3.12
 -15  -3   1   90.36    3.06
 -15   3   1   89.06    3.19
  15  -3   0   48.85    1.95
 -15  -3   0   48.96    1.71
 -15   3   0   47.82    1.88
  15  -3   1    0.15    0.62
 -15  -3  -1    0.31    0.29
 -15  -3  -1    0.07    0.23
 -15   3  -1   -0.41    0.56
  15  -3   2    4.94    0.69
 -15   3  -2    4.78    0.73
  15  -3   3    1.79    0.61
 -15   3  -3    1.76    0.60
  15  -3   4    0.89    0.66
 -15   3  -4    0.40    0.63
  15  -3   5   11.50    0.91
 -15   3  -5   10.13    0.79
  15  -3   6    1.72    0.64
 -15   3  -6    1.80    0.61
  15  -3   7  104.70    3.69
 -15   3  -7  104.70    3.71
  15  -3   8    0.15    0.65
 -15   3  -8    0.58    0.65
  15  -3   9   39.73    1.66
 -15   3  -9   37.30    1.61
  15  -3  10  125.30    4.37
 -15   3 -10  134.90    4.69
  15  -3  11   19.62    1.14
 -15   3 -11   21.82    1.18
  15  -3  12  127.00    4.43
 -15   3 -12  117.50    4.12
  15  -3  13   12.56    0.90
 -15   3 -13   12.70    0.88
  15  -3  14   20.97    1.13
 -15   3 -14   20.86    1.17
  15  -3  15   21.71    1.13
 -15   3 -15   23.12    1.18
  15  -3  16    3.27    0.72
  15   3  16    3.78    0.30
 -15   3 -16    3.79    0.71
  15  -3  17    0.35    0.56
  15   3  17    0.35    0.33
 -15   3 -17    1.00    0.65
  15  -3  18   23.79    1.18
  15   3  18   24.19    0.96
 -15   3 -18   21.81    1.12
  15  -3  19   12.09    0.89
  15   3  19   12.82    0.67
 -15   3 -19   11.70    0.86
  15  -3  20    1.18    0.63
  15   3  20    1.09    0.46
 -15   3 -20    0.64    0.62
  15  -3  21    1.73    0.59
  15   3  21    1.73    0.53
 -15   3 -21    2.42    0.67
  15  -3  22   90.37    3.23
  15   3  22  100.50    3.46
 -15   3 -22   92.51    3.29
  15  -3  23    0.98    0.64
  15   3  23    0.23    0.64
 -15   3 -23    1.13    0.58
  15  -3  24    2.03    0.71
  15   3  24    1.40    0.73
 -15   3 -24    1.92    0.61
  15  -3  25   13.23    0.93
  15   3  25   14.63    1.05
 -15   3 -25   12.93    0.86
  15  -3  26    7.43    0.78
  15   3  26    9.26    1.02
 -15   3 -26    6.62    0.67
  15  -3  27   -0.43    0.72
  15   3  27    0.19    1.11
 -15   3 -27   -0.18    0.60
 -15  -5  30    8.64    0.76
 -15   5  30   10.76    1.28
 -15   5  30    7.18    1.43
 -15  -5  29    5.11    0.74
 -15   5  29    4.54    1.00
 -15   5  29    5.28    1.29
 -15  -5  28    6.63    0.76
 -15   5  28    6.58    1.25
 -15   5  28    5.95    0.98
 -15  -5  27   27.51    1.29
 -15   5  27   25.83    1.53
 -15   5  27   27.36    1.50
 -15  -5  26    7.01    0.80
 -15   5  26    9.78    1.10
 -15   5  26    9.09    1.00
 -15  -5  25   -0.93    0.70
 -15   5  25   -0.09    0.89
 -15   5  25   -1.05    1.05
 -15  -5  24    2.33    0.72
 -15   5  24    2.03    0.87
 -15   5  24    1.96    0.91
 -15  -5  23   32.12    1.53
  15   5 -23   33.09    1.46
 -15   5  23   30.73    1.59
 -15  -5  22    4.45    0.76
  15   5 -22    2.41    0.66
 -15   5  22    1.69    0.92
 -15  -5  21    8.44    0.87
  15   5 -21    5.77    0.73
 -15   5  21    6.75    0.95
 -15  -5  20   27.29    1.42
  15   5 -20   30.41    1.40
 -15   5  20   33.17    1.64
 -15  -5  19    2.43    0.83
  15   5 -19    1.96    0.65
 -15   5  19    3.25    0.88
 -15  -5  18   12.12    0.97
  15   5 -18   12.97    0.92
 -15   5  18   12.86    1.08
 -15  -5  17   84.89    3.09
  15   5 -17   88.42    3.21
 -15   5  17   84.25    3.14
 -15  -5  16    9.21    0.83
  15   5 -16    7.20    0.79
 -15   5  16    7.66    0.98
 -15  -5  15    9.79    0.86
  15   5 -15    8.93    0.84
 -15   5  15   11.20    1.02
 -15  -5  14    2.43    0.74
  15   5 -14    3.24    0.67
 -15   5  14    2.30    0.88
 -15  -5  13   14.28    1.05
  15   5 -13   14.02    0.93
 -15   5  13   13.54    1.06
 -15  -5  12    3.17    0.74
  15   5 -12    2.58    0.63
 -15   5  12    2.51    0.79
 -15  -5  11    4.56    0.81
  15   5 -11    3.23    0.62
 -15   5  11    4.60    0.85
 -15  -5  10   55.72    2.20
  15   5 -10   58.87    2.24
 -15   5  10   59.81    2.34
 -15  -5   9    4.27    0.73
  15   5  -9    4.25    0.65
 -15   5   9    4.16    0.79
  15  -5  -8   88.66    3.20
 -15  -5   8   86.61    3.09
  15   5  -8   86.26    3.07
 -15   5   8   88.95    3.23
  15  -5  -7    7.11    0.84
 -15  -5   7    5.69    0.69
  15   5  -7    6.14    0.70
 -15   5   7    5.49    0.75
  15  -5  -6    1.44    0.73
 -15  -5   6    1.47    0.55
  15   5  -6    1.57    0.61
 -15   5   6    1.73    0.68
  15  -5  -5   14.57    1.06
 -15  -5   5   15.61    0.85
  15   5  -5   14.31    0.85
 -15   5   5   13.77    1.00
  15  -5  -4   77.61    2.90
 -15  -5   4   79.65    2.80
  15   5  -4   80.52    2.85
 -15   5   4   81.94    3.01
  15  -5  -3   60.83    2.32
 -15  -5   3   62.64    2.23
  15   5  -3   56.99    2.09
 -15   5   3   57.47    2.25
  15  -5  -2   30.30    1.42
 -15  -5   2   30.17    1.20
  15   5  -2   30.23    1.22
 -15   5   2   25.98    1.28
  15  -5  -1   48.74    1.98
 -15  -5   1   52.41    1.90
 -15   5   1   49.14    1.99
  15  -5   0   15.86    1.06
 -15  -5   0   13.91    0.69
 -15   5   0   13.23    0.93
  15  -5   1   15.04    1.04
 -15  -5  -1   15.98    0.70
 -15   5  -1   14.67    1.01
  15  -5   2   38.89    1.70
 -15  -5  -2   39.92    1.41
 -15   5  -2   39.12    1.67
  15  -5   3   10.83    0.90
 -15   5  -3   10.13    0.90
  15  -5   4   11.86    0.80
 -15   5  -4   11.26    0.92
  15  -5   5    3.46    0.58
 -15   5  -5    4.41    0.74
  15  -5   6   26.93    1.24
 -15   5  -6   25.31    1.29
  15  -5   7   43.90    1.79
 -15   5  -7   46.45    1.92
  15  -5   8   13.03    0.88
 -15   5  -8   12.09    0.94
  15  -5   9   11.11    0.83
 -15   5  -9   10.30    0.89
  15  -5  10   20.09    1.05
 -15   5 -10   21.24    1.18
  15  -5  11    7.35    0.71
 -15   5 -11    5.25    0.73
  15  -5  12    0.43    0.57
 -15   5 -12    0.62    0.63
  15  -5  13   43.04    1.77
 -15   5 -13   36.35    1.57
  15  -5  14    5.00    0.68
 -15   5 -14    3.22    0.71
  15  -5  15   15.86    0.94
 -15   5 -15   13.23    0.94
  15  -5  16   50.40    1.97
 -15   5 -16   53.65    2.09
  15  -5  17    1.54    0.55
 -15   5 -17    0.51    0.64
  15  -5  18   63.12    2.36
 -15   5 -18   65.39    2.43
  15  -5  19    8.70    0.75
 -15   5 -19    8.66    0.77
  15  -5  20   -0.77    0.57
 -15   5 -20    0.68    0.59
  15  -5  21   22.23    1.13
 -15   5 -21   24.91    1.17
  15  -5  22    1.09    0.59
 -15   5 -22    0.95    0.59
  15  -5  23   33.49    1.44
 -15   5 -23   31.88    1.35
  15  -5  24   19.69    1.01
 -15   5 -24   19.81    1.00
 -15  -7  25    6.73    0.71
  15   7 -25    7.68    0.72
 -15   7  25    5.93    1.20
 -15   7  25    7.22    1.20
 -15  -7  24    3.24    0.69
  15   7 -24    3.60    0.67
 -15   7  24    3.87    1.14
 -15  -7  23   38.01    1.59
  15   7 -23   35.59    1.50
 -15   7  23   40.97    1.93
 -15  -7  22    5.65    0.75
  15   7 -22    6.42    0.74
 -15   7  22    7.42    1.23
 -15  -7  21   30.98    1.39
  15   7 -21   30.19    1.37
 -15   7  21   35.21    1.70
 -15  -7  20    1.18    0.66
  15   7 -20    0.98    0.68
 -15   7  20    0.29    0.83
 -15  -7  19    8.73    0.79
  15   7 -19    7.91    0.83
 -15   7  19    8.30    0.97
 -15  -7  18   15.17    1.01
  15   7 -18   15.16    0.97
 -15   7  18   15.15    1.13
 -15  -7  17   -0.26    0.72
  15   7 -17    0.33    0.66
 -15   7  17   -0.18    0.78
 -15  -7  16    4.81    0.75
  15   7 -16    4.07    0.74
 -15   7  16    4.42    0.92
 -15  -7  15   66.52    2.52
  15   7 -15   68.25    2.55
 -15   7  15   71.95    2.72
 -15  -7  14    5.61    0.81
  15   7 -14    6.14    0.79
 -15   7  14    5.73    0.87
 -15  -7  13    2.83    0.63
  15   7 -13    2.19    0.63
 -15   7  13    1.85    0.75
 -15  -7  12    0.31    0.57
  15   7 -12    0.49    0.65
 -15   7  12   -0.64    0.84
 -15  -7  11   52.28    2.02
  15   7 -11   55.90    2.16
 -15   7  11   55.27    2.19
 -15  -7  10   14.93    0.92
  15   7 -10   14.59    0.90
 -15   7  10   15.54    1.11
  15  -7  -9   27.38    1.35
 -15  -7   9   28.33    1.27
  15   7  -9   25.50    1.23
 -15   7   9   28.89    1.43
  15  -7  -8    3.05    0.74
 -15  -7   8    4.06    0.64
  15   7  -8    4.44    0.69
 -15   7   8    3.49    0.77
  15  -7  -7    5.76    0.85
 -15  -7   7    5.77    0.70
  15   7  -7    6.36    0.72
 -15   7   7    5.72    0.87
  15  -7  -6    2.09    0.79
 -15  -7   6    1.66    0.58
  15   7  -6    2.97    0.61
 -15   7   6    1.84    0.83
  15  -7  -5    3.61    0.79
 -15  -7   5    4.25    0.67
  15   7  -5    4.98    0.66
 -15   7   5    4.35    0.80
  15  -7  -4   30.72    1.49
 -15  -7   4   31.29    1.34
  15   7  -4   29.63    1.30
 -15   7   4   30.97    1.46
  15  -7  -3    0.03    0.65
 -15  -7   3   -0.29    0.48
  15   7  -3    0.36    0.56
 -15   7   3    0.21    0.78
  15  -7  -2    2.24    0.66
 -15  -7   2    1.84    0.48
  15   7  -2    2.03    0.53
 -15   7   2    1.01    0.80
  15  -7  -1    9.80    0.86
 -15  -7   1    8.79    0.62
  15   7  -1   10.19    0.70
 -15   7   1   10.58    0.97
  15  -7   0   29.17    1.37
 -15  -7   0   32.69    1.32
  15   7   0   30.72    1.28
 -15   7   0   30.88    1.49
  15  -7   1    1.96    0.69
 -15  -7  -1    1.56    0.49
  15   7   1    1.59    0.46
 -15   7  -1    0.87    0.80
  15  -7   2    3.32    0.74
 -15  -7  -2    3.78    0.48
 -15   7  -2    3.17    0.77
  15  -7   3   57.73    2.25
 -15   7  -3   57.55    2.26
  15  -7   4   41.21    1.68
 -15   7  -4   42.44    1.79
  15  -7   5   15.42    0.94
 -15   7  -5   17.57    1.05
  15  -7   6    3.63    0.63
 -15   7  -6    3.55    0.72
  15  -7   7   36.58    1.58
 -15   7  -7   39.12    1.69
  15  -7   8    4.33    0.68
 -15   7  -8    3.10    0.73
  15  -7   9    3.46    0.60
 -15   7  -9    1.52    0.73
  15  -7  10   -1.22    0.60
 -15   7 -10   -0.28    0.62
  15  -7  11   10.73    0.81
 -15   7 -11   12.91    0.90
  15  -7  12    0.69    0.56
 -15   7 -12    0.70    0.63
  15  -7  13    5.47    0.63
 -15   7 -13    5.32    0.78
  15  -7  14    3.82    0.60
 -15   7 -14    5.22    0.74
  15  -7  15   16.27    0.90
 -15   7 -15   15.05    0.91
  15  -7  16    2.98    0.56
 -15   7 -16    2.31    0.61
  15  -7  17   12.08    0.81
 -15   7 -17   12.79    0.83
  15  -7  18   -0.48    0.55
 -15   7 -18    0.22    0.64
  15  -7  19   26.99    1.19
 -15   7 -19   27.82    1.19
 -15  -9  16    1.29    0.60
  15   9 -16    0.71    0.75
 -15   9  16    1.86    0.97
 -15  -9  15   16.69    0.93
  15   9 -15   20.54    1.15
 -15   9  15   19.41    1.27
 -15  -9  14    6.19    0.69
  15   9 -14    8.40    0.88
 -15   9  14    7.57    1.05
 -15  -9  13    2.05    0.62
  15   9 -13    2.49    0.76
 -15   9  13    4.29    0.97
 -15  -9  12    0.30    0.66
  15   9 -12    0.09    0.73
 -15   9  12   -0.42    0.92
 -15  -9  11    7.00    0.80
  15   9 -11    7.15    0.87
 -15   9  11    4.66    0.97
 -15  -9  10   16.05    1.02
  15   9 -10   15.45    1.08
 -15   9  10   13.88    1.13
 -15  -9   9    9.73    0.85
  15   9  -9    7.59    0.91
 -15   9   9    9.68    1.04
  15  -9  -8    2.32    0.82
 -15  -9   8    2.54    0.72
  15   9  -8    1.19    0.81
 -15   9   8    2.98    0.89
  15  -9  -7    0.14    0.78
 -15  -9   7    0.47    0.68
  15   9  -7   -0.75    0.79
 -15   9   7   -0.95    0.75
  15  -9  -6   13.69    0.99
 -15  -9   6   15.29    0.99
  15   9  -6   14.88    1.05
 -15   9   6   15.60    1.12
  15  -9  -5    1.06    0.80
 -15  -9   5    1.93    0.72
  15   9  -5    1.44    0.76
 -15   9   5    1.05    0.83
  15  -9  -4    0.34    0.78
 -15  -9   4   -0.69    0.73
  15   9  -4   -1.57    0.76
 -15   9   4   -0.43    0.71
  15  -9  -3    8.28    0.95
 -15  -9   3    7.19    0.83
  15   9  -3    8.08    0.90
 -15   9   3    9.50    0.95
  15  -9  -2    0.58    0.81
 -15  -9   2    0.61    0.77
  15   9  -2    0.52    0.78
 -15   9   2    0.38    0.81
  15  -9  -1    6.60    0.86
 -15  -9   1    8.64    0.96
  15   9  -1    8.58    1.07
 -15   9   1    8.17    0.88
  15  -9   0    5.85    0.82
 -15  -9   0    5.78    0.91
  15   9   0    5.96    0.96
 -15   9   0    7.02    0.90
  15  -9   1    0.49    0.69
 -15  -9  -1    0.70    0.73
 -15   9  -1    0.22    0.72
  15  -9   2   12.49    0.86
 -15  -9  -2   10.26    0.89
 -15   9  -2   12.57    1.00
  15  -9   3    1.02    0.65
 -15   9  -3    0.43    0.71
  15  -9   4   32.15    1.41
 -15   9  -4   36.21    1.60
  15  -9   5    1.00    0.65
 -15   9  -5   -0.78    0.70
  15  -9   6    2.96    0.68
 -15   9  -6    2.29    0.74
  15  -9   7    8.55    0.76
 -15   9  -7    7.58    0.77
  15  -9   8    3.55    0.62
 -15   9  -8    3.27    0.74
  15  -9   9   12.99    0.83
 -15   9  -9   14.80    0.91
  15  -9  10    3.41    0.56
 -15   9 -10    3.07    0.74
 -16   0  34    6.49    0.94
 -16   0  33    0.61    0.93
 -16   0  32    3.23    0.91
 -16   0  31    0.35    0.87
 -16   0  30   11.81    1.04
 -16   0  29    1.26    0.80
 -16   0  28   89.64    3.26
 -16   0  27    0.73    0.77
 -16   0  26  103.80    3.71
 -16   0  25   -0.60    0.81
 -16   0  24  192.00    6.55
 -16   0  23   -0.01    0.79
 -16   0  22   25.21    1.42
 -16   0  21   -1.00    0.81
 -16   0  20   16.57    1.19
 -16   0  19    1.29    0.68
 -16   0  18   11.30    0.87
 -16   0  17   -0.77    0.62
 -16   0  16   13.67    0.93
 -16   0  15    0.91    0.67
 -16   0  14  309.20   10.27
 -16   0   5    0.27    0.61
 -16   0   4    0.89    0.60
 -16   0   3    0.50    0.55
 -16   0   2   21.71    1.04
  16   0  -1    0.41    0.53
 -16   0   1    0.60    0.51
  16   0   0  637.50   20.80
 -16   0   0  634.40   20.72
  16   0   1   -0.10    0.51
 -16   0  -1   -0.38    0.55
  16   0   2  644.60   21.02
 -16   0  -2  629.50   20.55
  16   0   3    0.22    0.49
 -16   0  -3    0.38    0.49
  16   0   4    1.42    0.51
 -16   0  -4    0.34    0.47
  16   0   5    0.94    0.52
 -16   0  -5   -0.03    0.46
  16   0   6  108.50    3.73
 -16   0  -6  108.40    3.73
  16   0   7   -0.24    0.50
 -16   0  -7    0.08    0.49
  16   0   8    0.60    0.51
 -16   0  -8   -0.43    0.51
  16   0   9   -0.41    0.52
 -16   0  -9    0.38    0.54
  16   0  10    0.11    0.56
 -16   0 -10    0.68    0.59
  16   0  11    0.00    0.60
 -16   0 -11   -0.04    0.58
  16   0  12   92.99    3.28
 -16   0 -12   88.74    3.15
  16   0  13   -0.28    0.53
 -16   0 -13   -0.16    0.55
  16   0  14  209.20    7.03
 -16   0 -14  208.60    6.99
  16   0  15    0.74    0.51
 -16   0 -15   -0.05    0.50
  16   0  16    4.12    0.60
 -16   0 -16    4.08    0.61
  16   0  17    0.10    0.53
 -16   0 -17    0.41    0.51
  16   0  18    0.33    0.55
 -16   0 -18    0.60    0.48
  16   0  19   -0.23    0.58
 -16   0 -19    0.07    0.56
  16   0  20   25.25    1.21
 -16   0 -20   26.24    1.24
  16   0  21   -0.37    0.58
 -16   0 -21    0.41    0.61
  16   0  22    5.02    0.68
 -16   0 -22    5.23    0.68
  16   0  23   -0.35    0.61
 -16   0 -23   -0.01    0.64
  16   0  24    0.31    0.67
 -16   0 -24    1.13    0.68
  16   0  25    0.71    0.68
 -16   0 -25    0.21    0.65
  16   0  26    8.75    0.82
  16   0  27    0.52    0.69
  16   0  28   24.60    1.31
 -16  -2  33    0.33    0.74
 -16   2  33    0.39    0.88
 -16  -2  32   22.12    1.19
 -16   2  32   19.93    1.29
 -16  -2  31    1.01    0.82
 -16   2  31   -1.02    0.86
 -16  -2  30    4.53    0.88
 -16   2  30    2.42    0.85
 -16  -2  29    7.68    0.90
 -16   2  29    9.01    0.99
 -16  -2  28    0.06    0.77
 -16   2  28    0.75    0.84
 -16  -2  27   26.57    1.36
 -16   2  27   24.59    1.36
 -16  -2  26    7.60    0.96
 -16   2  26    6.70    0.93
 -16  -2  25   46.17    1.92
 -16   2  25   50.91    2.10
 -16  -2  24   20.02    1.22
 -16   2  24   21.18    1.25
 -16  -2  23   13.78    1.12
 -16   2  23   13.36    1.11
 -16  -2  22    7.86    1.00
 -16   2  22    7.45    0.99
 -16  -2  21   30.77    1.52
 -16   2  21   30.64    1.53
 -16  -2  20  117.90    4.13
 -16   2  20  115.90    4.12
 -16  -2  19   40.79    1.75
 -16  -2  18   78.34    2.92
 -16  -2  17   11.47    0.92
 -16  -2  16   31.66    1.46
 -16  -2  15  118.70    4.17
 -16  -2  14   -0.02    0.58
 -16   2  14    0.81    0.67
 -16  -2  13  245.30    8.18
 -16   2  13  258.40    8.65
 -16  -2  12    6.01    0.67
 -16   2  12    7.92    0.82
 -16  -2  11   92.35    3.30
 -16   2  11   98.91    3.53
 -16  -2  10    2.58    0.69
 -16   2  10    2.36    0.72
 -16  -2   9    0.61    0.57
 -16   2   9    0.50    0.67
 -16  -2   8  722.60   23.60
 -16   2   8  701.00   22.91
 -16  -2   7    7.68    0.74
 -16   2   7    5.43    0.72
 -16  -2   6   22.03    1.08
 -16   2   6   25.03    1.25
  16  -2  -5   15.53    0.99
 -16  -2   5   17.80    0.93
 -16   2   5   19.08    1.06
  16  -2  -4  107.40    3.76
 -16  -2   4   98.13    3.38
 -16   2   4   95.20    3.38
  16  -2  -3    1.76    0.65
 -16  -2   3    2.09    0.49
 -16   2   3    1.35    0.64
  16  -2  -2   86.51    3.08
 -16  -2   2   80.20    2.77
 -16   2   2   86.07    3.10
  16  -2  -1  206.40    6.92
 -16  -2   1  190.80    6.32
 -16   2   1  212.50    7.14
  16  -2   0  134.80    4.63
 -16  -2   0  136.00    4.52
 -16   2   0  135.70    4.68
  16  -2   1   29.39    1.35
 -16  -2  -1   25.62    0.97
 -16   2  -1   25.95    1.23
  16  -2   2    2.60    0.64
 -16  -2  -2    1.41    0.34
 -16   2  -2    1.26    0.59
  16  -2   3   75.91    2.75
 -16  -2  -3   68.66    2.34
 -16   2  -3   65.23    2.41
  16  -2   4   28.86    1.30
 -16  -2  -4   27.49    1.01
 -16   2  -4   24.75    1.18
  16  -2   5    3.61    0.69
 -16  -2  -5    4.35    0.30
 -16   2  -5    4.30    0.67
  16  -2   6   45.84    1.82
 -16  -2  -6   46.34    1.59
 -16   2  -6   48.69    1.92
  16  -2   7   77.28    2.81
 -16  -2  -7   78.98    2.66
 -16   2  -7   79.85    2.92
  16  -2   8  404.30   13.33
 -16  -2  -8  412.30   13.59
  16   2   8  411.50   13.56
 -16   2  -8  427.90   14.12
  16  -2   9   55.42    2.13
 -16  -2  -9   52.23    1.80
  16   2   9   54.92    1.89
 -16   2  -9   53.63    2.10
  16  -2  10    0.93    0.68
 -16  -2 -10    0.79    0.30
  16   2  10    0.58    0.33
 -16   2 -10    0.78    0.60
  16  -2  11  146.10    5.03
 -16  -2 -11  143.60    4.80
  16   2  11  150.60    5.02
 -16   2 -11  145.20    5.01
  16  -2  12   38.04    1.64
 -16  -2 -12   39.74    1.48
  16   2  12   40.39    1.47
 -16   2 -12   38.80    1.64
  16  -2  13   16.04    0.95
  16   2  13   17.37    0.80
 -16   2 -13   16.45    1.00
  16  -2  14   13.14    0.90
  16   2  14   12.98    0.70
 -16   2 -14   14.16    0.93
  16  -2  15    2.78    0.61
  16   2  15    3.58    0.48
 -16   2 -15    2.94    0.71
  16  -2  16   -0.05    0.64
  16   2  16    0.39    0.47
 -16   2 -16    0.17    0.63
  16  -2  17    5.96    0.71
  16   2  17    5.78    0.60
 -16   2 -17    5.59    0.70
  16  -2  18   15.91    1.01
  16   2  18   16.32    0.88
 -16   2 -18   16.06    1.00
  16  -2  19   26.54    1.27
  16   2  19   27.35    1.23
 -16   2 -19   26.75    1.27
  16  -2  20    5.37    0.74
  16   2  20    7.16    0.71
 -16   2 -20    6.08    0.72
  16  -2  21    4.78    0.70
  16   2  21    4.53    0.70
 -16   2 -21    3.77    0.68
  16  -2  22    0.67    0.62
  16   2  22    1.21    0.70
 -16   2 -22    0.79    0.62
  16  -2  23   15.90    1.00
  16   2  23   15.55    0.99
 -16   2 -23   16.10    0.97
  16  -2  24   24.19    1.23
  16   2  24   23.11    1.22
 -16   2 -24   24.61    1.22
  16  -2  25    9.94    0.80
  16   2  25    9.91    1.04
 -16   2 -25    8.73    0.81
  16  -2  26    1.30    0.71
  16   2  26    1.00    0.96
 -16   2 -26    0.45    0.63
  16  -2  27    3.82    0.74
  16   2  27    4.43    1.11
 -16   2 -27    3.91    0.74
 -16  -4  31   11.00    0.85
 -16   4  31    8.22    1.33
 -16   4  31   11.14    1.09
 -16  -4  30   -0.52    0.68
 -16   4  30   -1.40    0.88
 -16   4  30    0.02    1.12
 -16  -4  29   15.90    1.06
 -16   4  29   14.85    1.27
 -16   4  29   13.06    1.14
 -16  -4  28    3.06    0.76
 -16   4  28    2.64    1.05
 -16   4  28    2.62    0.88
 -16  -4  27    3.12    0.71
 -16   4  27    3.06    0.91
 -16   4  27    3.14    1.09
 -16  -4  26    6.57    0.89
 -16   4  26    5.61    0.96
 -16   4  26    2.98    0.88
 -16  -4  25    0.36    0.74
 -16   4  25    0.96    0.86
 -16   4  25    1.63    0.92
 -16  -4  24    0.23    0.70
 -16   4  24   -0.68    0.92
 -16   4  24    0.76    0.88
 -16  -4  23    2.86    0.78
 -16  -4  22   22.43    1.28
 -16   4  22   19.48    1.29
 -16  -4  21   70.56    2.70
 -16   4  21   67.02    2.62
 -16  -4  20    1.56    0.83
 -16   4  20    1.51    0.87
 -16  -4  19   72.61    2.76
 -16   4  19   68.68    2.66
 -16  -4  18    1.03    0.83
 -16   4  18    1.44    0.86
 -16  -4  17   43.21    1.90
 -16   4  17   42.17    1.86
 -16  -4  16    0.30    0.78
  16   4 -16    1.32    0.56
 -16   4  16    1.79    0.87
 -16  -4  15    7.31    0.88
  16   4 -15    6.24    0.74
 -16   4  15    6.80    0.93
 -16  -4  14   44.85    1.85
  16   4 -14   48.04    1.95
 -16   4  14   43.05    1.81
 -16  -4  13   32.68    1.41
  16   4 -13   38.02    1.64
 -16   4  13   37.31    1.65
 -16  -4  12    0.69    0.58
  16   4 -12    1.60    0.70
 -16   4  12    1.18    0.73
 -16  -4  11    5.73    0.75
  16   4 -11    6.74    0.76
 -16   4  11    6.07    0.82
 -16  -4  10   33.31    1.46
  16   4 -10   35.31    1.50
 -16   4  10   32.64    1.47
 -16  -4   9   42.41    1.74
  16   4  -9   42.94    1.71
 -16   4   9   37.55    1.62
  16  -4  -8  179.00    6.07
 -16  -4   8  173.70    5.94
 -16   4   8  168.50    5.76
  16  -4  -7   44.16    1.77
 -16  -4   7   46.11    1.88
 -16   4   7   42.74    1.80
  16  -4  -6   10.56    0.87
 -16  -4   6   10.56    0.80
 -16   4   6    7.63    0.81
  16  -4  -5  174.00    5.94
 -16  -4   5  167.10    5.63
 -16   4   5  176.80    6.03
  16  -4  -4   -0.01    0.71
 -16  -4   4   -0.15    0.49
 -16   4   4    2.68    0.78
  16  -4  -3   13.84    0.98
 -16  -4   3   13.37    0.76
 -16   4   3   12.05    0.91
  16  -4  -2   60.98    2.35
 -16  -4   2   61.31    2.17
 -16   4   2   59.13    2.28
  16  -4  -1    1.85    0.66
 -16  -4   1    0.90    0.35
 -16   4   1    1.86    0.66
  16  -4   0   19.42    1.07
 -16  -4   0   19.04    0.78
 -16   4   0   14.72    0.96
  16  -4   1  112.00    3.94
 -16  -4  -1  112.20    3.76
 -16   4  -1  104.60    3.71
  16  -4   2   93.52    3.37
 -16   4  -2   97.13    3.48
  16  -4   3   20.61    1.15
 -16   4  -3   19.42    1.09
  16  -4   4  138.90    4.83
 -16   4  -4  139.60    4.84
  16  -4   5   78.78    2.91
 -16   4  -5   78.34    2.91
  16  -4   6    3.92    0.72
 -16   4  -6    2.48    0.75
  16  -4   7  216.00    7.30
 -16   4  -7  204.70    6.94
  16  -4   8   31.66    1.41
 -16   4  -8   32.02    1.46
  16  -4   9   56.29    2.18
 -16   4  -9   58.69    2.27
  16  -4  10    2.16    0.59
 -16   4 -10    2.04    0.68
  16  -4  11   12.52    0.83
 -16   4 -11   12.28    0.96
  16  -4  12    0.47    0.53
 -16   4 -12    1.29    0.63
  16  -4  13   15.29    0.92
 -16   4 -13   14.48    1.00
  16  -4  14   16.74    0.99
 -16   4 -14   18.38    1.06
  16  -4  15    0.37    0.59
 -16   4 -15    0.05    0.59
  16  -4  16    0.02    0.57
 -16   4 -16    0.08    0.62
  16  -4  17    2.46    0.65
 -16   4 -17    1.35    0.57
  16  -4  18    0.23    0.58
 -16   4 -18    0.61    0.55
  16  -4  19   33.33    1.45
 -16   4 -19   32.81    1.43
  16  -4  20    3.27    0.66
 -16   4 -20    3.36    0.64
  16  -4  21   30.08    1.33
 -16   4 -21   28.18    1.33
  16  -4  22    4.44    0.68
 -16   4 -22    5.56    0.70
  16  -4  23    3.62    0.68
 -16   4 -23    1.97    0.64
  16  -4  24    2.16    0.66
 -16   4 -24    1.45    0.62
  16  -4  25   -0.28    0.65
 -16   4 -25    0.45    0.61
 -16  -6  28    1.62    0.63
 -16  -6  27    0.46    0.67
 -16   6  27   -0.44    1.12
 -16   6  27   -0.35    0.98
 -16  -6  26    2.31    0.72
 -16   6  26    1.16    0.95
 -16   6  26    0.37    1.09
 -16  -6  25    1.21    0.74
 -16   6  25    3.17    1.07
 -16   6  25    0.59    1.17
 -16  -6  24   18.67    1.13
 -16   6  24   21.47    1.42
 -16  -6  23    1.57    0.70
  16   6 -23    1.10    0.56
 -16   6  23    1.69    0.98
 -16  -6  22    2.80    0.83
  16   6 -22    1.74    0.64
 -16   6  22    2.66    1.01
 -16  -6  21   13.56    1.03
  16   6 -21   12.48    0.88
 -16   6  21   12.62    1.12
 -16  -6  20    0.40    0.73
  16   6 -20    0.16    0.68
 -16   6  20    1.03    0.84
 -16  -6  19   17.10    1.13
  16   6 -19   17.84    1.07
 -16   6  19   16.20    1.13
 -16  -6  18   42.36    1.82
  16   6 -18   40.59    1.71
 -16   6  18   42.48    1.82
 -16  -6  17    5.25    0.87
  16   6 -17    4.72    0.77
 -16   6  17    4.99    0.91
 -16  -6  16   30.55    1.48
  16   6 -16   28.55    1.36
 -16   6  16   27.13    1.44
 -16  -6  15   42.48    1.78
  16   6 -15   38.97    1.67
 -16   6  15   42.55    1.82
 -16  -6  14   11.48    0.88
  16   6 -14   10.29    0.83
 -16   6  14   10.39    1.03
 -16  -6  13   35.63    1.51
  16   6 -13   34.97    1.54
 -16   6  13   38.50    1.72
 -16  -6  12    7.16    0.80
  16   6 -12    6.88    0.78
 -16   6  12    6.73    0.98
 -16  -6  11   41.11    1.71
  16   6 -11   41.85    1.72
 -16   6  11   42.38    1.84
 -16  -6  10    4.62    0.76
  16   6 -10    7.49    0.71
 -16   6  10    6.03    0.87
  16  -6  -9    9.49    0.93
 -16  -6   9    8.33    0.84
  16   6  -9   10.06    0.78
 -16   6   9    8.19    0.90
  16  -6  -8    1.41    0.73
 -16  -6   8    0.90    0.63
  16   6  -8    0.06    0.53
 -16   6   8    1.60    0.82
  16  -6  -7   22.49    1.18
 -16  -6   7   21.47    1.10
  16   6  -7   19.27    1.05
 -16   6   7   21.71    1.24
  16  -6  -6   80.22    2.95
 -16  -6   6   81.96    2.96
  16   6  -6   86.28    3.07
 -16   6   6   81.82    3.03
  16  -6  -5   87.38    3.19
 -16  -6   5   88.79    3.13
  16   6  -5   83.12    2.96
 -16   6   5   83.67    3.10
  16  -6  -4    0.65    0.66
 -16  -6   4    1.00    0.48
  16   6  -4    1.77    0.52
 -16   6   4    1.46    0.75
  16  -6  -3   15.84    1.04
 -16  -6   3   14.98    0.76
  16   6  -3   16.12    0.84
 -16   6   3   14.72    1.03
  16  -6  -2   23.72    1.24
 -16  -6   2   24.20    1.03
  16   6  -2   21.25    0.96
 -16   6   2   24.34    1.29
  16  -6  -1   29.29    1.40
 -16  -6   1   31.93    1.27
 -16   6   1   28.08    1.37
  16  -6   0   34.54    1.49
 -16  -6   0   36.18    1.36
 -16   6   0   36.68    1.65
  16  -6   1  142.50    4.89
 -16  -6  -1  148.10    4.95
 -16   6  -1  141.60    4.92
  16  -6   2    1.04    0.63
 -16  -6  -2    0.66    0.29
 -16   6  -2    0.39    0.72
  16  -6   3    0.69    0.64
 -16   6  -3    0.25    0.72
  16  -6   4    0.34    0.62
 -16   6  -4    0.16    0.70
  16  -6   5   53.58    2.11
 -16   6  -5   52.53    2.11
  16  -6   6   11.81    0.87
 -16   6  -6   10.68    0.95
  16  -6   7   12.31    0.82
 -16   6  -7   12.62    0.94
  16  -6   8   10.29    0.79
 -16   6  -8    9.56    0.90
  16  -6   9   16.59    0.98
 -16   6  -9   13.65    0.99
  16  -6  10   -0.66    0.61
 -16   6 -10   -0.08    0.71
  16  -6  11   58.38    2.20
 -16   6 -11   57.19    2.20
  16  -6  12   17.25    0.96
 -16   6 -12   19.65    1.08
  16  -6  13   38.36    1.62
 -16   6 -13   36.87    1.56
  16  -6  14   15.25    0.94
 -16   6 -14   16.04    0.96
  16  -6  15   43.65    1.73
 -16   6 -15   45.38    1.83
  16  -6  16    8.70    0.74
 -16   6 -16    7.87    0.79
  16  -6  17    1.84    0.53
 -16   6 -17    1.71    0.63
  16  -6  18    9.49    0.75
 -16   6 -18    8.72    0.78
  16  -6  19   -0.28    0.56
 -16   6 -19    0.50    0.65
  16  -6  20    8.80    0.72
 -16   6 -20    7.97    0.70
  16  -6  21    4.61    0.57
 -16   6 -21    3.34    0.64
 -16  -8  21   -0.54    0.72
  16   8 -21   -0.19    0.67
 -16   8  21   -0.39    1.06
 -16  -8  20   13.15    0.97
  16   8 -20   12.38    0.90
 -16   8  20   11.72    1.26
 -16  -8  19    2.04    0.69
  16   8 -19    2.38    0.69
 -16   8  19    1.33    1.04
 -16  -8  18    3.86    0.77
  16   8 -18    4.40    0.75
 -16   8  18    2.36    0.91
 -16  -8  17    7.24    0.80
  16   8 -17    6.90    0.84
 -16   8  17    8.59    1.04
 -16  -8  16    9.31    0.90
 -16  -8  15   -0.29    0.69
  16   8 -15   -0.72    0.71
 -16   8  15   -0.78    0.76
 -16  -8  14    0.73    0.70
  16   8 -14    0.16    0.71
 -16   8  14   -0.31    0.83
 -16  -8  13    2.02    0.70
  16   8 -13    0.85    0.63
 -16   8  13    1.22    0.84
 -16  -8  12   66.47    2.48
  16   8 -12   67.44    2.52
 -16   8  12   64.92    2.51
 -16  -8  11   41.29    1.70
  16   8 -11   43.46    1.80
 -16   8  11   44.54    1.89
 -16  -8  10   42.60    1.73
  16   8 -10   41.48    1.73
 -16   8  10   44.66    1.90
  16  -8  -9    3.95    0.70
 -16  -8   9    5.03    0.69
  16   8  -9    3.95    0.73
 -16   8   9    4.29    0.89
  16  -8  -8    1.90    0.76
 -16  -8   8    0.48    0.63
  16   8  -8    0.86    0.68
 -16   8   8    0.52    0.74
  16  -8  -7    1.47    0.84
 -16  -8   7    1.30    0.58
  16   8  -7    1.07    0.66
 -16   8   7    0.23    0.77
  16  -8  -6    1.75    0.76
 -16  -8   6    1.68    0.64
  16   8  -6    1.12    0.62
 -16   8   6    1.41    0.73
  16  -8  -5    7.86    0.86
 -16  -8   5    7.47    0.74
  16   8  -5    7.31    0.75
 -16   8   5    6.18    0.90
  16  -8  -4   20.39    1.16
 -16  -8   4   16.98    0.95
  16   8  -4   18.47    1.00
 -16   8   4   17.72    1.08
  16  -8  -3   -0.11    0.82
 -16  -8   3    0.57    0.55
  16   8  -3    0.21    0.58
 -16   8   3    1.57    0.82
  16  -8  -2   34.73    1.62
 -16  -8   2   32.18    1.34
  16   8  -2   31.72    1.36
 -16   8   2   30.39    1.44
  16  -8  -1   11.33    0.94
 -16  -8   1   13.15    0.86
  16   8  -1   11.24    0.84
 -16   8   1   11.13    0.93
  16  -8   0    9.01    0.81
 -16  -8   0   10.67    0.78
 -16   8   0   11.43    0.97
  16  -8   1   49.18    1.95
 -16  -8  -1   47.55    1.77
 -16   8  -1   47.20    1.93
  16  -8   2   32.00    1.47
 -16  -8  -2   31.18    1.18
 -16   8  -2   33.60    1.53
  16  -8   3    6.04    0.78
 -16   8  -3    7.42    0.84
  16  -8   4    2.86    0.62
 -16   8  -4    4.34    0.75
  16  -8   5    6.12    0.74
 -16   8  -5    6.20    0.76
  16  -8   6   -0.37    0.61
 -16   8  -6    1.06    0.70
  16  -8   7    8.41    0.75
 -16   8  -7    9.65    0.84
  16  -8   8   -0.05    0.59
 -16   8  -8    0.15    0.64
  16  -8   9    7.55    0.76
 -16   8  -9    7.14    0.79
  16  -8  10    1.57    0.58
 -16   8 -10    1.55    0.68
  16  -8  11   19.79    1.04
 -16   8 -11   20.14    1.07
  16  -8  12   17.03    0.96
 -16   8 -12   15.64    0.94
  16  -8  13    5.79    0.62
 -16   8 -13    4.50    0.66
  16  -8  14   10.14    0.73
 -16   8 -14    9.14    0.74
  16  -8  15    5.90    0.59
 -16   8 -15    5.02    0.64
 -17  -1  34    4.20    0.94
 -17   1  34    5.22    1.00
 -17  -1  33    5.51    0.91
 -17   1  33    6.03    0.94
 -17  -1  32    4.56    0.92
 -17   1  32    3.70    0.90
 -17  -1  31    1.47    0.90
 -17   1  31    0.69    0.81
 -17  -1  30   -0.82    0.84
 -17   1  30   -0.15    0.79
 -17  -1  29   16.15    1.05
 -17   1  29   19.04    1.16
 -17  -1  28   63.17    2.46
 -17   1  28   61.23    2.39
 -17  -1  27   10.54    0.99
 -17   1  27    7.27    0.91
 -17  -1  26   13.10    1.00
 -17   1  26   13.10    1.10
 -17  -1  25    7.88    0.95
 -17   1  25    9.37    0.98
 -17  -1  24    5.68    0.95
 -17   1  24    3.48    0.89
 -17  -1  23   22.05    1.28
 -17   1  23   20.72    1.26
 -17  -1  22    5.05    0.92
 -17   1  22    5.53    0.92
 -17  -1  21   42.78    1.89
 -17   1  21   42.96    1.86
 -17  -1  20   24.91    1.37
 -17   1  20   25.36    1.39
 -17  -1  19   61.70    2.41
 -17   1  19   55.20    2.19
 -17  -1  18    3.20    0.71
 -17   1  18    2.44    0.74
 -17  -1  17  112.30    3.93
 -17   1  17  117.80    4.14
 -17  -1  16  185.70    6.27
 -17  -1  15   20.68    1.13
 -17  -1  14   11.83    0.89
 -17  -1  13   48.61    1.93
 -17  -1  12   10.95    0.84
 -17  -1  11    4.09    0.72
 -17  -1  10    2.47    0.66
 -17   1  10    3.11    0.67
 -17   1   9   24.44    1.22
 -17   1   8   25.07    1.25
 -17   1   7    2.48    0.68
 -17   1   6    6.70    0.75
 -17   1   5    6.53    0.75
 -17   1   4  134.10    4.61
 -17   1   3  294.80    9.78
  17  -1  -2  108.20    3.74
 -17  -1   2  104.80    3.58
 -17   1   2   97.43    3.43
  17  -1  -1  381.60   12.55
 -17  -1   1  386.50   12.67
 -17   1   1  393.20   12.96
  17  -1   0    6.57    0.68
 -17  -1   0    5.21    0.55
 -17   1   0    5.26    0.67
  17  -1   1   25.54    1.17
 -17  -1  -1   23.64    1.04
 -17   1  -1   28.19    1.30
  17  -1   2    9.22    0.75
 -17  -1  -2    7.37    0.58
 -17   1  -2    8.28    0.74
  17  -1   3  274.50    9.10
 -17  -1  -3  278.40    9.16
  17   1   3  270.60    8.90
 -17   1  -3  279.80    9.28
  17  -1   4   16.79    0.95
 -17  -1  -4   14.48    0.70
  17   1   4   15.73    0.75
 -17   1  -4   13.93    0.87
  17  -1   5   50.60    1.95
 -17  -1  -5   48.17    1.73
  17   1   5   47.25    1.72
 -17   1  -5   48.78    1.89
  17  -1   6   18.93    1.01
 -17  -1  -6   17.23    0.79
  17   1   6   16.76    0.78
 -17   1  -6   17.41    0.94
  17  -1   7    0.31    0.53
 -17  -1  -7    0.85    0.44
  17   1   7    0.82    0.43
 -17   1  -7    0.63    0.61
  17  -1   8  113.10    3.94
 -17  -1  -8  111.60    3.80
  17   1   8  108.50    3.69
 -17   1  -8  108.60    3.81
  17  -1   9   10.74    0.82
 -17  -1  -9   11.58    0.73
  17   1   9   10.46    0.68
 -17   1  -9   10.56    0.83
  17  -1  10  142.00    4.87
 -17  -1 -10  132.30    4.50
  17   1  10  135.60    4.57
 -17   1 -10  127.20    4.40
  17  -1  11   84.76    3.07
 -17  -1 -11   84.62    2.98
  17   1  11   86.51    3.02
 -17   1 -11   81.89    2.96
  17  -1  12    2.79    0.66
 -17  -1 -12    3.05    0.52
  17   1  12    3.01    0.56
 -17   1 -12    3.05    0.66
  17  -1  13    9.15    0.75
 -17  -1 -13   10.08    0.69
  17   1  13   10.21    0.65
 -17   1 -13   10.14    0.83
  17  -1  14   83.93    3.02
 -17  -1 -14   84.13    2.93
  17   1  14   80.00    2.82
 -17   1 -14   83.31    3.03
  17  -1  15    1.41    0.61
 -17  -1 -15    1.35    0.46
  17  -1  16    3.78    0.65
 -17  -1 -16    3.28    0.51
  17   1  16    2.88    0.53
 -17   1 -16    2.15    0.63
  17  -1  17    5.62    0.74
 -17  -1 -17    5.46    0.61
  17   1  17    4.83    0.59
 -17   1 -17    5.07    0.67
  17  -1  18   12.45    0.83
 -17  -1 -18   11.49    0.79
  17   1  18   11.45    0.75
 -17   1 -18   11.87    0.84
  17  -1  19   49.73    1.97
 -17  -1 -19   48.69    1.86
  17   1  19   49.39    1.92
 -17   1 -19   50.88    1.96
  17  -1  20   11.38    0.87
 -17  -1 -20   11.54    0.79
  17   1  20   11.79    0.81
 -17   1 -20   12.43    0.85
  17  -1  21    1.23    0.64
 -17  -1 -21    0.28    0.55
  17   1  21   -0.05    0.58
 -17   1 -21    1.50    0.64
  17  -1  22    7.42    0.76
  17   1  22    6.64    0.72
 -17   1 -22    6.03    0.69
  17  -1  23   30.54    1.39
  17   1  23   30.72    1.38
 -17   1 -23   29.10    1.34
  17  -1  24    4.28    0.73
  17   1  24    4.81    0.77
 -17   1 -24    4.51    0.71
  17  -1  25   22.94    1.19
  17   1  25   25.01    1.28
 -17   1 -25   24.12    1.20
  17  -1  26   13.26    0.97
  17   1  26   12.22    1.04
 -17   1 -26   14.21    0.94
  17  -1  27    5.06    0.82
  17   1  27    4.75    0.92
 -17   1 -27    4.26    0.77
 -17  -3  32    8.80    0.94
 -17   3  32    9.97    1.22
 -17   3  32    8.99    1.05
 -17  -3  31    4.60    0.74
 -17   3  31    4.72    1.02
 -17   3  31    4.01    1.04
 -17  -3  30   32.72    1.48
 -17   3  30   33.31    1.64
 -17   3  30   35.06    1.62
 -17  -3  29    3.30    0.81
 -17   3  29    0.74    0.90
 -17   3  29    1.71    0.83
 -17  -3  28    2.19    0.77
 -17   3  28    2.20    0.92
 -17   3  28    2.08    0.85
 -17  -3  27   -1.54    0.74
 -17   3  27    0.44    0.81
 -17   3  27   -0.27    0.86
 -17  -3  26    2.46    0.77
 -17   3  26    2.61    0.89
 -17   3  26    1.36    0.90
 -17  -3  25   19.50    1.20
 -17   3  25   20.76    1.27
 -17   3  25   23.84    1.42
 -17  -3  24    1.61    0.78
 -17   3  24    3.10    0.91
 -17   3  24    3.10    1.00
 -17  -3  23   32.19    1.49
 -17   3  23   25.93    1.43
 -17   3  23   27.86    1.46
 -17  -3  22  185.00    6.35
 -17   3  22  190.30    6.51
 -17   3  22  197.10    6.72
 -17  -3  21   24.77    1.40
 -17   3  21   24.78    1.40
 -17  -3  20  105.10    3.79
 -17   3  20   98.99    3.62
 -17  -3  19   -0.43    0.81
 -17   3  19    1.29    0.85
 -17  -3  18    2.03    0.78
 -17   3  18    0.87    0.83
 -17  -3  17    9.57    0.93
 -17   3  17    5.19    0.82
 -17  -3  16   13.50    0.95
 -17   3  16   14.45    1.00
 -17  -3  15    1.45    0.70
 -17   3  15    0.37    0.71
 -17  -3  14   61.90    2.39
 -17   3  14   60.93    2.35
 -17  -3  13   38.46    1.68
 -17   3  13   35.84    1.60
 -17  -3  12   50.11    1.98
 -17   3  12   50.38    2.02
 -17  -3  11    7.29    0.74
 -17   3  11    7.22    0.82
 -17  -3  10  180.70    6.11
 -17   3  10  175.70    5.99
 -17  -3   9    1.56    0.58
 -17   3   9    1.04    0.67
 -17  -3   8   80.30    2.85
 -17   3   8   80.49    2.95
  17  -3  -7  171.50    5.82
 -17  -3   7  183.20    6.13
 -17   3   7  176.20    6.00
  17  -3  -6    3.56    0.68
 -17  -3   6    4.21    0.58
 -17   3   6    2.54    0.71
  17  -3  -5   25.55    1.21
 -17  -3   5   29.51    1.26
 -17   3   5   26.65    1.30
  17  -3  -4   26.48    1.25
 -17  -3   4   22.94    1.05
 -17   3   4   23.08    1.21
  17  -3  -3    0.95    0.67
 -17  -3   3    0.96    0.45
 -17   3   3    0.38    0.69
  17  -3  -2    3.08    0.67
 -17  -3   2    2.91    0.45
 -17   3   2    2.04    0.67
  17  -3  -1    1.76    0.62
 -17  -3   1    1.78    0.38
 -17   3   1    0.42    0.66
  17  -3   0    4.84    0.68
 -17  -3   0    4.97    0.42
 -17  -3   0    5.62    0.44
 -17   3   0    3.93    0.68
  17  -3   1   56.56    2.16
 -17  -3  -1   58.09    1.99
 -17  -3  -1   53.50    1.85
 -17   3  -1   56.29    2.17
  17  -3   2    3.09    0.71
 -17   3  -2    2.74    0.62
  17  -3   3   62.32    2.36
 -17   3  -3   56.18    2.16
  17  -3   4   72.59    2.70
 -17   3  -4   69.26    2.58
  17  -3   5  104.70    3.70
 -17   3  -5  104.50    3.70
  17  -3   6   41.09    1.72
 -17   3  -6   40.48    1.68
  17  -3   7    0.58    0.67
 -17   3  -7    0.29    0.67
  17  -3   8    6.58    0.75
 -17   3  -8    5.28    0.77
  17  -3   9    9.79    0.88
 -17   3  -9    7.03    0.83
  17  -3  10   30.06    1.42
 -17   3 -10   30.05    1.41
  17  -3  11   23.91    1.18
 -17   3 -11   27.84    1.31
  17  -3  12   90.56    3.27
 -17   3 -12   90.55    3.28
  17  -3  13    3.67    0.62
 -17   3 -13    3.37    0.77
  17  -3  14   16.88    0.97
 -17   3 -14   18.26    1.10
  17  -3  15    0.17    0.61
 -17   3 -15    0.06    0.61
  17  -3  16   38.18    1.62
 -17   3 -16   42.02    1.73
  17  -3  17   34.96    1.53
 -17   3 -17   33.85    1.52
  17  -3  18   13.21    0.89
 -17   3 -18   14.71    0.92
  17  -3  19   20.01    1.09
  17   3  19   19.23    0.80
 -17   3 -19   19.05    1.08
  17  -3  20   28.85    1.32
  17   3  20   27.49    1.07
 -17   3 -20   29.69    1.36
  17  -3  21    0.39    0.67
  17   3  21    0.41    0.46
 -17   3 -21    0.63    0.58
  17  -3  22    7.66    0.79
  17   3  22    8.51    0.71
 -17   3 -22    6.22    0.69
  17  -3  23    0.54    0.68
  17   3  23    0.74    0.65
 -17   3 -23    0.27    0.62
  17  -3  24    7.76    0.86
  17   3  24    7.83    0.84
 -17   3 -24    7.34    0.74
  17  -3  25   -0.50    0.68
  17   3  25    0.00    0.80
  17   3  25    0.42    0.79
 -17   3 -25   -0.55    0.61
  17  -3  26   -1.09    0.68
  17   3  26    0.31    1.05
  17   3  26   -0.40    0.89
 -17   3 -26   -0.64    0.72
 -17  -5  30    0.21    0.59
 -17  -5  29    0.07    0.67
 -17   5  29    2.02    0.91
 -17   5  29   -0.97    1.12
 -17  -5  28   16.66    1.00
 -17   5  28   16.98    1.23
 -17   5  28   14.94    1.31
 -17  -5  27    2.07    0.67
 -17   5  27    2.38    0.94
 -17   5  27    1.75    1.02
 -17  -5  26   14.21    0.98
 -17   5  26   13.43    1.16
 -17   5  26   12.32    1.26
 -17  -5  25   28.64    1.32
 -17   5  25   27.36    1.51
 -17   5  25   28.13    1.50
 -17  -5  24    9.45    0.95
 -17   5  24    9.32    1.14
 -17   5  24   10.47    1.00
 -17  -5  23   16.44    1.05
 -17   5  23   16.01    1.20
 -17  -5  22    1.05    0.77
 -17   5  22    0.45    0.93
 -17  -5  21   26.87    1.42
 -17   5  21   32.26    1.63
 -17  -5  20   17.33    1.19
 -17   5  20   18.16    1.23
 -17  -5  19    5.03    0.83
 -17   5  19    6.93    0.99
 -17  -5  18   17.44    1.07
  17   5 -18   16.71    1.02
 -17   5  18   17.69    1.25
 -17  -5  17    3.31    0.72
  17   5 -17    3.35    0.68
 -17   5  17    2.78    0.93
 -17  -5  16   60.66    2.34
 -17  -5  15    5.29    0.83
  17   5 -15    5.33    0.73
 -17   5  15    5.42    0.98
 -17  -5  14   20.59    1.18
  17   5 -14   18.84    1.07
 -17   5  14   21.15    1.26
 -17  -5  13    2.11    0.78
  17   5 -13    1.24    0.65
 -17   5  13    2.39    0.90
 -17  -5  12    9.17    0.94
  17   5 -12    8.38    0.76
 -17   5  12    7.46    0.95
 -17  -5  11   31.76    1.44
  17   5 -11   31.82    1.41
 -17   5  11   32.51    1.59
 -17  -5  10   79.79    2.88
  17   5 -10   81.12    2.93
 -17   5  10   84.66    3.15
 -17  -5   9   43.42    1.75
  17   5  -8   12.03    0.82
 -17   5   8   12.49    0.98
  17  -5  -7   40.21    1.78
 -17  -5   7   38.16    1.54
  17   5  -7   36.66    1.48
 -17   5   7   35.38    1.59
  17  -5  -6    8.37    0.88
 -17  -5   6    9.03    0.71
 -17   5   6    7.27    0.80
  17  -5  -5    0.75    0.70
 -17  -5   5    0.90    0.54
 -17   5   5    0.31    0.66
  17  -5  -4   15.38    1.05
 -17  -5   4   15.84    0.87
 -17   5   4   14.31    1.02
  17  -5  -3    9.96    0.87
 -17  -5   3    7.74    0.62
 -17   5   3    7.71    0.80
  17  -5  -2   61.67    2.40
 -17  -5   2   61.77    2.21
 -17   5   2   64.94    2.47
  17  -5  -1    0.40    0.80
 -17  -5   1   -0.12    0.41
 -17   5   1   -1.26    0.71
  17  -5   0    1.57    0.82
 -17  -5   0    2.76    0.42
 -17   5   0    2.36    0.74
  17  -5   1   31.87    1.43
 -17  -5  -1   36.05    1.29
 -17   5  -1   30.71    1.44
  17  -5   2    3.34    0.62
 -17   5  -2    3.27    0.76
  17  -5   3   38.41    1.58
 -17   5  -3   44.39    1.86
  17  -5   4   22.62    1.12
 -17   5  -4   22.87    1.27
  17  -5   5   10.48    0.82
 -17   5  -5    9.32    0.90
  17  -5   6   13.30    0.93
 -17   5  -6   10.37    0.91
  17  -5   7    4.75    0.67
 -17   5  -7    7.07    0.86
  17  -5   8    5.06    0.66
 -17   5  -8    4.80    0.75
  17  -5   9    0.65    0.58
 -17   5  -9    0.32    0.70
  17  -5  10  106.40    3.77
 -17   5 -10   99.57    3.58
  17  -5  11    8.68    0.79
 -17   5 -11    9.44    0.83
  17  -5  12   57.18    2.19
 -17   5 -12   62.64    2.39
  17  -5  13   20.33    1.03
 -17   5 -13   18.59    1.09
  17  -5  14    3.80    0.63
 -17   5 -14    2.10    0.71
  17  -5  15   11.76    0.85
 -17   5 -15   12.68    0.95
  17  -5  16    5.14    0.62
 -17   5 -16    4.86    0.68
  17  -5  17   53.64    2.08
 -17   5 -17   59.01    2.22
  17  -5  18   43.34    1.72
 -17   5 -18   39.85    1.63
  17  -5  19   21.73    1.10
 -17   5 -19   22.18    1.09
  17  -5  20    1.21    0.64
 -17   5 -20    1.31    0.55
  17  -5  21    0.11    0.59
 -17   5 -21    0.37    0.58
  17  -5  22    0.58    0.63
 -17   5 -22   -0.06    0.57
  17  -5  23    0.45    0.58
 -17   5 -23    0.15    0.55
 -17  -7  25    8.48    0.76
 -17   7  25    5.63    1.12
 -17   7  25    5.04    1.28
 -17  -7  24   27.29    1.29
 -17   7  24   26.53    1.55
 -17  -7  23   15.07    0.95
 -17   7  23   14.86    1.38
 -17  -7  22   11.62    0.89
  17   7 -22    9.00    0.81
 -17   7  22   10.68    1.24
 -17  -7  21   18.81    1.09
  17   7 -21   20.32    1.11
 -17   7  21   19.48    1.33
 -17  -7  20    8.62    0.86
  17   7 -20    6.35    0.78
 -17   7  20    5.41    1.03
 -17  -7  19    0.01    0.74
  17   7 -19    1.03    0.67
 -17   7  19    1.19    0.99
 -17  -7  18    2.15    0.71
  17   7 -18    2.60    0.69
 -17   7  18    0.99    0.94
 -17  -7  17   32.15    1.47
  17   7 -17   34.66    1.53
 -17   7  17   31.68    1.57
 -17  -7  16   -0.31    0.73
  17   7 -16   -0.56    0.62
 -17   7  16    0.82    0.86
 -17  -7  15   37.25    1.57
  17   7 -15   31.20    1.45
 -17   7  15   33.96    1.59
 -17  -7  14    0.26    0.66
  17   7 -14   -0.46    0.63
 -17   7  14    0.66    0.86
 -17  -7  13   23.65    1.20
  17   7 -13   22.00    1.15
 -17   7  13   22.89    1.30
 -17  -7  12    4.00    0.75
  17   7 -12    4.99    0.74
 -17   7  12    4.67    0.82
 -17  -7  11    8.83    0.85
  17   7 -11    8.09    0.79
 -17   7  11    9.08    0.97
 -17  -7  10    4.10    0.71
  17   7 -10    3.55    0.68
 -17   7  10    3.29    0.77
  17  -7  -9    7.43    0.81
 -17  -7   9    8.15    0.76
  17   7  -9    8.67    0.77
 -17   7   9    8.13    0.92
  17  -7  -8    4.01    0.81
 -17  -7   8    3.43    0.65
  17   7  -8    3.60    0.67
 -17   7   8    4.04    0.80
  17  -7  -7    0.55    0.76
 -17  -7   7    0.88    0.55
  17   7  -7    1.33    0.58
 -17   7   7    1.64    0.75
  17  -7  -6    0.48    0.72
 -17  -7   6    0.51    0.50
  17   7  -6    0.39    0.58
 -17   7   6   -0.27    0.77
  17  -7  -5   17.33    1.05
 -17  -7   5   15.40    0.87
  17   7  -5   15.40    0.89
 -17   7   5   14.73    1.05
  17  -7  -4   24.96    1.24
 -17  -7   4   23.18    1.06
  17   7  -4   23.19    1.08
 -17   7   4   22.50    1.20
  17  -7  -3   58.00    2.20
 -17  -7   3   57.84    2.11
  17   7  -3   56.90    2.10
 -17   7   3   56.12    2.22
  17  -7  -2    5.83    0.74
 -17  -7   2    5.37    0.57
 -17   7   2    5.66    0.82
  17  -7  -1   90.12    3.29
 -17  -7   1   94.51    3.30
 -17   7   1   89.30    3.26
  17  -7   0   18.80    1.13
 -17  -7   0   19.36    0.93
 -17   7   0   18.35    1.14
  17  -7   1    0.85    0.66
 -17  -7  -1    0.13    0.44
 -17   7  -1   -0.47    0.76
  17  -7   2    0.77    0.59
 -17  -7  -2   -0.21    0.26
 -17   7  -2   -0.16    0.75
  17  -7   3    1.03    0.58
 -17   7  -3   -0.54    0.70
  17  -7   4   13.84    0.91
 -17   7  -4   13.47    0.97
  17  -7   5    0.05    0.60
 -17   7  -5   -0.48    0.67
  17  -7   6    4.12    0.65
 -17   7  -6    2.57    0.71
  17  -7   7    2.70    0.59
 -17   7  -7    0.95    0.66
  17  -7   8    0.95    0.61
 -17   7  -8   -0.85    0.71
  17  -7   9   22.99    1.17
 -17   7  -9   19.84    1.08
  17  -7  10    0.82    0.57
 -17   7 -10   -0.05    0.69
  17  -7  11   72.86    2.62
 -17   7 -11   67.84    2.51
  17  -7  12    5.78    0.66
 -17   7 -12    5.27    0.72
  17  -7  13   10.75    0.75
 -17   7 -13   10.73    0.82
  17  -7  14   -0.21    0.58
 -17   7 -14    0.86    0.68
  17  -7  15    1.78    0.53
 -17   7 -15    0.84    0.63
  17  -7  16    5.15    0.68
 -17   7 -16    4.93    0.69
  17  -7  17    1.77    0.55
 -17   7 -17    1.44    0.63
  17  -7  18    1.76    0.53
 -17   7 -18    0.99    0.57
 -17  -9  16    0.99    0.74
 -17  -9  15    6.24    0.71
  17   9 -15    6.85    0.86
 -17   9  15    5.15    0.99
 -17  -9  14    9.20    0.86
  17   9 -14    9.79    0.90
 -17   9  14    8.15    0.96
 -17  -9  13    3.79    0.74
  17   9 -13    4.93    0.82
 -17   9  13    3.86    0.91
 -17  -9  12    9.47    0.85
  17   9 -12   10.63    0.97
 -17   9  12    8.55    1.06
 -17  -9  11    2.00    0.69
  17   9 -11    1.60    0.82
 -17   9  11    1.17    0.91
 -17  -9  10    6.54    0.77
  17   9 -10    5.10    0.90
 -17   9  10    5.21    0.92
 -17  -9   9   11.05    0.91
  17   9  -9   13.18    1.07
 -17   9   9   11.29    1.06
  17  -9  -8   -0.12    0.79
 -17  -9   8    0.32    0.75
  17   9  -8    0.41    0.78
 -17   9   8   -1.51    0.85
  17  -9  -7   15.93    1.14
 -17  -9   7   17.04    1.04
  17  -9  -6    2.28    0.75
 -17  -9   6    3.63    0.77
  17   9  -6    2.59    0.79
 -17   9   6    2.25    0.88
  17  -9  -5   10.23    0.90
 -17  -9   5   11.12    0.96
  17  -9  -4   59.72    2.27
 -17  -9   4   57.37    2.23
  17   9  -4   64.21    2.46
 -17   9   4   60.07    2.33
  17  -9  -3   18.51    1.08
 -17  -9   3   17.07    1.07
 -17   9   3   18.88    1.16
  17  -9  -2    9.80    0.89
 -17  -9   2   11.38    1.04
 -17   9   2   10.16    0.97
  17  -9  -1    2.19    0.80
 -17  -9   1    1.61    0.80
 -17   9   1    3.01    0.76
  17  -9   0   16.41    1.01
 -17  -9   0   17.24    1.01
 -17   9   0   14.84    1.06
  17  -9   1   17.03    0.98
 -17  -9  -1   16.40    0.92
 -17   9  -1   16.32    1.05
  17  -9   2    2.09    0.70
 -17   9  -2    1.14    0.76
  17  -9   3   32.00    1.39
 -17   9  -3   31.88    1.44
  17  -9   4   12.00    0.87
 -17   9  -4   11.28    0.90
  17  -9   5   22.66    1.14
 -17   9  -5   24.21    1.22
  17  -9   6    0.96    0.57
 -17   9  -6    1.63    0.71
  17  -9   7    2.96    0.67
 -17   9  -7    2.55    0.68
  17  -9   8    1.67    0.60
 -17   9  -8    1.48    0.72
  17  -9   9    5.59    0.67
 -17   9  -9    5.96    0.75
 -18   0  34   21.10    1.20
 -18   0  33    1.07    0.91
 -18   0  32   55.09    2.22
 -18   0  31   -0.45    0.79
 -18   0  30   10.73    1.01
 -18   0  29    0.17    0.83
 -18   0  28    2.80    0.83
 -18   0  27   -1.04    0.78
 -18   0  26   30.44    1.52
 -18   0  25   -0.12    0.83
 -18   0  24    1.13    0.83
 -18   0  23    0.64    0.86
 -18   0  22    7.28    1.00
 -18   0  21   -0.83    0.87
 -18   0  20  126.80    4.45
 -18   0  19   -0.33    0.79
 -18   0  18   10.74    0.91
 -18   0  17    0.62    0.62
 -18   0  16   50.54    2.00
 -18   0  15    0.02    0.62
 -18   0   7   -0.63    0.56
 -18   0   6   49.63    1.95
 -18   0   5   -0.16    0.60
 -18   0   4 1281.00   41.65
 -18   0   3    2.42    0.60
 -18   0   2  282.90    9.37
 -18   0   1    0.61    0.57
  18   0   0    6.16    0.65
 -18   0   0    4.64    0.67
  18   0   1    0.59    0.51
 -18   0  -1    0.24    0.56
  18   0   2   75.86    2.69
 -18   0  -2   74.95    2.67
  18   0   3    0.25    0.52
 -18   0  -3    0.29    0.49
  18   0   4   65.85    2.37
 -18   0  -4   65.09    2.35
  18   0   5    0.27    0.50
 -18   0  -5   -0.09    0.49
  18   0   6   46.72    1.79
 -18   0  -6   47.84    1.83
  18   0   7    0.36    0.52
 -18   0  -7    0.44    0.52
  18   0   8  172.10    5.80
 -18   0  -8  184.40    6.22
  18   0   9    1.46    0.55
 -18   0  -9    0.30    0.56
  18   0  10   55.07    2.09
 -18   0 -10   48.93    1.91
  18   0  11    0.36    0.55
 -18   0 -11    0.79    0.54
  18   0  12   56.17    2.11
 -18   0 -12   53.67    2.05
  18   0  13    0.02    0.51
 -18   0 -13   -0.20    0.53
  18   0  14    5.12    0.56
 -18   0 -14    4.57    0.64
  18   0  15   -0.42    0.53
 -18   0 -15    0.48    0.52
  18   0  16    2.61    0.52
 -18   0 -16    0.94    0.53
  18   0  17    0.07    0.53
 -18   0 -17    0.64    0.50
  18   0  18   14.31    0.94
 -18   0 -18   15.46    0.91
  18   0  19   -0.38    0.61
 -18   0 -19    0.27    0.63
  18   0  20   96.53    3.42
 -18   0 -20   96.76    3.41
  18   0  21    0.38    0.59
 -18   0 -21    0.58    0.57
  18   0  22  104.10    3.67
 -18   0 -22  103.50    3.64
  18   0  23    0.43    0.61
 -18   0 -23    0.12    0.62
  18   0  24    3.07    0.72
 -18   0 -24    4.17    0.79
  18   0  25   -0.53    0.72
 -18   0 -25   -0.07    0.72
  18   0  26    0.61    0.76
  18   0  27    0.07    0.75
 -18  -2  33   14.93    1.09
 -18   2  33   15.91    1.13
 -18  -2  32   -0.11    0.77
 -18   2  32    0.43    0.88
 -18  -2  31    4.55    0.82
 -18   2  31    2.25    0.88
 -18  -2  30    3.40    0.81
 -18   2  30    4.00    0.88
 -18  -2  29    0.96    0.86
 -18   2  29    0.12    0.76
 -18  -2  28   58.57    2.28
 -18   2  28   56.04    2.23
 -18  -2  27    0.37    0.81
 -18   2  27    0.16    0.82
 -18  -2  26   25.01    1.33
 -18   2  26   22.50    1.30
 -18  -2  25   10.85    0.99
 -18   2  25   11.77    1.05
 -18  -2  24    2.03    0.86
 -18   2  24    2.78    0.87
 -18  -2  23    0.22    0.83
 -18   2  23    1.75    0.85
 -18  -2  22    0.01    0.81
 -18   2  22   -0.44    0.87
 -18  -2  21   40.88    1.75
 -18   2  21   38.77    1.76
 -18  -2  20   15.89    1.12
 -18   2  20   14.16    1.08
 -18  -2  19   36.90    1.73
 -18  -2  18   23.79    1.36
 -18  -2  17   28.24    1.40
 -18  -2  16   48.30    1.95
 -18   2  16   52.43    2.10
 -18  -2  15    0.07    0.60
 -18   2  15    0.21    0.69
 -18  -2  14  101.10    3.56
 -18   2  14  100.60    3.60
 -18  -2  13    3.78    0.70
 -18   2  13    5.45    0.77
 -18  -2  12   70.77    2.61
 -18   2  12   74.83    2.78
 -18  -2  11  128.00    4.45
 -18   2  11  125.30    4.37
 -18  -2  10  228.10    7.67
 -18   2  10  240.10    8.06
 -18  -2   9    0.29    0.59
 -18   2   9    0.25    0.69
 -18  -2   8    0.28    0.59
 -18   2   8    0.45    0.65
 -18  -2   7   89.55    3.15
 -18   2   7   88.07    3.16
 -18  -2   6  214.40    7.15
 -18   2   6  218.50    7.34
  18  -2  -5   20.62    1.12
 -18  -2   5   16.96    0.90
 -18   2   5   16.45    1.03
  18  -2  -4  135.90    4.68
 -18  -2   4  126.40    4.29
 -18   2   4  137.00    4.72
  18  -2  -3   82.96    2.98
 -18  -2   3   77.89    2.71
 -18   2   3   78.61    2.88
  18  -2  -2    7.27    0.77
 -18  -2   2    6.47    0.59
 -18  -2   2    6.47    0.51
 -18   2   2    4.13    0.70
  18  -2  -1    5.49    0.72
 -18  -2   1    4.16    0.49
 -18   2   1    5.12    0.72
  18  -2   0  281.00    9.35
 -18  -2   0  301.80    9.91
 -18   2   0  257.30    8.60
  18  -2   1  143.40    4.91
 -18  -2  -1  150.20    4.99
 -18   2  -1  148.30    5.09
  18  -2   2   34.22    1.47
 -18  -2  -2   30.78    1.16
 -18   2  -2   32.77    1.42
  18  -2   3   14.71    0.91
 -18  -2  -3   12.11    0.59
 -18   2  -3   10.74    0.78
  18  -2   4    7.46    0.77
 -18  -2  -4    6.38    0.41
 -18   2  -4    6.04    0.69
  18  -2   5    2.88    0.64
 -18  -2  -5    1.63    0.29
 -18   2  -5    2.34    0.61
  18  -2   6   72.37    2.66
 -18  -2  -6   73.22    2.48
 -18   2  -6   70.14    2.61
  18  -2   7    6.69    0.77
 -18  -2  -7    5.63    0.36
 -18   2  -7    6.02    0.76
  18  -2   8   46.71    1.88
 -18  -2  -8   48.31    1.68
  18   2   8   48.42    1.68
 -18   2  -8   45.68    1.84
  18  -2   9   30.59    1.39
 -18  -2  -9   30.48    1.12
  18   2   9   28.55    1.05
 -18   2  -9   28.64    1.37
  18  -2  10   18.72    1.09
 -18  -2 -10   17.73    0.76
  18   2  10   18.80    0.78
 -18   2 -10   17.86    1.08
  18  -2  11    6.12    0.64
 -18  -2 -11    7.82    0.51
  18  -2  12   34.66    1.49
 -18  -2 -12   35.23    1.31
  18   2  12   36.55    1.35
 -18   2 -12   34.95    1.54
  18  -2  13    0.75    0.61
 -18  -2 -13    1.31    0.37
  18   2  13    1.70    0.42
 -18   2 -13    0.89    0.62
  18  -2  14    5.02    0.71
  18   2  14    4.95    0.50
 -18   2 -14    4.56    0.69
  18  -2  15   17.77    0.98
  18   2  15   19.54    0.88
 -18   2 -15   16.71    1.01
  18  -2  16   64.73    2.45
  18   2  16   66.60    2.35
 -18   2 -16   66.36    2.51
  18  -2  17    2.67    0.63
  18   2  17    1.98    0.50
 -18   2 -17    3.29    0.64
  18  -2  18   16.66    1.03
  18   2  18   18.26    0.94
 -18   2 -18   15.96    1.00
  18  -2  19   63.85    2.43
  18   2  19   65.55    2.36
 -18   2 -19   61.12    2.29
  18  -2  20    1.27    0.66
  18   2  20    1.77    0.61
 -18   2 -20    1.26    0.66
  18  -2  21   18.61    1.01
  18   2  21   16.96    0.97
 -18   2 -21   15.28    0.94
  18  -2  22    0.44    0.57
  18   2  22    1.21    0.68
 -18   2 -22    0.51    0.57
  18  -2  23   21.75    1.17
  18   2  23   19.45    1.11
 -18   2 -23   18.87    1.05
  18  -2  24    6.28    0.81
  18   2  24    6.95    0.92
 -18   2 -24    6.24    0.76
  18  -2  25   -0.73    0.71
  18   2  25    0.88    0.95
 -18   2 -25    0.11    0.66
  18  -2  26   30.86    1.40
 -18  -4  31    1.55    0.69
 -18   4  31    1.51    0.95
 -18   4  31    1.71    1.18
 -18  -4  30    1.76    0.76
 -18   4  30    1.88    0.98
 -18   4  30    2.43    1.06
 -18  -4  29   -0.06    0.74
 -18   4  29    0.73    0.91
 -18   4  29    0.68    0.94
 -18  -4  28    4.99    0.84
 -18   4  28    6.28    0.92
 -18   4  28    4.78    1.09
 -18  -4  27   17.90    1.03
 -18   4  27   18.83    1.20
 -18   4  27   18.33    1.35
 -18  -4  26   -0.39    0.77
 -18   4  26    0.76    0.89
 -18   4  26    1.35    0.87
 -18  -4  25   44.68    1.84
 -18   4  25   42.83    1.88
 -18   4  25   41.66    1.87
 -18  -4  24    1.89    0.85
 -18   4  24    0.30    0.87
 -18   4  24    1.33    0.93
 -18  -4  23   20.62    1.28
 -18   4  23   20.62    1.29
 -18  -4  22   44.77    1.87
 -18   4  22   42.97    1.90
 -18  -4  21    3.52    0.86
 -18   4  21    3.30    0.96
 -18  -4  20    2.91    0.89
 -18   4  20    1.30    0.90
 -18  -4  19   44.62    1.97
 -18   4  19   46.55    2.01
 -18  -4  18    0.73    0.85
 -18   4  18    1.76    0.89
 -18  -4  17   14.64    1.10
 -18   4  17   14.86    1.14
 -18  -4  16   35.35    1.62
 -18   4  16   37.38    1.73
 -18  -4  15   -0.13    0.73
 -18   4  15    0.45    0.84
 -18  -4  14   22.41    1.15
 -18   4  14   25.23    1.37
 -18  -4  13   47.32    1.88
 -18   4  13   47.93    1.98
 -18  -4  12    1.07    0.68
 -18   4  12    0.12    0.74
 -18  -4  11  199.80    6.79
 -18   4  11  191.10    6.50
 -18  -4  10   21.76    1.18
 -18   4  10   20.59    1.17
 -18  -4   9   12.12    0.89
 -18   4   9   12.23    0.98
  18  -4  -8   19.59    1.06
 -18  -4   8   19.42    1.08
 -18   4   8   16.31    1.05
  18  -4  -7    2.26    0.69
 -18  -4   7    2.23    0.65
 -18   4   7    0.77    0.72
  18  -4  -6    8.87    0.84
 -18  -4   6    8.66    0.72
 -18   4   6    7.84    0.84
  18  -4  -5   73.62    2.74
 -18  -4   5   74.26    2.61
 -18   4   5   75.04    2.81
  18  -4  -4  253.50    8.48
 -18  -4   4  274.70    9.07
 -18   4   4  250.00    8.40
  18  -4  -3    4.67    0.73
 -18  -4   3    5.35    0.52
 -18   4   3    5.03    0.74
  18  -4  -2    7.11    0.75
 -18  -4   2    8.44    0.56
 -18   4   2    7.71    0.79
  18  -4  -1   94.93    3.37
 -18  -4   1   98.78    3.33
 -18   4   1   98.34    3.51
  18  -4   0   10.99    0.90
 -18  -4   0    9.67    0.48
 -18   4   0    8.54    0.87
  18  -4   1  125.70    4.40
 -18   4  -1  131.40    4.58
  18  -4   2   84.74    3.11
 -18   4  -2   89.12    3.23
  18  -4   3  156.10    5.37
 -18   4  -3  151.00    5.21
  18  -4   4    1.74    0.68
 -18   4  -4    1.41    0.67
  18  -4   5    0.94    0.73
 -18   4  -5    0.25    0.65
  18  -4   6    1.54    0.74
 -18   4  -6    1.21    0.76
  18  -4   7    0.57    0.56
 -18   4  -7    0.11    0.71
  18  -4   8   21.93    1.13
 -18   4  -8   21.68    1.20
  18  -4   9   19.29    1.02
 -18   4  -9   20.88    1.19
  18  -4  10   32.08    1.41
 -18   4 -10   33.69    1.52
  18  -4  11    6.14    0.68
 -18   4 -11    6.23    0.76
  18  -4  12   30.55    1.38
 -18   4 -12   27.69    1.32
  18  -4  13    8.34    0.73
 -18   4 -13    8.10    0.82
  18  -4  14    2.05    0.63
 -18   4 -14    2.44    0.64
  18  -4  15   89.77    3.25
 -18   4 -15   92.23    3.32
  18  -4  16   -0.10    0.54
 -18   4 -16   -0.10    0.65
  18  -4  17   22.27    1.15
 -18   4 -17   22.24    1.10
  18  -4  18   -0.51    0.61
 -18   4 -18   -0.78    0.61
  18  -4  19    1.99    0.60
 -18   4 -19    2.63    0.71
  18  -4  20    0.21    0.56
 -18   4 -20    0.64    0.68
  18  -4  21    6.59    0.71
 -18   4 -21    6.87    0.77
  18  -4  22    1.35    0.61
 -18   4 -22    0.87    0.66
  18  -4  23    1.93    0.65
 -18   4 -23    1.97    0.62
  18  -4  24    0.74    0.59
 -18   4 -24    1.77    0.61
 -18  -6  27    1.71    0.66
 -18   6  27    2.60    1.00
 -18   6  27    0.57    1.06
 -18  -6  26   12.24    0.94
 -18   6  26   10.74    1.15
 -18   6  26    8.02    1.21
 -18  -6  25    0.34    0.70
 -18   6  25    1.05    0.90
 -18   6  25   -1.49    1.07
 -18  -6  24   48.33    1.95
 -18   6  24   51.69    2.23
 -18  -6  23    0.27    0.75
 -18   6  23   -0.16    1.01
 -18  -6  22    0.36    0.73
 -18   6  22   -1.87    1.04
 -18  -6  21   16.01    1.03
 -18   6  21   15.23    1.17
 -18  -6  20    0.82    0.75
 -18   6  20    1.34    0.95
 -18  -6  19   42.75    1.83
  18   6 -19   52.34    2.08
 -18   6  19   48.74    2.08
 -18  -6  18    3.73    0.74
  18   6 -18    3.35    0.69
 -18   6  18    3.22    0.93
 -18  -6  17   44.23    1.81
  18   6 -17   42.94    1.77
 -18   6  17   46.28    1.96
 -18  -6  16   24.70    1.20
  18   6 -16   25.13    1.25
 -18   6  16   23.07    1.29
 -18  -6  15   -0.06    0.72
  18   6 -15   -0.40    0.59
 -18   6  15    0.08    0.79
 -18  -6  14   13.30    0.93
  18   6 -14   14.54    0.93
 -18   6  14   15.79    1.14
 -18  -6  13    2.03    0.75
  18   6 -13    1.93    0.66
 -18   6  13    2.28    0.84
 -18  -6  12   45.49    1.91
  18   6 -12   42.55    1.74
 -18   6  12   45.92    1.95
 -18  -6  11    3.48    0.70
  18   6 -11    3.01    0.65
 -18   6  11    2.63    0.82
 -18  -6  10   12.70    0.93
  18   6 -10   11.96    0.83
 -18   6  10   12.14    1.00
  18  -6  -9    4.64    0.73
 -18  -6   9    4.05    0.72
  18   6  -9    3.71    0.64
 -18   6   9    3.41    0.84
  18  -6  -8    2.73    0.72
 -18  -6   8    4.15    0.70
  18   6  -8    3.04    0.67
 -18   6   8    5.15    0.90
  18  -6  -7  200.50    6.78
 -18  -6   7  207.20    6.93
  18   6  -7  205.00    6.90
 -18   6   7  206.50    7.01
  18  -6  -6    4.09    0.75
 -18  -6   6    3.90    0.58
 -18   6   6    5.41    0.90
  18  -6  -5   18.06    1.13
 -18  -6   5   19.32    0.95
 -18   6   5   17.09    1.15
  18  -6  -4   53.36    2.13
 -18  -6   4   52.14    1.93
 -18   6   4   53.96    2.18
  18  -6  -3   20.03    1.12
 -18  -6   3   20.59    0.93
 -18   6   3   22.01    1.25
  18  -6  -2    0.94    0.63
 -18  -6   2    0.73    0.53
 -18   6   2    0.39    0.75
  18  -6  -1    7.15    0.73
 -18  -6   1    7.59    0.60
 -18   6   1    7.19    0.89
  18  -6   0   40.51    1.70
 -18  -6   0   39.84    1.46
 -18   6   0   41.44    1.76
  18  -6   1   24.85    1.28
 -18  -6  -1   24.77    0.94
 -18   6  -1   24.29    1.29
  18  -6   2    3.53    0.70
 -18   6  -2    3.83    0.80
  18  -6   3   37.98    1.65
 -18   6  -3   36.15    1.63
  18  -6   4   15.14    0.94
 -18   6  -4   14.89    1.06
  18  -6   5   36.47    1.54
 -18   6  -5   37.70    1.67
  18  -6   6   -0.26    0.56
 -18   6  -6    0.94    0.70
  18  -6   7    6.07    0.73
 -18   6  -7    8.60    0.91
  18  -6   8   90.13    3.24
 -18   6  -8  100.50    3.57
  18  -6   9   61.25    2.31
 -18   6  -9   46.36    1.88
  18  -6  10    0.67    0.54
 -18   6 -10    0.64    0.66
  18  -6  11    5.22    0.66
 -18   6 -11    4.02    0.70
  18  -6  12   20.54    1.07
 -18   6 -12   20.25    1.09
  18  -6  13   -0.11    0.55
 -18   6 -13    0.50    0.61
  18  -6  14   19.43    1.02
 -18   6 -14   19.86    1.07
  18  -6  15    1.35    0.55
 -18   6 -15    0.74    0.61
  18  -6  16    0.40    0.60
 -18   6 -16    1.55    0.62
  18  -6  17    7.37    0.67
 -18   6 -17    7.60    0.75
  18  -6  18    0.42    0.56
 -18   6 -18   -0.42    0.58
  18  -6  19   18.65    0.98
 -18   6 -19   16.59    0.98
  18  -6  20    3.20    0.60
 -18   6 -20    3.39    0.68
 -18  -8  21    0.55    0.77
 -18   8  21    0.65    0.94
 -18  -8  20   14.81    0.98
  18   8 -20   15.66    0.98
 -18   8  20   15.23    1.23
 -18  -8  19    9.14    0.81
  18   8 -19    8.73    0.84
 -18   8  19    7.75    1.21
 -18  -8  18   57.59    2.22
  18   8 -18   59.05    2.24
 -18   8  18   62.49    2.53
 -18  -8  17    0.11    0.74
  18   8 -17   -0.15    0.68
 -18   8  17   -0.61    0.96
 -18  -8  16    8.83    0.88
  18   8 -16   11.70    0.98
 -18   8  16    9.03    1.04
 -18  -8  15    1.53    0.74
  18   8 -15    3.30    0.75
 -18   8  15    1.68    0.88
 -18  -8  14    1.25    0.62
  18   8 -14    1.39    0.67
 -18   8  14   -0.40    0.87
 -18  -8  13    9.44    0.78
 -18  -8  12    3.30    0.71
  18   8 -12    1.07    0.75
 -18   8  12    3.51    0.89
 -18  -8  11   -0.16    0.66
  18   8 -11   -0.73    0.70
 -18   8  11   -0.74    0.75
 -18  -8  10    8.39    0.78
  18   8 -10    6.33    0.80
 -18   8  10    7.14    0.96
  18  -8  -9    0.72    0.65
 -18  -8   9    0.96    0.67
  18   8  -9    1.96    0.68
 -18   8   9    0.47    0.86
  18  -8  -8   13.00    0.96
 -18  -8   8   15.04    0.95
  18   8  -8   14.14    0.96
 -18   8   8   15.36    1.13
  18  -8  -7   22.79    1.21
 -18  -8   7   21.69    1.11
  18   8  -7   21.15    1.13
 -18   8   7   20.48    1.24
  18  -8  -6   25.06    1.24
 -18  -8   6   25.39    1.20
  18   8  -6   24.01    1.19
 -18   8   6   24.58    1.29
  18  -8  -5    1.42    0.77
 -18  -8   5    0.51    0.59
  18   8  -5    0.66    0.56
 -18   8   5    0.51    0.83
  18  -8  -4   21.60    1.26
 -18  -8   4   22.57    1.09
 -18   8   4   23.96    1.33
  18  -8  -3    8.01    0.90
 -18  -8   3    7.23    0.66
 -18   8   3    6.93    0.85
  18  -8  -2    4.65    0.77
 -18  -8   2    6.82    0.75
 -18   8   2    5.36    0.88
  18  -8  -1   32.30    1.44
 -18  -8   1   35.47    1.42
 -18   8   1   32.33    1.51
  18  -8   0    0.18    0.70
 -18  -8   0    0.99    0.53
 -18   8   0   -0.60    0.79
  18  -8   1    0.05    0.65
 -18  -8  -1    0.87    0.41
 -18   8  -1    1.35    0.79
  18  -8   2    1.75    0.65
 -18   8  -2    3.18    0.76
  18  -8   3    0.72    0.60
 -18   8  -3    0.50    0.70
  18  -8   4    0.88    0.66
 -18   8  -4    0.48    0.72
  18  -8   5   18.10    1.03
 -18   8  -5   18.71    1.07
  18  -8   6   17.08    0.95
 -18   8  -6   18.37    1.08
  18  -8   7    6.97    0.74
 -18   8  -7    7.96    0.85
  18  -8   8   18.76    1.04
 -18   8  -8   19.54    1.11
  18  -8   9   22.41    1.05
 -18   8  -9   21.36    1.10
  18  -8  10    3.62    0.63
 -18   8 -10    4.31    0.72
  18  -8  11    0.86    0.56
 -18   8 -11   -0.09    0.59
  18  -8  12   10.88    0.76
 -18   8 -12    7.81    0.71
  18  -8  13    0.19    0.51
 -18   8 -13   -0.12    0.63
  18  -8  14    5.08    0.59
 -18   8 -14    3.46    0.64
 -19  -1  34   39.84    1.79
 -19   1  34   43.95    1.99
 -19  -1  33    1.71    0.84
 -19   1  33    0.24    0.85
 -19  -1  32    6.07    0.89
 -19   1  32    7.32    0.98
 -19  -1  31    1.43    0.83
 -19   1  31   -0.06    0.80
 -19  -1  30    5.66    0.94
 -19   1  30    5.88    0.93
 -19  -1  29   17.77    1.13
 -19   1  29   18.49    1.18
 -19  -1  28    7.06    0.92
 -19   1  28    6.38    0.91
 -19  -1  27    2.39    0.77
 -19   1  27    2.96    0.84
 -19  -1  26    1.28    0.81
 -19   1  26   -0.36    0.83
 -19  -1  25   19.94    1.24
 -19   1  25   19.68    1.22
 -19  -1  24   12.41    1.08
 -19   1  24   11.79    1.06
 -19  -1  23    0.22    0.85
 -19   1  23    0.84    0.86
 -19  -1  22   99.02    3.63
 -19   1  22   98.46    3.55
 -19  -1  21   18.73    1.24
 -19   1  21   19.49    1.24
 -19  -1  20   35.71    1.65
 -19   1  20   34.65    1.64
 -19  -1  19   14.67    1.10
 -19   1  19   14.44    1.13
 -19  -1  18   63.65    2.42
 -19   1  18   63.94    2.45
 -19  -1  17   10.19    0.90
 -19  -1  16    3.62    0.74
 -19  -1  15   35.98    1.57
 -19  -1  14   13.30    0.94
 -19  -1  13  126.40    4.38
 -19  -1  12    5.16    0.67
 -19  -1  11   15.92    0.94
 -19   1  11   13.94    0.99
 -19   1  10    8.22    0.81
 -19   1   9  221.90    7.45
 -19   1   8    6.74    0.79
 -19   1   7  214.80    7.24
 -19   1   6    2.69    0.70
 -19   1   5    0.75    0.63
 -19  -1   4    7.51    0.71
 -19   1   4    6.60    0.73
  19  -1  -3  532.80   17.46
 -19  -1   3  477.50   15.64
 -19   1   3  468.20   15.37
  19  -1  -2   25.72    1.23
 -19  -1   2   23.94    1.08
 -19   1   2   23.79    1.18
  19  -1  -1  152.70    5.18
 -19  -1   1  151.50    5.10
 -19   1   1  159.20    5.42
  19  -1   0   18.43    0.98
 -19  -1   0   16.40    0.87
 -19   1   0   18.04    0.98
  19  -1   1    4.25    0.64
 -19  -1  -1    3.30    0.50
 -19   1  -1    3.22    0.64
  19  -1   2  187.60    6.31
 -19  -1  -2  188.60    6.27
 -19   1  -2  190.60    6.42
  19  -1   3   26.33    1.22
 -19  -1  -3   22.98    0.98
  19   1   3   23.68    1.01
 -19   1  -3   23.26    1.13
  19  -1   4   23.87    1.16
 -19  -1  -4   22.51    0.96
  19   1   4   23.63    1.01
 -19   1  -4   22.77    1.10
  19  -1   5    8.34    0.76
 -19  -1  -5    8.48    0.58
  19   1   5    9.27    0.62
 -19   1  -5    7.47    0.73
  19  -1   6   49.95    1.95
 -19  -1  -6   50.02    1.83
  19   1   6   49.80    1.81
 -19   1  -6   50.22    1.97
  19  -1   7    2.47    0.65
 -19  -1  -7    2.69    0.48
  19   1   7    2.41    0.49
 -19   1  -7    3.70    0.67
  19  -1   8   58.56    2.21
 -19  -1  -8   60.04    2.19
  19   1   8   61.21    2.20
 -19   1  -8   55.31    2.13
  19   1   9    3.60    0.51
 -19   1  -9    2.89    0.67
  19  -1  10  112.20    3.94
 -19  -1 -10  108.60    3.74
  19   1  10  108.90    3.74
 -19   1 -10  111.50    3.91
  19  -1  11  110.40    3.84
 -19  -1 -11  107.60    3.70
  19   1  11  111.40    3.80
 -19   1 -11  109.50    3.84
  19  -1  12   44.93    1.79
 -19  -1 -12   44.28    1.65
  19   1  12   45.76    1.71
 -19   1 -12   43.64    1.78
  19  -1  13   25.28    1.19
 -19  -1 -13   27.45    1.15
  19   1  13   26.31    1.11
 -19   1 -13   28.42    1.34
  19  -1  14   20.35    1.06
 -19  -1 -14   20.08    0.93
  19   1  14   19.68    0.93
 -19   1 -14   22.04    1.13
  19  -1  15   15.87    0.94
 -19  -1 -15   14.69    0.81
  19   1  15   15.38    0.83
 -19   1 -15   15.12    0.92
  19  -1  16   11.41    0.82
 -19  -1 -16   13.15    0.79
  19   1  16   12.32    0.76
 -19   1 -16   11.73    0.79
  19  -1  17   19.40    1.07
 -19  -1 -17   19.87    1.00
  19   1  17   20.99    1.03
 -19   1 -17   19.09    1.01
  19  -1  18   81.72    2.97
 -19  -1 -18   82.35    2.92
  19   1  18   79.93    2.84
 -19   1 -18   81.18    2.92
  19  -1  19   10.35    0.79
 -19  -1 -19    9.07    0.73
  19   1  19    9.16    0.70
 -19   1 -19   11.47    0.83
  19  -1  20    4.69    0.69
 -19  -1 -20    3.67    0.64
  19   1  20    3.67    0.63
 -19   1 -20    3.74    0.64
  19  -1  21    2.13    0.63
 -19  -1 -21    1.37    0.58
  19   1  21    2.73    0.61
 -19   1 -21    0.93    0.58
  19  -1  22    4.95    0.71
  19   1  22    6.23    0.67
 -19   1 -22    7.91    0.80
  19  -1  23   -0.09    0.63
  19   1  23    1.01    0.67
 -19   1 -23    1.30    0.66
  19  -1  24   11.68    0.87
  19   1  24   12.53    0.94
 -19   1 -24   10.50    0.86
  19  -1  25   -0.43    0.73
  19   1  25    0.85    0.77
 -19   1 -25    0.82    0.73
  19  -1  26    2.06    0.74
  19   1  26    2.37    0.88
 -19   1 -26    0.67    0.71
 -19  -3  32    7.76    0.95
 -19   3  32    7.45    1.00
 -19   3  32    6.85    1.15
 -19  -3  31   27.20    1.33
 -19   3  31   22.92    1.34
 -19   3  31   25.05    1.43
 -19  -3  30   58.80    2.21
 -19   3  30   61.64    2.44
 -19   3  30   64.99    2.53
 -19  -3  29    9.08    0.91
 -19   3  29    6.34    0.98
 -19   3  29    8.61    1.00
 -19  -3  28   29.23    1.44
 -19   3  28   30.68    1.52
 -19   3  28   28.34    1.46
 -19  -3  27   -1.02    0.72
 -19   3  27    0.97    0.85
 -19   3  27    0.34    0.89
 -19  -3  26    2.92    0.87
 -19   3  26    3.77    0.87
 -19   3  26    3.60    0.99
 -19  -3  25    3.04    0.82
 -19   3  25    4.18    0.94
 -19   3  25    5.35    0.92
 -19  -3  24   33.82    1.52
 -19   3  24   36.63    1.73
 -19   3  24   33.33    1.61
 -19  -3  23    0.04    0.80
 -19   3  23    0.58    0.81
 -19   3  23    0.49    0.91
 -19  -3  22    0.59    0.87
 -19   3  22   -0.84    0.88
 -19  -3  21   14.91    1.12
 -19   3  21   12.61    1.08
 -19  -3  20   46.86    1.96
 -19   3  20   48.71    2.07
 -19  -3  19    3.36    0.82
 -19   3  19    4.36    0.98
 -19  -3  18  100.70    3.64
 -19   3  18  101.60    3.70
 -19  -3  17    0.49    0.80
 -19   3  17   -0.12    0.90
 -19  -3  16   16.99    1.11
 -19   3  16   18.59    1.24
 -19  -3  15   19.63    1.16
 -19   3  15   19.59    1.14
 -19  -3  14   59.28    2.30
 -19   3  14   57.49    2.28
 -19  -3  13   43.47    1.81
 -19   3  13   42.04    1.78
 -19  -3  12   48.70    1.92
 -19   3  12   43.93    1.85
 -19  -3  11   34.43    1.45
 -19   3  11   36.92    1.65
 -19  -3  10   16.38    0.91
 -19   3  10   13.26    1.00
 -19  -3   9    1.31    0.55
 -19   3   9    1.08    0.69
 -19  -3   8   13.17    0.88
 -19   3   8   14.84    1.01
  19  -3  -7   69.11    2.56
 -19  -3   7   65.69    2.43
 -19   3   7   65.89    2.49
  19  -3  -6   26.86    1.26
 -19  -3   6   23.05    1.11
 -19   3   6   23.84    1.22
  19  -3  -5   55.64    2.15
 -19  -3   5   58.21    2.17
 -19   3   5   58.14    2.25
  19  -3  -4   16.62    1.01
 -19  -3   4   15.09    0.85
 -19   3   4   15.09    0.98
  19  -3  -3  107.90    3.80
 -19  -3   3  104.90    3.61
 -19   3   3  102.20    3.62
  19  -3  -2   70.13    2.59
 -19  -3   2   67.22    2.37
 -19   3   2   68.59    2.58
  19  -3  -1   65.81    2.45
 -19  -3   1   70.44    2.45
 -19  -3   1   61.11    2.15
 -19   3   1   61.25    2.35
  19  -3   0   73.53    2.70
 -19  -3   0   70.55    2.43
 -19  -3   0   73.52    2.52
 -19   3   0   71.42    2.65
  19  -3   1   22.03    1.15
 -19  -3  -1   21.49    0.84
 -19   3  -1   21.81    1.12
  19  -3   2   64.21    2.42
 -19   3  -2   60.06    2.29
  19  -3   3    3.93    0.70
 -19   3  -3    0.89    0.61
  19  -3   4   70.74    2.63
 -19   3  -4   71.55    2.66
  19  -3   5    8.73    0.83
 -19   3  -5    7.65    0.82
  19  -3   6   43.62    1.79
 -19   3  -6   40.47    1.71
  19  -3   7    5.77    0.74
 -19   3  -7    5.04    0.77
  19  -3   8  126.80    4.43
 -19   3  -8  126.50    4.42
  19  -3   9   34.84    1.56
 -19   3  -9   31.82    1.47
  19  -3  10   44.05    1.81
 -19   3 -10   40.91    1.77
  19  -3  11   10.10    0.85
 -19   3 -11   10.66    0.96
  19  -3  12   83.40    3.04
 -19   3 -12   77.74    2.88
  19  -3  13    1.14    0.67
 -19   3 -13    0.88    0.63
  19  -3  14    7.25    0.78
 -19   3 -14    8.32    0.86
  19  -3  15    7.24    0.71
 -19   3 -15    9.09    0.81
  19  -3  16   29.78    1.39
 -19   3 -16   28.44    1.36
  19  -3  17    0.32    0.64
 -19   3 -17   -1.19    0.59
  19  -3  18    3.87    0.68
 -19   3 -18    3.94    0.74
  19  -3  19    3.71    0.61
 -19   3 -19    4.10    0.73
  19  -3  20    0.43    0.56
 -19   3 -20   -0.16    0.56
  19  -3  21    5.99    0.67
 -19   3 -21    7.77    0.79
  19  -3  22    6.56    0.74
 -19   3 -22    6.34    0.77
  19  -3  23   -0.12    0.60
 -19   3 -23    1.15    0.65
  19  -3  24   21.29    1.13
 -19   3 -24   17.29    0.97
  19  -3  25   11.22    0.86
 -19   3 -25   10.12    0.81
 -19  -5  29    0.42    0.66
 -19   5  29    1.25    0.94
 -19   5  29   -1.28    1.19
 -19  -5  28   -0.23    0.68
 -19   5  28    0.75    1.12
 -19   5  28   -0.36    0.92
 -19  -5  27    8.83    0.86
 -19   5  27    7.63    1.12
 -19   5  27    6.56    1.02
 -19  -5  26    5.52    0.79
 -19   5  26    5.49    1.08
 -19   5  26    4.07    0.95
 -19  -5  25    3.98    0.83
 -19   5  25    3.29    1.04
 -19   5  25    0.77    0.92
 -19  -5  24   18.50    1.14
 -19   5  24   18.42    1.28
 -19  -5  23   21.86    1.18
 -19   5  23   23.74    1.39
 -19  -5  22   34.16    1.61
 -19   5  22   35.22    1.69
 -19  -5  21    6.29    0.95
 -19   5  21    7.00    1.00
 -19  -5  20    2.45    0.76
 -19   5  20    1.87    0.90
 -19  -5  19   13.89    1.02
 -19   5  19   14.74    1.14
 -19  -5  18    1.13    0.77
 -19   5  18    1.71    0.88
 -19  -5  17   44.92    1.94
 -19   5  17   36.02    1.72
 -19  -5  16    5.13    0.81
 -19   5  16    3.34    0.93
 -19  -5  15   23.63    1.31
 -19   5  15   17.88    1.22
 -19  -5  14   71.46    2.73
 -19   5  14   58.98    2.37
 -19  -5  13    7.69    0.85
 -19   5  13    8.81    0.98
 -19  -5  12   18.63    1.10
 -19   5  12   19.05    1.21
 -19  -5  11    1.16    0.65
 -19   5  11    2.18    0.90
 -19  -5  10   65.16    2.42
 -19   5  10   66.81    2.59
 -19  -5   9   39.64    1.66
 -19   5   9   41.33    1.82
  19  -5  -8   14.22    0.99
 -19  -5   8   15.02    0.94
 -19   5   8   13.07    1.07
  19  -5  -7   14.04    0.97
 -19  -5   7   16.24    0.96
 -19   5   7   13.55    1.08
  19  -5  -6   11.61    0.85
 -19  -5   6   11.12    0.82
 -19   5   6   10.57    0.97
  19  -5  -5   31.28    1.38
 -19  -5   5   33.54    1.45
 -19   5   5   35.64    1.62
  19  -5  -4    0.44    0.63
 -19  -5   4    0.99    0.54
 -19   5   4    2.09    0.73
  19  -5  -3   23.15    1.19
 -19  -5   3   23.03    1.04
 -19   5   3   23.13    1.24
  19  -5  -2   12.01    0.92
 -19  -5   2   10.76    0.64
 -19   5   2   12.24    0.96
  19  -5  -1   79.34    2.93
 -19  -5   1   80.48    2.78
 -19   5   1   83.65    3.07
  19  -5   0   22.58    1.14
 -19  -5   0   25.34    0.98
 -19   5   0   24.25    1.29
  19  -5   1    3.58    0.64
 -19   5  -1    2.08    0.73
  19  -5   2   52.22    2.03
 -19   5  -2   53.85    2.16
  19  -5   3    2.53    0.62
 -19   5  -3    2.89    0.84
  19  -5   4  112.40    3.98
 -19   5  -4  117.20    4.15
  19  -5   5   61.24    2.37
 -19   5  -5   64.33    2.49
  19  -5   6   30.42    1.37
 -19   5  -6   37.83    1.67
  19  -5   7   20.96    1.11
 -19   5  -7   23.76    1.26
  19  -5   8   10.78    0.84
 -19   5  -8    9.21    0.90
  19  -5   9   94.97    3.40
 -19   5  -9  101.70    3.64
  19  -5  10   68.83    2.56
 -19   5 -10   60.47    2.32
  19  -5  11   72.84    2.65
 -19   5 -11   86.61    3.15
  19  -5  12   15.94    0.92
 -19   5 -12   16.54    1.02
  19  -5  13    9.14    0.78
 -19   5 -13    9.82    0.88
  19  -5  14    6.41    0.67
 -19   5 -14    5.68    0.72
  19  -5  15    8.48    0.72
 -19   5 -15    7.71    0.77
  19  -5  16    9.39    0.80
 -19   5 -16    9.59    0.77
  19  -5  17    4.97    0.63
 -19   5 -17    4.45    0.65
  19  -5  18   16.00    0.92
 -19   5 -18   16.74    0.97
  19  -5  19    2.27    0.64
 -19   5 -19    1.78    0.66
  19  -5  20    1.11    0.63
 -19   5 -20   -0.08    0.62
  19  -5  21   33.42    1.45
 -19   5 -21   32.49    1.40
  19  -5  22   11.83    0.85
 -19   5 -22   13.14    0.82
 -19  -7  24   -1.17    0.70
 -19   7  24    1.25    1.03
 -19  -7  23   -0.49    0.63
 -19   7  23    1.33    1.10
 -19  -7  22   -0.44    0.66
 -19   7  22   -0.79    1.06
 -19  -7  21   59.16    2.27
 -19   7  21   64.56    2.56
 -19  -7  20    0.61    0.67
 -19   7  20    1.08    1.02
 -19  -7  19    1.54    0.78
 -19   7  19    0.04    0.87
 -19  -7  18   -0.42    0.75
 -19   7  18    1.33    0.86
 -19  -7  17    4.04    0.84
  19   7 -17    3.37    0.64
 -19   7  17    3.79    0.89
 -19  -7  16    0.13    0.75
  19   7 -16   -0.88    0.63
 -19   7  16    0.00    0.92
 -19  -7  15    0.88    0.77
  19   7 -15    0.57    0.63
 -19   7  15   -0.38    0.84
 -19  -7  14   -0.47    0.74
  19   7 -14    1.87    0.66
 -19   7  14    1.31    0.80
 -19  -7  13    2.14    0.73
  19   7 -13    3.32    0.68
 -19   7  13    1.17    0.87
 -19  -7  12    0.23    0.68
  19   7 -12    0.27    0.61
 -19   7  12    0.55    0.82
 -19  -7  11   23.53    1.21
  19   7 -11   23.83    1.16
 -19   7  11   25.73    1.33
 -19  -7  10   21.18    1.11
  19   7 -10   21.31    1.08
 -19   7  10   20.61    1.23
  19  -7  -9   61.96    2.44
 -19  -7   9   58.77    2.20
  19   7  -9   59.22    2.23
 -19   7   9   61.01    2.37
  19  -7  -8    9.44    0.99
 -19  -7   8    9.06    0.75
 -19   7   8    7.69    0.93
  19  -7  -7   12.57    0.97
 -19  -7   7   13.33    0.84
 -19   7   7   12.27    1.01
  19  -7  -6    1.96    0.69
 -19  -7   6    3.28    0.56
 -19   7   6    2.57    0.77
  19  -7  -5    8.23    0.80
 -19  -7   5    7.06    0.65
 -19   7   5    7.42    0.87
  19  -7  -4   -0.67    0.72
 -19  -7   4   -0.38    0.51
 -19   7   4    0.60    0.79
  19  -7  -3    1.33    0.68
 -19  -7   3    0.66    0.48
 -19   7   3    1.32    0.77
  19  -7  -2    0.47    0.67
 -19  -7   2    0.57    0.54
 -19   7   2    0.06    0.73
  19  -7  -1   14.35    0.96
 -19  -7   1   14.93    0.79
 -19   7   1   13.50    1.02
  19  -7   0    2.95    0.68
 -19  -7   0    2.19    0.45
 -19   7   0    1.64    0.74
  19  -7   1    9.80    0.80
 -19  -7  -1   10.31    0.46
 -19   7  -1   10.41    0.91
  19  -7   2    0.20    0.62
 -19   7  -2    0.51    0.79
  19  -7   3   20.83    1.11
 -19   7  -3   20.11    1.12
  19  -7   4   22.16    1.13
 -19   7  -4   19.64    1.14
  19  -7   5   52.36    2.02
 -19   7  -5   51.70    2.05
  19  -7   6    2.56    0.61
 -19   7  -6    3.08    0.74
  19  -7   7   13.61    0.89
 -19   7  -7   13.35    0.93
  19  -7   8    3.76    0.70
 -19   7  -8    3.47    0.69
  19  -7   9    8.08    0.71
 -19   7  -9    9.24    0.83
  19  -7  10   -0.11    0.59
 -19   7 -10   -0.01    0.68
  19  -7  11    0.12    0.55
 -19   7 -11    1.50    0.64
  19  -7  12    0.07    0.52
 -19   7 -12    0.56    0.68
  19  -7  13    0.45    0.56
 -19   7 -13    0.35    0.63
  19  -7  14    0.50    0.58
 -19   7 -14    0.17    0.62
  19  -7  15   44.98    1.74
 -19   7 -15   47.84    1.86
  19  -7  16   16.43    0.92
 -19   7 -16   15.00    0.97
  19  -7  17   20.47    0.95
 -19   7 -17   21.24    1.06
 -19  -9  15   12.25    0.96
 -19  -9  14    4.89    0.79
  19   9 -14    5.36    0.82
 -19   9  14    5.09    0.95
 -19  -9  13    0.60    0.75
  19   9 -13    0.48    0.73
 -19   9  13   -0.20    0.89
 -19  -9  12    6.28    0.76
  19   9 -12    8.08    0.89
 -19   9  12    7.90    0.99
 -19  -9  11    1.75    0.70
  19   9 -11    0.30    0.80
 -19   9  11    0.73    0.87
 -19  -9  10   18.19    1.08
 -19   9  10   16.23    1.16
 -19  -9   9    0.48    0.74
 -19   9   9   -0.86    0.89
  19  -9  -8    9.93    0.89
 -19  -9   8    8.45    0.93
 -19   9   8    9.05    0.94
  19  -9  -7    0.18    0.72
 -19  -9   7    1.02    0.73
 -19   9   7    0.30    0.86
  19  -9  -6   -0.12    0.77
 -19  -9   6    1.38    0.70
 -19   9   6    0.31    0.85
  19  -9  -5   35.15    1.54
 -19  -9   5   34.09    1.53
 -19   9   5   33.32    1.53
  19  -9  -4    1.95    0.80
 -19  -9   4    2.23    0.77
 -19   9   4    2.25    0.77
  19  -9  -3   15.44    0.99
 -19  -9   3   16.65    1.15
 -19   9   3   16.73    1.10
  19  -9  -2    7.23    0.84
 -19  -9   2    5.59    0.88
 -19   9   2    5.78    0.82
  19  -9  -1    4.62    0.79
 -19  -9   1    4.14    0.77
 -19   9   1    2.65    0.83
  19  -9   0   -1.02    0.66
 -19  -9   0   -0.12    0.56
 -19   9   0    0.47    0.71
  19  -9   1    0.14    0.63
 -19   9  -1    0.62    0.69
  19  -9   2    5.81    0.76
 -19   9  -2    6.70    0.85
  19  -9   3    4.55    0.69
 -19   9  -3    3.42    0.72
  19  -9   4    9.37    0.76
 -19   9  -4    9.82    0.89
  19  -9   5    1.24    0.66
 -19   9  -5    0.42    0.66
  19  -9   6    2.41    0.63
 -19   9  -6    1.98    0.78
  19  -9   7   -0.11    0.54
 -19   9  -7    0.50    0.65
 -20   0  34    1.05    0.93
 -20   0  33   -0.70    0.87
 -20   0  32    5.40    0.94
 -20   0  31   -0.18    0.83
 -20   0  30   -0.74    0.82
 -20   0  29    0.88    0.82
 -20   0  28   27.05    1.33
 -20   0  27   -0.20    0.83
 -20   0  26   22.85    1.28
 -20   0  25   -0.39    0.74
 -20   0  24   73.85    2.82
 -20   0  23   -0.32    0.88
 -20   0  22    5.99    0.92
 -20   0  21   -0.09    0.87
 -20   0  20   34.28    1.62
 -20   0  19    0.55    0.89
 -20   0  18    2.26    0.73
 -20   0  17   -0.47    0.66
 -20   0  16    1.92    0.60
 -20   0  15   -0.52    0.54
 -20   0   8    1.12    0.64
 -20   0   7   -0.33    0.61
 -20   0   6   88.07    3.14
 -20   0   5    0.03    0.66
 -20   0   4   37.20    1.56
 -20   0   3    1.00    0.63
 -20   0   2   73.62    2.67
 -20   0   1   -0.56    0.60
  20   0   1    0.01    0.54
 -20   0  -1    0.78    0.54
  20   0   2   10.76    0.74
 -20   0  -2    8.90    0.70
  20   0   3    0.04    0.50
 -20   0  -3    0.53    0.50
  20   0   4  199.60    6.67
 -20   0  -4  205.30    6.86
  20   0   5   -0.18    0.50
 -20   0  -5    0.39    0.52
  20   0   6    1.44    0.57
 -20   0  -6    1.47    0.54
  20   0   7    0.22    0.56
 -20   0  -7   -0.05    0.54
  20   0   8   86.27    3.06
 -20   0  -8   83.00    2.97
  20   0   9    0.04    0.54
 -20   0  -9   -0.10    0.61
  20   0  10  121.00    4.16
 -20   0 -10  124.90    4.31
  20   0  11    0.14    0.50
 -20   0 -11    0.55    0.55
  20   0  12  101.30    3.53
 -20   0 -12  104.30    3.64
  20   0  13   -0.05    0.47
 -20   0 -13   -0.64    0.50
  20   0  14   16.86    0.90
 -20   0 -14   18.24    0.95
  20   0  15    0.78    0.52
 -20   0 -15    0.20    0.57
  20   0  16   66.78    2.46
 -20   0 -16   69.96    2.57
  20   0  17    0.18    0.55
 -20   0 -17    1.19    0.56
  20   0  18    7.17    0.74
 -20   0 -18    7.09    0.68
  20   0  19   -1.30    0.54
 -20   0 -19    0.45    0.56
  20   0  20    1.21    0.58
 -20   0 -20    2.25    0.64
  20   0  21    0.73    0.61
 -20   0 -21   -0.99    0.60
  20   0  22    4.25    0.67
 -20   0 -22    3.73    0.69
  20   0  23   -0.39    0.64
 -20   0 -23    0.03    0.67
  20   0  24   17.26    1.03
 -20   0 -24   18.71    1.16
  20   0  25   -0.46    0.71
 -20   0 -25   -0.04    0.78
  20   0  26   21.22    1.24
 -20  -2  33    0.70    0.85
 -20   2  33   -0.76    0.82
 -20  -2  32   11.86    1.03
 -20   2  32   12.79    1.06
 -20  -2  31    0.15    0.78
 -20   2  31    0.82    0.85
 -20  -2  30   -0.93    0.78
 -20   2  30   -0.18    0.81
 -20  -2  29    1.62    0.82
 -20   2  29    0.38    0.79
 -20  -2  28    0.57    0.78
 -20   2  28    0.58    0.82
 -20  -2  27   18.21    1.19
 -20   2  27   18.98    1.19
 -20  -2  26   -0.02    0.74
 -20   2  26    0.10    0.82
 -20  -2  25   33.97    1.60
 -20   2  25   32.82    1.61
 -20  -2  24    2.61    0.91
 -20   2  24    3.54    0.91
 -20  -2  23   16.79    1.13
 -20   2  23   15.00    1.16
 -20  -2  22   23.16    1.29
 -20   2  22   23.04    1.34
 -20  -2  21    0.16    0.89
 -20   2  21    1.22    0.85
 -20  -2  20    5.85    1.02
 -20  -2  19   51.94    2.20
 -20  -2  18  141.50    4.93
 -20   2  18  145.20    5.07
 -20  -2  17    0.47    0.66
 -20   2  17    1.28    0.86
 -20  -2  16    9.27    0.82
 -20   2  16    7.54    0.88
 -20  -2  15    0.55    0.64
 -20   2  15    2.16    0.71
 -20  -2  14    9.98    0.90
 -20   2  14   10.29    0.92
 -20  -2  13  121.10    4.25
 -20   2  13  113.90    4.02
 -20  -2  12    3.13    0.67
 -20   2  12    1.34    0.71
 -20  -2  11   34.92    1.52
 -20   2  11   32.89    1.52
 -20  -2  10   14.99    0.94
 -20   2  10   15.25    1.00
 -20  -2   9    0.61    0.60
 -20   2   9   -0.57    0.66
 -20  -2   8   59.23    2.20
 -20   2   8   58.79    2.27
 -20  -2   7   18.99    0.96
 -20   2   7   18.28    1.06
 -20  -2   6   96.85    3.36
 -20   2   6  102.20    3.62
  20  -2  -5    0.65    0.59
 -20  -2   5    1.15    0.51
 -20   2   5    0.41    0.64
  20  -2  -4    0.65    0.61
 -20  -2   4    0.96    0.52
 -20   2   4    0.98    0.67
  20  -2  -3   10.59    0.82
 -20  -2   3    8.99    0.69
 -20   2   3    7.11    0.78
  20  -2  -2   34.48    1.47
 -20  -2   2   30.95    1.25
 -20   2   2   34.76    1.52
  20  -2  -1   28.13    1.29
 -20  -2   1   24.78    1.05
 -20   2   1   26.53    1.28
  20  -2   0   37.67    1.56
 -20  -2   0   34.61    1.33
 -20   2   0   33.93    1.50
  20  -2   1   99.18    3.50
 -20  -2  -1   99.12    3.37
 -20   2  -1   94.18    3.35
  20  -2   2  254.90    8.50
 -20  -2  -2  267.30    8.80
 -20   2  -2  258.70    8.64
  20  -2   3   28.95    1.32
 -20  -2  -3   27.13    1.05
 -20   2  -3   24.11    1.17
  20  -2   4   12.44    0.90
 -20  -2  -4   11.10    0.56
 -20   2  -4   11.43    0.86
  20  -2   5   64.91    2.43
 -20  -2  -5   66.82    2.29
 -20   2  -5   62.21    2.37
  20  -2   6  142.10    4.89
 -20  -2  -6  147.90    4.92
 -20   2  -6  144.60    4.99
  20  -2   7    1.50    0.62
 -20  -2  -7    1.17    0.32
 -20   2  -7    0.71    0.67
  20  -2   8   24.59    1.24
 -20  -2  -8   24.36    0.95
 -20   2  -8   21.31    1.12
  20  -2   9   22.32    1.18
 -20  -2  -9   22.12    0.89
  20   2   9   18.39    0.78
 -20   2  -9   21.16    1.17
  20  -2  10   46.48    1.85
 -20  -2 -10   48.46    1.71
  20   2  10   45.73    1.63
 -20   2 -10   50.01    2.03
  20  -2  11   26.52    1.26
 -20  -2 -11   26.11    1.01
  20  -2  12    4.02    0.66
 -20  -2 -12    4.58    0.45
  20   2  12    4.82    0.44
 -20   2 -12    5.55    0.73
  20  -2  13  157.70    5.41
 -20  -2 -13  164.60    5.49
  20   2  13  157.30    5.25
 -20   2 -13  156.20    5.37
  20   2  14    6.84    0.53
 -20   2 -14    5.63    0.72
  20  -2  15   22.12    1.12
  20   2  15   23.52    0.99
 -20   2 -15   24.22    1.25
  20  -2  16   36.13    1.57
  20   2  16   38.76    1.48
 -20   2 -16   35.95    1.55
  20  -2  17    1.21    0.67
  20   2  17    0.19    0.50
 -20   2 -17    0.02    0.66
  20  -2  18   41.24    1.71
  20  -2  19   29.70    1.36
  20   2  19   29.25    1.25
 -20   2 -19   28.07    1.32
  20  -2  20   23.80    1.19
  20   2  20   27.24    1.21
 -20   2 -20   25.15    1.22
  20  -2  21    0.36    0.64
  20   2  21    1.27    0.68
 -20   2 -21    0.37    0.63
  20  -2  22    9.75    0.86
  20  -2  23    1.82    0.69
  20   2  23    4.44    0.85
 -20   2 -23    3.78    0.69
  20  -2  24    6.85    0.81
  20   2  24    6.74    1.05
 -20   2 -24    5.22    0.69
  20  -2  25    0.74    0.69
  20   2  25   -1.01    1.06
 -20   2 -25   -0.53    0.69
 -20  -4  31   11.51    0.93
 -20   4  31    9.84    1.10
 -20   4  31    8.96    1.19
 -20  -4  30    1.39    0.74
 -20   4  30    1.45    1.00
 -20   4  30    1.21    0.95
 -20  -4  29    2.11    0.72
 -20   4  29    2.46    0.97
 -20   4  29    2.65    0.97
 -20  -4  28    1.77    0.73
 -20   4  28    1.30    0.92
 -20   4  28    1.41    0.96
 -20  -4  27    8.14    0.90
 -20   4  27    7.94    1.08
 -20   4  27    6.75    1.01
 -20  -4  26    0.91    0.75
 -20   4  26   -0.24    0.86
 -20   4  26   -0.17    0.97
 -20  -4  25    9.47    0.89
 -20   4  25   12.64    1.03
 -20   4  25   10.33    1.09
 -20  -4  24    0.77    0.86
 -20   4  24   -0.26    0.94
 -20   4  24    0.25    0.77
 -20  -4  23    1.19    0.80
 -20   4  23    1.87    0.91
 -20  -4  22   20.76    1.17
 -20   4  22   21.18    1.33
 -20  -4  21   47.64    2.04
 -20   4  21   48.44    2.06
 -20  -4  20   13.14    1.08
 -20   4  20   10.85    1.08
 -20  -4  19   38.71    1.81
 -20   4  19   40.51    1.84
 -20  -4  18  116.40    4.12
 -20   4  18  111.30    4.00
 -20  -4  17   78.12    2.89
 -20   4  17   82.10    3.08
 -20  -4  16    0.85    0.81
 -20   4  16    2.21    0.91
 -20  -4  15   14.36    1.02
 -20   4  15   14.80    1.18
 -20  -4  14   24.80    1.33
 -20   4  14   20.55    1.27
 -20  -4  13    3.32    0.88
 -20   4  13    2.21    0.87
 -20  -4  12   63.52    2.49
 -20   4  12   65.07    2.53
 -20  -4  11   20.73    1.20
 -20   4  11   22.16    1.21
 -20  -4  10    2.19    0.71
 -20   4  10    2.29    0.79
 -20  -4   9   14.33    0.90
 -20   4   9   14.17    1.01
  20  -4  -8   12.18    0.90
 -20  -4   8    9.33    0.76
 -20   4   8    9.41    0.92
  20  -4  -7   22.91    1.23
 -20  -4   7   23.38    1.13
 -20   4   7   24.83    1.28
  20  -4  -6  202.80    6.87
 -20  -4   6  210.70    7.04
 -20   4   6  197.20    6.69
  20  -4  -5  190.00    6.43
 -20  -4   5  199.40    6.63
 -20   4   5  161.00    5.54
  20  -4  -4   12.95    0.95
 -20  -4   4   12.42    0.71
 -20   4   4   14.05    1.01
  20  -4  -3  160.70    5.49
 -20  -4   3  165.40    5.53
 -20   4   3  164.90    5.65
  20  -4  -2   34.68    1.54
 -20  -4   2   31.37    1.23
 -20   4   2   30.10    1.43
  20  -4  -1    7.54    0.88
 -20  -4   1    8.40    0.52
 -20   4   1    7.08    0.79
  20  -4   0   11.66    0.94
 -20  -4   0    9.30    0.54
 -20  -4   0   10.49    0.51
 -20   4   0   11.03    0.92
  20  -4   1   21.59    1.21
 -20   4  -1   20.88    1.15
  20  -4   2    1.18    0.69
 -20   4  -2    0.26    0.66
  20  -4   3   49.61    1.98
 -20   4  -3   47.70    1.96
  20  -4   4   39.11    1.62
 -20   4  -4   39.84    1.75
  20  -4   5    8.48    0.77
 -20   4  -5   11.00    0.96
  20  -4   6   28.72    1.35
 -20   4  -6   32.02    1.51
  20  -4   7  178.00    6.06
 -20   4  -7  166.70    5.72
  20  -4   8    0.83    0.59
 -20   4  -8    1.05    0.73
  20  -4   9   67.85    2.53
 -20   4  -9   70.06    2.65
  20  -4  10    0.41    0.55
 -20   4 -10    0.48    0.70
  20  -4  11   18.59    1.02
 -20   4 -11   19.05    1.08
  20  -4  12    0.73    0.55
 -20   4 -12    0.81    0.65
  20  -4  13    1.13    0.57
 -20   4 -13   -0.53    0.60
  20  -4  14    0.84    0.62
 -20   4 -14    0.27    0.67
  20  -4  15    8.71    0.79
 -20   4 -15    7.91    0.75
  20  -4  16    0.51    0.57
 -20   4 -16    1.07    0.64
  20  -4  17    5.16    0.67
 -20   4 -17    5.46    0.80
  20  -4  18    1.12    0.65
 -20   4 -18    0.56    0.70
  20  -4  19   22.66    1.10
 -20   4 -19   20.77    1.12
  20  -4  20    3.56    0.64
 -20   4 -20    2.62    0.65
  20  -4  21   21.31    1.10
 -20   4 -21   20.86    1.10
  20  -4  22    2.33    0.64
 -20   4 -22    2.73    0.74
  20  -4  23    5.83    0.71
 -20   4 -23    7.02    0.75
 -20  -6  27    5.59    0.79
 -20   6  27    6.45    1.04
 -20   6  27    5.77    1.17
 -20  -6  26    1.03    0.67
 -20   6  26    1.33    1.18
 -20   6  26    0.91    0.96
 -20  -6  25   32.81    1.50
 -20   6  25   33.22    1.68
 -20  -6  24    4.79    0.84
 -20   6  24    2.90    1.12
 -20  -6  23   -0.07    0.71
 -20   6  23   -0.34    0.94
 -20  -6  22   26.04    1.35
 -20   6  22   25.08    1.44
 -20  -6  21   18.66    1.15
 -20   6  21   14.88    1.21
 -20  -6  20   91.39    3.30
 -20   6  20   95.00    3.49
 -20  -6  19    1.89    0.79
 -20   6  19    3.17    0.98
 -20  -6  18    2.70    0.79
 -20   6  18    3.15    0.98
 -20  -6  17    1.38    0.80
 -20   6  17    1.88    0.90
 -20  -6  16    2.07    0.79
 -20   6  16    2.87    0.89
 -20  -6  15   73.58    2.78
 -20   6  15   73.28    2.78
 -20  -6  14    2.07    0.81
 -20   6  14    3.56    0.98
 -20  -6  13   39.10    1.68
 -20   6  13   38.49    1.73
 -20  -6  12   80.67    2.96
 -20   6  12   86.83    3.21
 -20  -6  11    0.22    0.69
 -20   6  11    0.46    0.79
 -20  -6  10    7.07    0.75
 -20   6  10    8.91    0.93
  20  -6  -9   37.97    1.62
 -20  -6   9   36.10    1.51
 -20   6   9   36.83    1.68
  20  -6  -8  104.00    3.72
 -20  -6   8  102.90    3.61
 -20   6   8  110.70    3.96
  20  -6  -7   -0.25    0.73
 -20  -6   7    1.12    0.58
 -20   6   7    1.00    0.81
  20  -6  -6    5.08    0.80
 -20  -6   6    3.83    0.63
 -20   6   6    3.84    0.83
  20  -6  -5    1.50    0.73
 -20  -6   5    1.87    0.59
 -20   6   5    0.90    0.78
  20  -6  -4   39.53    1.68
 -20  -6   4   39.59    1.57
 -20   6   4   32.74    1.56
  20  -6  -3    6.76    0.76
 -20  -6   3    6.79    0.57
 -20   6   3    4.89    0.83
  20  -6  -2   34.19    1.51
 -20  -6   2   35.28    1.40
 -20   6   2   35.15    1.60
  20  -6  -1   50.08    2.04
 -20  -6   1   50.43    1.82
 -20   6   1   52.36    2.10
  20  -6   0   20.41    1.14
 -20  -6   0   21.51    0.84
 -20   6   0   21.81    1.24
  20  -6   1    5.57    0.77
 -20   6  -1    8.69    0.93
  20  -6   2   43.62    1.81
 -20   6  -2   44.25    1.86
  20  -6   3   81.11    2.95
 -20   6  -3   82.43    3.06
  20  -6   4   31.95    1.40
 -20   6  -4   32.04    1.50
  20  -6   5   15.55    0.94
 -20   6  -5   11.98    0.96
  20  -6   6    4.32    0.67
 -20   6  -6    3.94    0.78
  20  -6   7   17.50    1.01
 -20   6  -7   18.98    1.10
  20  -6   8   72.27    2.63
 -20   6  -8   79.03    2.90
  20  -6   9    0.12    0.60
 -20   6  -9    1.57    0.67
  20  -6  10    0.55    0.62
 -20   6 -10    0.64    0.70
  20  -6  11   23.67    1.16
 -20   6 -11   24.38    1.25
  20  -6  12    7.23    0.74
 -20   6 -12    6.98    0.78
  20  -6  13   74.25    2.73
 -20   6 -13   70.97    2.64
  20  -6  14   14.38    0.85
 -20   6 -14   13.42    0.96
  20  -6  15   11.26    0.83
 -20   6 -15   11.11    0.92
  20  -6  16    0.62    0.56
 -20   6 -16   -0.38    0.68
  20  -6  17    6.86    0.67
 -20   6 -17    6.11    0.75
  20  -6  18   -0.41    0.59
 -20   6 -18   -0.68    0.60
  20  -6  19    1.66    0.58
 -20   6 -19    0.64    0.63
 -20  -8  20    0.03    0.74
 -20   8  20    0.48    1.02
 -20  -8  19    5.86    0.80
 -20   8  19    3.10    0.94
 -20  -8  18   15.74    1.04
 -20   8  18   13.97    1.17
 -20  -8  17    1.44    0.77
 -20   8  17    0.23    0.94
 -20  -8  16    2.89    0.78
 -20   8  16    4.27    0.92
 -20  -8  15    6.95    0.84
 -20   8  15    5.80    0.87
 -20  -8  14   12.96    0.89
 -20   8  14   11.56    0.99
 -20  -8  13   21.03    1.12
 -20   8  13   22.99    1.25
 -20  -8  12   14.09    0.94
 -20   8  12   15.17    1.09
 -20  -8  11   12.78    0.90
 -20   8  11   12.00    1.02
 -20  -8  10    8.65    0.80
 -20   8  10    9.23    0.90
 -20  -8   9    8.71    0.79
 -20   8   9    9.51    1.00
  20  -8  -8    2.23    0.74
 -20  -8   8    0.30    0.64
 -20   8   8    1.24    0.86
  20  -8  -7    0.31    0.74
 -20  -8   7    2.32    0.69
 -20   8   7    1.23    0.77
  20  -8  -6   37.00    1.63
 -20  -8   6   37.70    1.58
 -20   8   6   38.84    1.73
  20  -8  -5    3.88    0.83
 -20  -8   5    5.34    0.67
 -20   8   5    5.39    0.85
  20  -8  -4   30.39    1.38
 -20  -8   4   32.16    1.34
 -20   8   4   32.76    1.56
  20  -8  -3   18.90    1.10
 -20  -8   3   19.59    1.06
 -20   8   3   18.49    1.13
  20  -8  -2   10.12    0.91
 -20  -8   2   11.33    0.78
 -20   8   2    9.59    0.90
  20  -8  -1   29.51    1.36
 -20  -8   1   32.08    1.29
 -20   8   1   31.88    1.52
  20  -8   0   50.62    1.96
 -20  -8   0   49.93    1.79
 -20   8   0   50.33    2.02
  20  -8   1   17.28    1.02
 -20   8  -1   19.19    1.13
  20  -8   2   22.21    1.15
 -20   8  -2   20.53    1.18
  20  -8   3    0.22    0.61
 -20   8  -3    1.10    0.70
  20  -8   4    0.74    0.57
 -20   8  -4    0.63    0.74
  20  -8   5    2.03    0.65
 -20   8  -5    0.44    0.72
  20  -8   6   33.86    1.47
 -20   8  -6   36.25    1.59
  20  -8   7    5.16    0.60
 -20   8  -7    4.86    0.74
  20  -8   8    3.43    0.61
 -20   8  -8    2.97    0.74
  20  -8   9    0.46    0.55
 -20   8  -9   -0.19    0.62
  20  -8  10    4.07    0.58
 -20   8 -10    3.24    0.66
  20  -8  11    1.15    0.56
 -20   8 -11    0.96    0.65
  20  -8  12    9.28    0.69
 -20   8 -12   10.04    0.78
  20  -8  13    7.69    0.66
 -21  -1  33   -0.30    0.81
 -21   1  33   -0.48    0.89
 -21  -1  32    2.77    0.85
 -21   1  32    2.44    0.91
 -21  -1  31    2.75    0.84
 -21   1  31    4.74    0.94
 -21  -1  30   35.76    1.59
 -21   1  30   39.70    1.74
 -21  -1  29   16.65    1.14
 -21   1  29   17.47    1.15
 -21  -1  28    0.57    0.81
 -21   1  28   -0.40    0.82
 -21  -1  27   37.86    1.70
 -21   1  27   37.86    1.70
 -21  -1  26   23.93    1.31
 -21   1  26   24.33    1.33
 -21  -1  25    7.99    0.92
 -21   1  25    7.38    1.01
 -21  -1  24    5.94    0.87
 -21   1  24    4.23    0.95
 -21  -1  23   21.75    1.37
 -21   1  23   23.52    1.30
 -21  -1  22   43.13    1.91
 -21   1  22   44.59    1.96
 -21  -1  21  111.20    3.99
 -21   1  21  106.20    3.85
 -21  -1  20   81.20    3.00
 -21   1  20   78.57    2.95
 -21  -1  19    8.48    0.96
 -21   1  19    7.56    0.96
 -21  -1  18   31.30    1.58
 -21  -1  17  112.30    4.01
 -21  -1  16   11.42    0.95
 -21  -1  15  258.80    8.65
 -21  -1  14   23.10    1.16
 -21  -1  13   63.44    2.36
 -21   1  13   66.39    2.49
 -21  -1  12    3.94    0.70
 -21   1  12    6.22    0.77
 -21  -1  11  110.00    3.88
 -21   1  11   98.67    3.52
 -21   1  10   11.65    0.87
 -21   1   9  190.30    6.44
 -21   1   8    0.78    0.71
 -21   1   7   26.69    1.33
 -21  -1   6   80.72    2.89
 -21   1   6   77.29    2.84
 -21  -1   5   16.35    0.96
 -21   1   5   16.26    1.01
 -21  -1   4   29.66    1.30
 -21   1   4   26.50    1.24
  21  -1  -3  204.10    6.85
 -21  -1   3  198.00    6.62
 -21   1   3  189.40    6.39
  21  -1  -2  312.80   10.35
 -21  -1   2  319.30   10.53
 -21   1   2  324.50   10.74
  21  -1  -1   28.66    1.29
 -21  -1   1   25.23    1.15
 -21   1   1   27.89    1.30
  21  -1   0  208.90    7.00
 -21  -1   0  212.70    7.10
 -21   1   0  216.40    7.26
  21  -1   1   26.19    1.21
 -21  -1  -1   22.20    1.02
 -21   1  -1   20.96    1.09
 -21   1  -2   20.09    1.03
  21  -1   3    3.31    0.66
 -21  -1  -3    2.82    0.48
 -21   1  -3    3.17    0.63
  21  -1   4    1.65    0.57
 -21  -1  -4    1.70    0.46
  21   1   4    1.07    0.46
 -21   1  -4    1.79    0.60
  21  -1   5   33.01    1.43
 -21  -1  -5   33.06    1.33
  21   1   5   34.22    1.34
 -21   1  -5   30.42    1.37
  21  -1   6  103.50    3.63
 -21  -1  -6  107.60    3.71
  21   1   6  100.50    3.45
 -21   1  -6  100.60    3.56
  21  -1   7   39.20    1.63
 -21  -1  -7   37.68    1.51
  21   1   7   37.86    1.46
 -21   1  -7   36.08    1.54
  21  -1   8    9.62    0.82
 -21  -1  -8    8.42    0.67
  21   1   8    9.50    0.66
 -21   1  -8    8.99    0.78
  21  -1   9   62.11    2.33
 -21  -1  -9   68.28    2.44
  21   1   9   67.12    2.40
 -21   1  -9   66.60    2.48
  21  -1  10   42.23    1.68
 -21  -1 -10   43.70    1.66
  21   1  10   45.38    1.71
 -21   1 -10   45.97    1.86
  21  -1  11  107.30    3.76
 -21  -1 -11  110.20    3.77
  21   1  11  110.80    3.78
 -21   1 -11  113.20    3.97
  21  -1  12  102.70    3.60
 -21  -1 -12   98.75    3.41
  21   1  12   97.28    3.36
 -21   1 -12   98.58    3.51
  21  -1  13   27.55    1.31
 -21  -1 -13   27.80    1.20
  21   1  13   27.63    1.18
 -21   1 -13   26.83    1.27
  21  -1  14    1.28    0.60
 -21  -1 -14    0.98    0.49
  21   1  14    0.70    0.45
 -21   1 -14    0.45    0.58
  21  -1  15    9.30    0.78
 -21  -1 -15   10.32    0.70
  21   1  15    8.64    0.66
 -21   1 -15    8.63    0.76
  21  -1  16   24.61    1.19
 -21  -1 -16   26.65    1.16
  21   1  16   26.98    1.16
 -21   1 -16   27.58    1.28
  21  -1  17    2.75    0.68
 -21  -1 -17    3.69    0.58
  21   1  17    4.05    0.54
 -21   1 -17    2.96    0.65
  21  -1  18   18.24    1.02
 -21  -1 -18   21.33    1.05
  21   1  18   21.05    1.02
 -21   1 -18   21.62    1.10
  21  -1  19   21.36    1.10
 -21  -1 -19   19.85    1.01
  21   1  19   18.29    0.97
 -21   1 -19   19.38    1.05
  21  -1  20    3.17    0.66
 -21  -1 -20    2.51    0.60
  21   1  20    2.00    0.59
 -21   1 -20    3.73    0.67
  21  -1  21    8.15    0.77
 -21  -1 -21    7.82    0.77
  21   1  21    8.32    0.78
 -21   1 -21    7.76    0.80
  21  -1  22   87.13    3.14
  21   1  22   91.42    3.25
 -21   1 -22   91.22    3.27
  21  -1  23    6.63    0.77
  21   1  23    6.32    0.78
 -21   1 -23    7.31    0.80
  21  -1  24   43.90    1.82
  21   1  24   44.07    1.86
 -21   1 -24   42.85    1.78
  21  -1  25    4.19    0.82
  21   1  25    3.94    0.84
 -21   1 -25    3.67    0.77
 -21  -3  32   29.60    1.42
 -21   3  32   30.43    1.59
 -21   3  32   30.90    1.52
 -21  -3  31   -0.16    0.74
 -21   3  31    0.74    0.90
 -21   3  31    0.05    0.97
 -21  -3  30    1.76    0.77
 -21   3  30    1.61    0.84
 -21   3  30    0.73    0.95
 -21  -3  29    1.12    0.74
 -21   3  29    0.08    0.84
 -21   3  29    0.19    0.92
 -21  -3  28   46.01    1.88
 -21   3  28   46.15    1.98
 -21   3  28   44.77    1.88
 -21  -3  27    0.48    0.81
 -21   3  27    0.66    0.88
 -21   3  27    0.48    0.93
 -21  -3  26    5.12    0.93
 -21   3  26    4.13    0.91
 -21   3  26    2.99    0.97
 -21  -3  25    4.76    0.85
 -21   3  25    5.26    0.91
 -21   3  25    4.81    0.99
 -21  -3  24   17.60    1.14
 -21   3  24   19.83    1.30
 -21   3  24   19.60    1.23
 -21  -3  23   62.35    2.46
 -21   3  23   59.86    2.38
 -21   3  23   60.58    2.43
 -21  -3  22   20.90    1.31
 -21   3  22   17.74    1.25
 -21  -3  21   43.51    1.84
 -21   3  21   42.92    1.91
 -21  -3  20   90.91    3.33
 -21   3  20   87.75    3.28
 -21  -3  19   11.58    1.03
 -21   3  19   12.99    1.12
 -21  -3  18   23.64    1.39
 -21   3  18   27.40    1.48
 -21  -3  17   -0.15    0.86
 -21   3  17    0.73    0.89
 -21  -3  16   62.38    2.47
 -21   3  16   63.84    2.52
 -21  -3  15    7.43    0.81
 -21   3  15   11.17    1.05
 -21  -3  14    4.55    0.73
 -21   3  14    5.99    0.83
 -21  -3  13    0.65    0.65
 -21   3  13    0.67    0.73
 -21  -3  12    2.86    0.67
 -21   3  12    2.93    0.77
 -21  -3  11   89.45    3.21
 -21   3  11   83.60    3.08
 -21  -3  10   53.65    2.07
 -21   3  10   54.41    2.18
 -21  -3   9  108.40    3.83
 -21   3   9  107.90    3.84
 -21  -3   8   85.10    3.11
 -21   3   8   79.73    2.94
 -21  -3   7   31.41    1.43
 -21   3   7   32.72    1.51
  21  -3  -6    5.25    0.79
 -21  -3   6    4.26    0.63
 -21   3   6    4.79    0.77
  21  -3  -5    2.31    0.74
 -21  -3   5    1.54    0.54
 -21   3   5    1.96    0.68
  21  -3  -4   29.68    1.36
 -21  -3   4   27.95    1.20
 -21   3   4   30.89    1.41
 -21   3   3    7.28    0.77
  21  -3  -2   63.87    2.40
 -21  -3   2   58.85    2.09
 -21   3   2   61.11    2.33
  21  -3  -1   24.24    1.21
 -21  -3   1   22.08    0.97
 -21  -3   1   21.06    0.88
 -21   3   1   23.12    1.19
  21  -3   0   14.80    0.99
 -21  -3   0   12.39    0.59
 -21  -3   0   11.93    0.61
 -21   3   0   13.11    0.92
  21  -3   1   38.47    1.64
 -21  -3  -1   32.82    1.18
 -21  -3  -1   33.40    1.23
 -21   3  -1   36.15    1.57
  21  -3   2   12.46    0.92
 -21  -3  -2   11.61    0.50
 -21   3  -2   10.25    0.89
  21  -3   3   59.14    2.26
 -21   3  -3   61.02    2.34
  21  -3   4  173.40    5.89
 -21   3  -4  179.70    6.11
  21  -3   5   83.31    3.03
 -21   3  -5   74.37    2.76
  21  -3   6   33.63    1.53
 -21   3  -6   27.81    1.32
  21  -3   7   -0.42    0.66
 -21   3  -7   -0.70    0.61
  21  -3   8   16.00    0.96
 -21   3  -8   17.38    1.09
  21  -3   9   20.79    1.09
 -21   3  -9   21.92    1.20
  21  -3  10    0.18    0.61
 -21   3 -10    0.49    0.68
  21  -3  11    4.88    0.70
 -21   3 -11    2.65    0.76
  21  -3  12   12.25    0.89
 -21   3 -12   11.01    0.93
  21  -3  13    3.17    0.65
 -21   3 -13    3.64    0.68
  21  -3  14   28.18    1.31
 -21   3 -14   30.27    1.39
  21  -3  15    9.38    0.86
 -21   3 -15   10.03    0.90
  21  -3  16   33.97    1.48
 -21   3 -16   36.79    1.59
  21  -3  17   20.39    1.07
 -21   3 -17   18.93    1.10
  21  -3  18   29.83    1.38
 -21   3 -18   30.87    1.42
  21  -3  19   22.33    1.14
 -21   3 -19   20.90    1.13
  21  -3  20    0.69    0.64
 -21   3 -20    0.12    0.68
  21  -3  21    5.58    0.75
 -21   3 -21    3.95    0.69
  21  -3  22    1.54    0.72
 -21   3 -22    1.00    0.63
  21  -3  23    2.51    0.77
 -21   3 -23    2.86    0.68
  21  -3  24    7.03    0.86
 -21   3 -24    8.59    0.83
 -21  -5  29    1.45    0.70
 -21   5  29    2.58    1.10
 -21   5  29    1.60    0.94
 -21  -5  28    6.69    0.75
 -21   5  28    7.34    1.15
 -21   5  28    7.95    1.03
 -21  -5  27    2.65    0.79
 -21   5  27    1.33    1.07
 -21   5  27    1.84    0.94
 -21  -5  26    3.11    0.77
 -21   5  26    1.48    0.95
 -21   5  26    3.78    0.99
 -21  -5  25    3.11    0.82
 -21   5  25    2.38    1.02
 -21  -5  24    7.82    0.86
 -21   5  24    6.01    1.07
 -21  -5  23   27.46    1.40
 -21   5  23   30.78    1.60
 -21  -5  22   89.73    3.27
 -21   5  22   77.84    2.95
 -21  -5  21    3.23    0.77
 -21   5  21    2.06    0.92
 -21  -5  20   -0.32    0.77
 -21   5  20   -0.12    0.89
 -21  -5  19    4.78    0.86
 -21   5  19    6.37    0.98
 -21  -5  18    9.46    0.93
 -21   5  18   11.04    1.08
 -21  -5  17    0.47    0.82
 -21   5  17   -0.27    0.85
 -21  -5  16   30.85    1.50
 -21   5  16   36.40    1.71
 -21  -5  15   21.87    1.23
 -21   5  15   24.63    1.37
 -21  -5  14   45.72    1.90
 -21   5  14   49.69    2.09
 -21  -5  13    1.34    0.68
 -21   5  13    1.06    0.91
 -21  -5  12   11.78    0.88
 -21   5  12   12.62    1.08
 -21  -5  11   45.00    1.86
 -21   5  11   44.88    1.94
 -21  -5  10   20.23    1.12
 -21   5  10   19.20    1.24
 -21  -5   9    9.16    0.86
 -21   5   9   10.46    0.99
  21  -5  -8   10.12    0.86
 -21  -5   8    9.75    0.88
 -21   5   8    9.74    0.97
  21  -5  -7   25.20    1.24
 -21  -5   7   26.04    1.25
 -21   5   7   23.87    1.31
  21  -5  -6   24.25    1.22
 -21  -5   6   24.02    1.14
 -21   5   6   22.79    1.28
  21  -5  -5    5.02    0.83
 -21  -5   5    5.95    0.63
 -21   5   5    6.61    0.89
  21  -5  -4   48.32    1.97
 -21  -5   4   47.20    1.79
 -21   5   4   48.26    1.97
  21  -5  -3    0.00    0.68
 -21  -5   3    0.80    0.45
 -21   5   3    1.59    0.76
  21  -5  -2  125.40    4.37
 -21  -5   2  133.20    4.46
 -21   5   2  120.60    4.25
  21  -5  -1    2.25    0.62
 -21  -5   1    2.51    0.40
 -21   5   1    2.44    0.77
  21  -5   0   57.76    2.21
 -21  -5   0   59.25    2.03
 -21  -5   0   57.35    2.01
 -21   5   0   59.81    2.33
  21  -5   1  136.10    4.73
 -21   5  -1  144.70    5.02
  21  -5   2   71.24    2.69
 -21   5  -2   64.60    2.49
  21  -5   3   38.00    1.63
 -21   5  -3   40.17    1.75
  21  -5   4   64.40    2.44
 -21   5  -4   64.52    2.50
  21  -5   5   28.92    1.31
 -21   5  -5   31.97    1.49
  21  -5   6   17.90    1.01
 -21   5  -6   18.18    1.12
  21  -5   7   21.49    1.12
 -21   5  -7   22.39    1.20
  21  -5   8   21.84    1.13
 -21   5  -8   18.90    1.08
  21  -5   9    1.68    0.55
 -21   5  -9    1.12    0.68
  21  -5  10    4.92    0.64
 -21   5 -10    5.49    0.79
  21  -5  11   40.71    1.68
 -21   5 -11   43.70    1.82
  21  -5  12    8.43    0.75
 -21   5 -12    7.56    0.80
  21  -5  13   11.14    0.78
 -21   5 -13   10.40    0.82
  21  -5  14   10.39    0.82
 -21   5 -14   10.57    0.91
  21  -5  15    1.71    0.57
 -21   5 -15    0.73    0.65
  21  -5  16    0.19    0.59
 -21   5 -16   -0.34    0.66
  21  -5  17    7.67    0.71
 -21   5 -17    6.68    0.70
  21  -5  18   28.40    1.30
 -21   5 -18   28.94    1.33
  21  -5  19   32.23    1.41
 -21   5 -19   31.30    1.38
  21  -5  20   19.12    1.02
 -21   5 -20   20.34    1.05
  21  -5  21    4.73    0.70
 -21   5 -21    4.79    0.64
 -21  -7  24    4.29    0.75
 -21   7  24    5.58    1.11
 -21  -7  23    2.15    0.71
 -21   7  23    0.74    1.05
 -21  -7  22    1.12    0.70
 -21   7  22    1.77    0.99
 -21  -7  21    9.37    0.85
 -21   7  21    9.86    1.09
 -21  -7  20    6.92    0.80
 -21   7  20    6.80    1.08
 -21  -7  19    8.15    0.83
 -21   7  19    6.90    0.96
 -21  -7  18    6.12    0.87
 -21   7  18    6.30    0.92
 -21  -7  17   13.83    1.03
 -21   7  17   14.13    1.09
 -21  -7  16   24.48    1.24
 -21   7  16   22.12    1.28
 -21  -7  15   48.30    1.96
 -21   7  15   47.80    2.00
 -21  -7  14    1.09    0.73
 -21   7  14    0.49    0.80
 -21  -7  13   14.10    0.99
 -21   7  13   16.83    1.13
 -21  -7  12    0.93    0.69
 -21   7  12    0.17    0.87
 -21  -7  11    0.26    0.66
 -21   7  11    1.11    0.80
 -21  -7  10    0.71    0.66
 -21   7  10    1.61    0.82
  21  -7  -9   10.55    0.86
 -21  -7   9   11.03    0.86
 -21   7   9   11.72    0.95
  21  -7  -8    1.11    0.67
 -21  -7   8   -0.27    0.62
 -21   7   8    1.02    0.80
  21  -7  -7    3.01    0.70
 -21  -7   7    5.07    0.70
 -21   7   7    3.15    0.80
  21  -7  -6   17.94    1.06
 -21  -7   6   18.16    0.95
 -21   7   6   18.03    1.12
  21  -7  -5   28.65    1.39
 -21  -7   5   25.57    1.12
 -21   7   5   28.75    1.41
  21  -7  -4    5.66    0.85
 -21  -7   4    5.29    0.57
 -21   7   4    5.16    0.84
  21  -7  -3   43.16    1.82
 -21  -7   3   45.35    1.72
 -21   7   3   41.09    1.75
  21  -7  -2   28.33    1.34
 -21  -7   2   31.08    1.26
 -21   7   2   28.67    1.38
  21  -7  -1   21.03    1.10
 -21  -7   1   20.01    0.86
 -21   7   1   20.96    1.22
  21  -7   0    5.19    0.72
 -21  -7   0    3.48    0.28
 -21   7   0    3.15    0.83
  21  -7   1   11.59    0.87
 -21   7  -1   11.88    0.93
  21  -7   2   -0.32    0.61
 -21   7  -2    0.48    0.71
  21  -7   3    5.05    0.69
 -21   7  -3    4.65    0.78
  21  -7   4    9.65    0.76
 -21   7  -4    9.38    0.87
  21  -7   5    0.94    0.61
 -21   7  -5    0.89    0.67
  21  -7   6    1.48    0.62
 -21   7  -6    1.43    0.73
  21  -7   7    0.72    0.53
 -21   7  -7   -0.02    0.68
  21  -7   8    4.29    0.65
 -21   7  -8    4.22    0.75
  21  -7   9   33.86    1.47
 -21   7  -9   33.74    1.47
  21  -7  10    5.66    0.67
 -21   7 -10    6.47    0.74
  21  -7  11   45.78    1.81
 -21   7 -11   47.56    1.89
  21  -7  12    0.43    0.55
 -21   7 -12    1.67    0.65
  21  -7  13   14.97    0.93
 -21   7 -13   14.44    0.88
  21  -7  14    2.29    0.57
 -21   7 -14    1.39    0.70
  21  -7  15    3.03    0.59
 -21   7 -15    2.22    0.73
  21  -7  16   -0.15    0.51
 -21   7 -16   -0.44    0.60
 -21  -9  14    2.52    0.91
 -21  -9  13   -0.41    0.82
 -21   9  13   -0.24    0.88
 -21  -9  12    4.86    0.80
 -21   9  12    3.70    0.88
 -21  -9  11   16.24    1.05
 -21   9  11   15.22    1.12
 -21  -9  10    6.21    0.86
 -21   9  10    6.09    0.90
 -21  -9   9   28.02    1.42
 -21   9   9   28.53    1.42
  21  -9  -8    1.29    0.70
 -21  -9   8    1.70    0.84
 -21   9   8    2.29    0.89
  21  -9  -7    4.00    0.73
 -21  -9   7    5.50    0.85
 -21   9   7    6.30    0.96
  21  -9  -6    0.29    0.69
 -21  -9   6    1.00    0.75
 -21   9   6    0.46    0.79
  21  -9  -5    0.44    0.74
 -21  -9   5    2.14    0.78
 -21   9   5    0.85    0.78
  21  -9  -4    6.89    0.83
 -21  -9   4    6.50    0.96
 -21   9   4    4.59    0.90
  21  -9  -3    2.83    0.70
 -21  -9   3    1.73    0.86
 -21   9   3    2.70    0.77
  21  -9  -2   11.59    0.87
 -21  -9   2   11.99    0.91
 -21   9   2   11.76    0.95
  21  -9  -1    0.70    0.74
 -21  -9   1    0.76    0.45
 -21   9   1    1.51    0.74
  21  -9   0    1.30    0.66
 -21   9   0    1.62    0.71
  21  -9   1   -0.72    0.65
 -21   9  -1    0.72    0.70
  21  -9   2   -0.15    0.60
 -21   9  -2   -0.63    0.65
  21  -9   3   17.59    0.99
 -21   9  -3   17.88    1.04
  21  -9   4    2.82    0.61
 -21   9  -4    1.50    0.68
  21  -9   5   10.15    0.77
 -21   9  -5    9.82    0.87
 -22   0  33   -0.54    0.85
 -22   0  32   37.90    1.69
 -22   0  31   -0.78    0.88
 -22   0  30    7.17    0.93
 -22   0  29   -0.44    0.79
 -22   0  28    2.95    0.84
 -22   0  27    0.50    0.83
 -22   0  26    1.89    0.81
 -22   0  25   -0.79    0.84
 -22   0  24   36.53    1.72
 -22   0  23    0.96    0.83
 -22   0  22   19.19    1.21
 -22   0  21   -1.35    0.94
 -22   0  20   36.04    1.71
 -22   0  19    0.54    0.85
 -22   0  18  113.50    4.01
 -22   0  17   -0.13    0.64
 -22   0  16   89.88    3.25
 -22   0   9   -0.47    0.63
 -22   0   8   44.13    1.79
 -22   0   7   -0.28    0.64
 -22   0   6  297.10    9.87
 -22   0   5    0.39    0.66
 -22   0   4   88.21    3.15
 -22   0   3    0.37    0.64
 -22   0   2  736.80   24.07
 -22   0   1    0.54    0.60
  22   0   0  230.10    7.66
 -22   0   0  215.30    7.21
  22   0   1    1.04    0.57
 -22   0  -1   -0.16    0.51
  22   0   2  111.90    3.86
 -22   0  -2  115.20    3.96
  22   0   3    0.15    0.55
 -22   0  -3    0.70    0.50
  22   0   4   56.36    2.12
 -22   0  -4   53.05    2.00
  22   0   5   -0.24    0.57
 -22   0  -5   -0.12    0.54
  22   0   6    9.06    0.76
 -22   0  -6    8.84    0.74
  22   0   7   -0.18    0.59
 -22   0  -7    0.31    0.56
  22   0   8  339.10   11.18
 -22   0  -8  365.00   12.07
  22   0   9    0.22    0.49
 -22   0  -9    0.42    0.61
  22   0  10   67.57    2.45
 -22   0 -10   70.60    2.56
  22   0  11    0.32    0.52
 -22   0 -11    0.86    0.55
  22   0  12   25.06    1.12
 -22   0 -12   22.48    1.08
  22   0  13    0.12    0.53
 -22   0 -13    0.56    0.58
  22   0  14   70.75    2.55
 -22   0 -14   72.90    2.66
  22   0  15   -0.68    0.51
 -22   0 -15   -0.41    0.57
  22   0  16   36.27    1.51
 -22   0 -16   35.51    1.46
  22   0  17   -0.69    0.52
 -22   0 -17   -0.12    0.53
  22   0  18   12.93    0.85
 -22   0 -18   14.48    0.86
  22   0  19   -0.36    0.57
 -22   0 -19    0.15    0.57
  22   0  20  105.00    3.70
 -22   0 -20   98.15    3.46
  22   0  21    0.12    0.65
 -22   0 -21   -0.38    0.61
  22   0  22   77.46    2.83
 -22   0 -22   82.33    2.99
  22   0  23   -0.27    0.73
 -22   0 -23    0.14    0.70
  22   0  24    1.05    0.78
 -22   0 -24    1.64    0.80
  22   0  25   -0.23    0.79
 -22   0 -25    0.66    0.79
 -22  -2  33    9.51    0.86
 -22   2  33    7.86    0.98
 -22  -2  32    0.37    0.80
 -22   2  32    1.25    0.92
 -22  -2  31    7.25    0.88
 -22   2  31    6.19    0.99
 -22  -2  30   -0.34    0.78
 -22   2  30   -0.89    0.87
 -22  -2  29    2.00    0.78
 -22   2  29   -0.01    0.84
 -22  -2  28    6.15    0.95
 -22   2  28    5.62    0.94
 -22  -2  27    2.94    0.81
 -22   2  27    2.07    0.91
 -22  -2  26   13.81    1.04
 -22   2  26   11.92    1.05
 -22  -2  25   16.85    1.16
 -22   2  25   18.16    1.22
 -22  -2  24   34.21    1.58
 -22   2  24   32.63    1.58
 -22  -2  23    0.49    0.85
 -22   2  23   -0.21    0.85
 -22  -2  22   45.03    2.00
 -22   2  22   43.70    1.92
 -22  -2  21    2.22    0.95
 -22   2  21    4.40    0.86
 -22  -2  20   16.63    1.18
 -22   2  20   13.72    1.15
 -22  -2  19   70.13    2.68
 -22   2  19   73.96    2.86
 -22  -2  18   39.56    1.76
 -22   2  18   27.53    1.49
 -22  -2  17    2.73    0.87
 -22   2  17    3.34    0.91
 -22  -2  16   30.77    1.51
 -22   2  16   33.25    1.59
 -22  -2  15   12.63    1.00
 -22   2  15   11.74    0.95
 -22  -2  14   81.29    3.02
 -22   2  14   77.50    2.87
 -22  -2  13    3.34    0.77
 -22   2  13    2.17    0.75
 -22  -2  12   58.62    2.24
 -22   2  12   60.09    2.33
 -22  -2  11   28.59    1.29
 -22   2  11   28.95    1.40
 -22  -2  10   51.75    1.96
 -22   2  10   54.43    2.15
 -22  -2   9   15.19    0.90
 -22   2   9   17.41    1.05
 -22  -2   8   68.59    2.50
 -22   2   8   64.79    2.45
 -22  -2   7   40.07    1.63
 -22   2   7   41.12    1.74
 -22  -2   6   63.48    2.33
 -22   2   6   66.48    2.51
  22  -2  -5   33.56    1.45
 -22  -2   5   31.10    1.32
 -22   2   5   28.34    1.33
  22  -2  -4  108.70    3.82
 -22  -2   4  104.80    3.65
 -22   2   4  107.00    3.76
  22  -2  -3   35.37    1.52
 -22  -2   3   32.71    1.38
 -22   2   3   31.16    1.41
  22  -2  -2  359.50   11.87
 -22  -2   2  392.20   12.87
 -22   2   2  372.90   12.31
  22  -2  -1   10.49    0.85
 -22  -2   1    8.43    0.63
 -22   2   1    7.87    0.80
  22  -2   0   24.57    1.19
 -22  -2   0   23.42    1.04
 -22   2   0   24.28    1.18
  22  -2   1    1.16    0.62
 -22  -2  -1    0.63    0.48
 -22   2  -1    0.26    0.63
  22  -2   2   77.33    2.82
 -22  -2  -2   74.56    2.60
 -22   2  -2   76.55    2.77
  22  -2   3   10.91    0.84
 -22  -2  -3    9.18    0.56
 -22   2  -3    7.28    0.72
  22  -2   4  206.40    6.96
 -22  -2  -4  210.50    6.96
 -22   2  -4  215.20    7.23
  22  -2   5   45.16    1.84
 -22  -2  -5   44.31    1.60
 -22   2  -5   45.53    1.83
  22  -2   6    0.35    0.68
 -22  -2  -6    0.38    0.38
 -22   2  -6    0.52    0.67
  22  -2   7   56.41    2.19
 -22  -2  -7   64.13    2.24
 -22   2  -7   57.59    2.25
 -22   2  -8    2.93    0.75
  22  -2   9   56.62    2.16
 -22  -2  -9   60.24    2.09
 -22   2  -9   61.35    2.38
  22  -2  10   46.98    1.87
 -22  -2 -10   49.95    1.77
  22   2  10   48.66    1.72
 -22   2 -10   50.22    2.07
  22  -2  11   44.69    1.82
 -22  -2 -11   44.35    1.60
  22   2  11   42.47    1.53
 -22   2 -11   42.54    1.80
  22  -2  12    5.85    0.71
 -22  -2 -12    6.05    0.50
  22   2  12    6.43    0.50
 -22   2 -12    6.14    0.81
  22  -2  13   60.50    2.31
 -22  -2 -13   65.27    2.27
  22   2  13   61.22    2.15
 -22   2 -13   64.56    2.45
  22  -2  14   74.62    2.75
 -22  -2 -14   80.70    2.78
  22   2  14   74.50    2.57
 -22   2 -14   78.40    2.90
  22  -2  15   10.21    0.84
  22   2  15   12.16    0.67
 -22   2 -15   11.65    0.90
  22  -2  16   57.69    2.25
  22   2  16   58.56    2.10
 -22   2 -16   59.10    2.26
  22  -2  17    1.11    0.64
  22   2  17    0.26    0.52
 -22   2 -17    0.88    0.68
  22  -2  18    4.28    0.72
  22   2  18    4.26    0.60
 -22   2 -18    3.66    0.73
  22  -2  19    3.79    0.68
  22   2  19    4.75    0.65
 -22   2 -19    3.00    0.70
  22  -2  20   34.88    1.49
  22   2  20   38.07    1.55
 -22   2 -20   35.95    1.57
  22  -2  21   14.59    0.95
  22  -2  22   -0.24    0.68
  22   2  22    0.30    0.77
 -22   2 -22   -0.21    0.64
  22  -2  23   13.82    0.94
  22   2  23   14.62    1.11
 -22   2 -23   12.30    0.89
  22  -2  24    5.17    0.79
  22   2  24    7.77    1.04
 -22   2 -24    4.94    0.78
 -22  -4  31    4.28    0.71
 -22   4  31    2.67    0.98
 -22   4  31    2.76    1.21
 -22  -4  30    3.01    0.74
 -22   4  30    2.38    0.95
 -22   4  30    2.83    1.04
 -22  -4  29    1.26    0.78
 -22   4  29    1.23    0.96
 -22   4  29    1.03    0.93
 -22  -4  28   14.14    0.92
 -22   4  28   13.18    1.10
 -22   4  28   14.81    1.16
 -22  -4  27   26.43    1.39
 -22   4  27   32.85    1.65
 -22   4  27   30.60    1.53
 -22  -4  26   10.59    0.88
 -22   4  26    9.32    1.13
 -22   4  26    9.51    1.04
 -22  -4  25   55.66    2.23
 -22   4  25   54.09    2.26
 -22   4  25   50.81    2.10
 -22  -4  24    5.86    0.88
 -22   4  24    6.86    1.05
 -22  -4  23   50.56    2.07
 -22   4  23   46.12    2.02
 -22  -4  22    8.57    1.03
 -22   4  22    6.36    1.02
 -22  -4  21    4.80    0.95
 -22   4  21    4.29    0.98
 -22  -4  20    0.21    0.77
 -22   4  20    1.75    0.91
 -22  -4  19    0.51    0.81
 -22   4  19    1.26    0.94
 -22  -4  18   75.48    2.81
 -22   4  18   74.68    2.84
 -22  -4  17    1.77    0.78
 -22   4  17   -0.56    0.96
 -22  -4  16   -0.50    0.78
 -22   4  16    0.14    0.87
 -22  -4  15    1.29    0.88
 -22   4  15    1.23    0.92
 -22  -4  14  109.40    3.93
 -22   4  14  110.40    3.98
 -22  -4  13   28.16    1.49
 -22   4  13   29.44    1.52
 -22  -4  12    1.59    0.84
 -22   4  12    3.74    0.92
 -22  -4  11  411.80   13.60
 -22   4  11  419.50   13.88
 -22  -4  10   37.28    1.65
 -22   4  10   40.62    1.81
 -22  -4   9   33.19    1.47
 -22   4   9   33.07    1.56
 -22  -4   8    1.62    0.56
 -22   4   8    1.25    0.80
  22  -4  -7   -0.10    0.69
 -22  -4   7    0.38    0.54
 -22   4   7    0.66    0.79
  22  -4  -6    9.73    0.86
 -22  -4   6    7.76    0.72
 -22   4   6   10.10    0.97
  22  -4  -5   11.68    0.86
 -22  -4   5    8.89    0.71
 -22   4   5   12.03    0.99
  22  -4  -4   23.79    1.23
 -22  -4   4   22.29    1.02
 -22   4   4   22.21    1.20
  22  -4  -3   34.46    1.54
 -22  -4   3   34.52    1.37
 -22   4   3   36.75    1.69
  22  -4  -2    2.73    0.76
 -22  -4   2    2.39    0.48
 -22   4   2    3.68    0.83
  22  -4  -1   11.17    0.92
 -22  -4   1   10.86    0.62
 -22  -4   1   10.15    0.64
 -22   4   1   10.31    0.95
  22  -4   0   35.28    1.51
 -22  -4   0   32.72    1.22
 -22   4   0   38.73    1.70
  22  -4   1  304.90   10.14
 -22   4  -1  304.40   10.15
  22  -4   2   29.42    1.35
 -22   4  -2   35.67    1.62
  22  -4   3    0.90    0.58
 -22   4  -3    2.53    0.81
  22  -4   4    5.71    0.73
 -22   4  -4    5.40    0.85
  22  -4   5    7.32    0.75
 -22   4  -5    6.57    0.84
  22  -4   6    6.42    0.69
 -22   4  -6    5.44    0.88
  22  -4   7   12.99    0.88
 -22   4  -7   12.52    1.00
  22  -4   8    0.71    0.55
 -22   4  -8    0.45    0.69
  22  -4   9   31.54    1.42
 -22   4  -9   31.99    1.48
  22  -4  10    6.62    0.67
 -22   4 -10    5.02    0.74
  22  -4  11    5.12    0.65
 -22   4 -11    4.62    0.75
  22  -4  12    6.92    0.70
 -22   4 -12    5.11    0.74
  22  -4  13   23.88    1.17
 -22   4 -13   23.98    1.22
  22  -4  14    3.26    0.66
 -22   4 -14    3.33    0.69
  22  -4  15   51.71    2.02
 -22   4 -15   53.89    2.12
  22  -4  16    0.70    0.63
 -22   4 -16    1.15    0.74
  22  -4  17    2.85    0.62
 -22   4 -17    3.07    0.69
  22  -4  18    0.42    0.64
 -22   4 -18   -0.17    0.67
  22  -4  19    1.47    0.59
 -22   4 -19    0.86    0.72
  22  -4  20   -0.17    0.60
 -22   4 -20   -0.18    0.69
  22  -4  21    0.06    0.61
 -22   4 -21    1.41    0.64
  22  -4  22    3.42    0.67
 -22   4 -22    3.22    0.68
 -22  -6  27    8.75    0.86
 -22   6  27    5.53    1.35
 -22   6  27    5.44    1.19
 -22  -6  26    2.10    0.68
 -22   6  26    1.97    1.02
 -22  -6  25    3.33    0.80
 -22   6  25    2.89    1.01
 -22  -6  24    1.90    0.76
 -22   6  24    2.51    0.95
 -22  -6  23    1.16    0.78
 -22   6  23   -0.78    1.02
 -22  -6  22    4.53    0.84
 -22   6  22    4.35    1.03
 -22  -6  21   25.83    1.27
 -22   6  21   27.08    1.46
 -22  -6  20    6.23    0.81
 -22   6  20    6.36    0.98
 -22  -6  19    5.96    0.84
 -22   6  19    5.67    0.95
 -22  -6  18   35.53    1.64
 -22   6  18   31.65    1.57
 -22  -6  17   40.04    1.75
 -22   6  17   41.71    1.86
 -22  -6  16   37.00    1.67
 -22   6  16   36.22    1.68
 -22  -6  15   42.08    1.76
 -22   6  15   40.64    1.83
 -22  -6  14    2.36    0.72
 -22   6  14    3.84    0.90
 -22  -6  13   20.40    1.12
 -22   6  13   24.48    1.34
 -22  -6  12    9.66    0.83
 -22   6  12    8.53    1.02
 -22  -6  11    1.01    0.63
 -22   6  11   -0.65    0.87
 -22  -6  10   19.73    1.13
 -22   6  10   22.42    1.30
 -22  -6   9    3.13    0.69
 -22   6   9    3.68    0.92
  22  -6  -8   31.70    1.48
 -22  -6   8   29.48    1.37
 -22   6   8   31.97    1.59
  22  -6  -7   86.28    3.14
 -22  -6   7   82.07    2.98
 -22   6   7   84.19    3.12
  22  -6  -6    4.48    0.73
 -22  -6   6    3.34    0.63
 -22   6   6    2.43    0.83
  22  -6  -5   41.30    1.69
 -22  -6   5   40.25    1.59
 -22   6   5   38.84    1.74
  22  -6  -4    1.84    0.72
 -22  -6   4    0.20    0.46
 -22   6   4    1.15    0.80
  22  -6  -3   13.60    0.95
 -22  -6   3   14.07    0.76
 -22   6   3   14.91    1.06
  22  -6  -2    4.38    0.75
 -22  -6   2    4.11    0.49
 -22   6   2    5.36    0.85
  22  -6  -1    0.13    0.66
 -22  -6   1    0.95    0.38
 -22   6   1    1.18    0.76
  22  -6   0  105.50    3.75
 -22   6   0   99.28    3.59
  22  -6   1    1.88    0.67
 -22   6  -1    2.03    0.77
  22  -6   2   19.29    1.05
 -22   6  -2   18.41    1.12
  22  -6   3    0.06    0.58
 -22   6  -3    0.94    0.70
  22  -6   4    6.45    0.74
 -22   6  -4    6.91    0.87
  22  -6   5   29.46    1.37
 -22   6  -5   31.02    1.44
  22  -6   6    1.43    0.57
 -22   6  -6    3.05    0.73
  22  -6   7   36.55    1.52
 -22   6  -7   36.52    1.59
  22  -6   8   23.14    1.18
 -22   6  -8   23.42    1.20
  22  -6   9   20.49    1.08
 -22   6  -9   19.34    1.08
  22  -6  10   -0.35    0.58
 -22   6 -10    0.73    0.64
  22  -6  11   12.93    0.86
 -22   6 -11   13.99    0.93
  22  -6  12   14.99    0.89
 -22   6 -12   14.63    0.94
  22  -6  13    0.41    0.54
 -22   6 -13    0.66    0.64
  22  -6  14    5.87    0.72
 -22   6 -14    7.77    0.79
  22  -6  15    9.95    0.80
 -22   6 -15    9.05    0.78
  22  -6  16   23.36    1.13
 -22   6 -16   20.13    1.08
  22  -6  17    5.51    0.65
 -22   6 -17    6.03    0.69
  22  -6  18    0.91    0.58
 -22   6 -18    1.59    0.62
 -22  -8  19    0.42    0.73
 -22   8  19   -0.78    0.93
 -22  -8  18   14.64    0.99
 -22   8  18   17.03    1.24
 -22  -8  17    1.93    0.79
 -22   8  17    3.65    0.98
 -22  -8  16   -1.09    0.78
 -22   8  16    1.68    0.92
 -22  -8  15    3.32    0.78
 -22   8  15    5.50    0.93
 -22  -8  14    1.75    0.75
 -22   8  14    1.23    0.85
 -22  -8  13    7.72    0.83
 -22   8  13    5.96    0.87
 -22  -8  12    4.43    0.76
 -22   8  12    3.43    0.83
 -22  -8  11   23.17    1.20
 -22   8  11   22.23    1.29
 -22  -8  10    2.09    0.67
 -22   8  10    1.23    0.86
 -22  -8   9    9.17    0.86
 -22   8   9   10.72    0.98
  22  -8  -8   -0.33    0.72
 -22  -8   8   -0.17    0.70
 -22   8   8   -0.23    0.84
  22  -8  -7    1.12    0.69
 -22  -8   7    1.41    0.66
 -22   8   7    0.60    0.84
  22  -8  -6   24.92    1.24
 -22  -8   6   23.29    1.12
 -22   8   6   25.12    1.31
  22  -8  -5   14.40    0.97
 -22  -8   5   12.83    0.81
 -22   8   5   12.84    1.07
  22  -8  -4   41.22    1.73
 -22  -8   4   40.27    1.64
 -22   8   4   39.37    1.72
  22  -8  -3    1.51    0.79
 -22  -8   3    0.30    0.66
 -22   8   3    1.22    0.76
  22  -8  -2   18.30    1.05
 -22  -8   2   20.85    1.00
 -22   8   2   20.94    1.23
  22  -8  -1    1.08    0.64
 -22  -8   1    1.47    0.43
 -22   8   1    1.89    0.76
  22  -8   0   16.97    1.01
 -22   8   0   16.12    1.10
  22  -8   1    1.71    0.69
 -22   8  -1    0.13    0.70
  22  -8   2    8.47    0.73
 -22   8  -2   10.33    0.87
  22  -8   3    5.84    0.71
 -22   8  -3    3.16    0.69
  22  -8   4    3.83    0.66
 -22   8  -4    4.45    0.75
  22  -8   5    0.52    0.51
 -22   8  -5    0.56    0.68
  22  -8   6   22.19    1.09
 -22   8  -6   22.69    1.18
  22  -8   7    1.93    0.61
 -22   8  -7    2.00    0.65
  22  -8   8    9.79    0.72
 -22   8  -8   11.31    0.83
  22  -8   9   26.44    1.20
 -22   8  -9   28.29    1.31
  22  -8  10    0.52    0.52
 -22   8 -10    1.28    0.65
  22  -8  11    1.07    0.54
 -22   8 -11    1.30    0.64
 -23  -1  33    6.58    0.94
 -23   1  33    5.87    0.94
 -23  -1  32   21.83    1.25
 -23   1  32   23.03    1.35
 -23  -1  31    2.14    0.80
 -23   1  31    2.06    0.91
 -23  -1  30    8.76    0.91
 -23   1  30    7.06    0.97
 -23  -1  29   15.24    1.10
 -23   1  29   13.34    1.03
 -23  -1  28    3.58    0.82
 -23   1  28    2.63    0.90
 -23  -1  27   -0.18    0.85
 -23   1  27    0.59    0.82
 -23  -1  26    8.67    0.91
 -23   1  26   10.00    1.05
 -23  -1  25    3.50    0.89
 -23   1  25    2.63    0.89
 -23  -1  24    0.94    0.87
 -23   1  24    0.27    0.83
 -23  -1  23    8.03    1.04
 -23   1  23    8.97    1.04
 -23  -1  22   30.25    1.52
 -23   1  22   29.27    1.53
 -23  -1  21   79.90    2.98
 -23   1  21   80.50    3.02
 -23  -1  20    9.58    1.08
 -23   1  20    5.98    0.94
 -23  -1  19   12.88    1.12
 -23  -1  18   45.32    2.01
 -23  -1  17   59.18    2.37
 -23  -1  16   84.67    3.10
 -23  -1  15   67.39    2.52
 -23  -1  14   27.42    1.27
 -23   1  14   24.97    1.28
 -23  -1  13   21.04    1.13
 -23   1  13   24.05    1.24
 -23  -1  12    9.70    0.83
 -23   1  12    9.04    0.85
 -23   1  11    0.22    0.67
 -23   1  10  149.00    5.13
 -23   1   9   38.28    1.65
 -23   1   8   42.25    1.73
 -23  -1   7   43.66    1.76
 -23   1   7   40.08    1.65
 -23  -1   6   73.61    2.69
 -23   1   6   70.14    2.61
 -23  -1   5    7.08    0.75
 -23   1   5    7.55    0.80
 -23  -1   4   23.09    1.14
 -23   1   4   21.43    1.12
 -23  -1   3   46.46    1.78
 -23   1   3   46.89    1.89
  23  -1  -2    5.11    0.72
 -23  -1   2    6.41    0.66
 -23   1   2    6.28    0.81
  23  -1  -1    0.58    0.64
 -23  -1   1    1.15    0.58
 -23   1   1    0.27    0.60
  23  -1   0    8.23    0.77
 -23  -1   0    7.68    0.70
 -23   1   0    6.81    0.71
  23  -1   1    2.18    0.66
 -23  -1  -1    1.50    0.55
 -23   1  -1    1.41    0.64
  23  -1   2   61.41    2.32
 -23  -1  -2   56.56    2.07
 -23   1  -2   57.62    2.17
 -23   1  -3   17.41    0.95
  23  -1   4  190.90    6.43
 -23  -1  -4  195.10    6.51
  23   1   4  202.40    6.80
 -23   1  -4  187.60    6.32
  23  -1   5   69.94    2.57
 -23  -1  -5   66.81    2.41
  23   1   5   69.59    2.47
 -23   1  -5   66.31    2.46
  23  -1   6    0.40    0.65
 -23  -1  -6    0.06    0.51
  23   1   6    0.94    0.48
 -23   1  -6    0.60    0.60
  23  -1   7   25.78    1.23
 -23  -1  -7   26.86    1.18
  23   1   7   25.83    1.12
 -23   1  -7   24.08    1.20
  23  -1   8   15.51    0.88
 -23  -1  -8   15.23    0.82
  23   1   8   17.11    0.87
 -23   1  -8   15.59    1.00
  23  -1   9   22.73    1.14
 -23  -1  -9   25.63    1.09
  23   1   9   24.00    1.03
 -23   1  -9   26.90    1.31
  23  -1  10   78.57    2.85
 -23  -1 -10   76.85    2.70
  23   1  10   72.21    2.54
 -23   1 -10   72.57    2.69
  23  -1  11   29.99    1.35
 -23  -1 -11   28.84    1.23
  23   1  11   31.36    1.29
 -23   1 -11   28.88    1.35
  23  -1  12   23.75    1.16
 -23  -1 -12   25.18    1.16
  23   1  12   23.92    1.05
 -23   1 -12   23.74    1.18
  23  -1  13    7.49    0.69
 -23  -1 -13    9.44    0.72
  23   1  13    8.09    0.64
 -23   1 -13    7.65    0.78
  23  -1  14   79.55    2.88
 -23  -1 -14   81.31    2.87
  23   1  14   82.07    2.89
 -23   1 -14   80.59    2.96
  23  -1  15    3.95    0.63
 -23  -1 -15    3.76    0.56
  23   1  15    3.57    0.55
 -23   1 -15    4.05    0.68
  23  -1  16   84.42    3.04
 -23  -1 -16   92.19    3.23
  23   1  16   86.19    3.02
 -23   1 -16   89.35    3.18
  23  -1  17    1.74    0.61
 -23  -1 -17    1.81    0.59
  23   1  17    2.43    0.54
 -23   1 -17    2.59    0.67
  23  -1  18    8.60    0.76
 -23  -1 -18    8.78    0.71
  23   1  18    8.76    0.71
 -23   1 -18    9.72    0.79
  23  -1  19    0.78    0.62
 -23  -1 -19    0.97    0.63
  23   1  19    2.17    0.58
 -23   1 -19    1.24    0.70
  23  -1  20   82.48    2.99
 -23  -1 -20   82.53    2.95
  23   1  20   83.36    2.97
 -23   1 -20   82.40    3.00
  23  -1  21    5.99    0.73
 -23  -1 -21    6.01    0.78
  23   1  21    4.60    0.74
 -23   1 -21    5.61    0.75
  23  -1  22    2.29    0.68
  23   1  22    1.46    0.71
 -23   1 -22    1.62    0.70
  23  -1  23    3.81    0.76
  23   1  23    3.52    0.80
 -23   1 -23    2.99    0.76
  23  -1  24    2.02    0.77
  23   1  24    1.77    0.86
 -23   1 -24    2.04    0.76
 -23  -3  32   12.80    0.95
 -23   3  32   14.54    1.24
 -23   3  32   14.89    1.17
 -23  -3  31    0.24    0.70
 -23   3  31    0.21    0.91
 -23   3  31    1.40    0.86
 -23  -3  30   -0.52    0.75
 -23   3  30    0.95    0.90
 -23   3  30    1.53    0.92
 -23  -3  29   29.24    1.44
 -23   3  29   27.51    1.47
 -23   3  29   30.12    1.52
 -23  -3  28   13.18    0.95
 -23   3  28   13.85    1.12
 -23   3  28   14.59    1.16
 -23  -3  27    0.21    0.78
 -23   3  27   -0.68    0.82
 -23   3  27    1.01    0.91
 -23  -3  26   10.42    0.96
 -23   3  26   12.77    1.08
 -23   3  26   12.35    1.10
 -23  -3  25    2.00    0.80
 -23   3  25    1.06    0.86
 -23   3  25    1.74    0.97
 -23  -3  24    3.39    0.87
 -23   3  24    3.98    0.98
 -23   3  24    3.04    0.91
 -23  -3  23    4.20    0.88
 -23   3  23    2.97    0.97
 -23  -3  22    1.83    0.81
 -23   3  22    3.15    0.96
 -23  -3  21   -0.41    0.80
 -23   3  21    0.48    0.93
 -23  -3  20   12.55    1.12
 -23   3  20   12.63    1.14
 -23  -3  19   26.85    1.50
 -23   3  19   29.69    1.53
 -23  -3  18   37.70    1.77
 -23   3  18   36.93    1.74
 -23  -3  17   26.42    1.45
 -23   3  17   26.07    1.43
 -23  -3  16   94.65    3.42
 -23   3  16  124.70    4.43
 -23  -3  15   30.11    1.44
 -23   3  15   27.19    1.45
 -23  -3  14   78.35    2.91
 -23   3  14   77.40    2.93
 -23  -3  13   14.04    0.96
 -23   3  13   17.56    1.21
 -23  -3  12   15.76    1.03
 -23   3  12   20.37    1.21
 -23  -3  11    9.72    0.86
 -23   3  11   10.07    0.95
 -23  -3  10   15.43    1.02
 -23   3  10   15.09    1.03
 -23  -3   9   -0.40    0.64
 -23   3   9    0.59    0.69
 -23  -3   8   10.29    0.84
 -23   3   8   11.32    0.93
 -23  -3   7    1.24    0.63
 -23   3   7    0.43    0.73
  23  -3  -6    6.13    0.79
 -23  -3   6    5.27    0.64
 -23   3   6    4.55    0.76
  23  -3  -5   38.24    1.64
 -23  -3   5   34.72    1.38
 -23   3   5   34.66    1.56
  23  -3  -4   22.29    1.16
 -23  -3   4   22.51    0.99
 -23   3   4   20.97    1.18
  23  -3  -3   60.45    2.30
 -23  -3   3   59.72    2.14
 -23   3   3   63.36    2.42
  23  -3  -2  150.40    5.18
 -23  -3   2  148.50    4.98
 -23  -3   2  149.80    5.07
 -23   3   2  153.60    5.29
  23  -3  -1    9.87    0.86
 -23  -3   1    7.37    0.55
 -23  -3   1    8.66    0.62
 -23   3   1    7.26    0.87
  23  -3   0   75.29    2.78
 -23  -3   0   69.14    2.40
 -23  -3   0   68.05    2.36
 -23   3   0   75.68    2.81
  23  -3   1    1.95    0.66
 -23  -3  -1    0.44    0.38
 -23  -3  -1    0.29    0.33
 -23   3  -1    1.54    0.70
 -23  -3  -2   35.50    1.29
 -23  -3  -2   34.16    1.22
 -23   3  -2   40.37    1.72
  23  -3   3    8.87    0.83
 -23   3  -3    7.44    0.82
  23  -3   4   17.07    1.04
 -23   3  -4   15.47    1.02
  23  -3   5    0.61    0.74
 -23   3  -5    0.49    0.62
  23  -3   6   25.53    1.26
 -23   3  -6   25.74    1.30
  23  -3   7   48.63    1.94
 -23   3  -7   49.46    2.01
  23  -3   8   -0.39    0.63
 -23   3  -8    1.01    0.77
  23  -3   9    1.59    0.65
 -23   3  -9    0.08    0.73
  23  -3  10  110.40    3.90
 -23   3 -10  107.90    3.85
  23  -3  11   24.54    1.19
 -23   3 -11   22.99    1.26
  23  -3  12    7.12    0.70
 -23   3 -12    6.50    0.76
  23  -3  13   12.41    0.84
 -23   3 -13   10.91    0.93
  23  -3  14   23.22    1.16
 -23   3 -14   19.04    1.15
  23  -3  15    4.84    0.70
 -23   3 -15    4.58    0.72
  23  -3  16    3.88    0.63
 -23   3 -16    3.77    0.79
  23  -3  17    4.25    0.70
 -23   3 -17    6.14    0.71
  23  -3  18   31.99    1.44
 -23   3 -18   32.96    1.49
  23  -3  19    0.65    0.57
 -23   3 -19    1.31    0.70
  23  -3  20   23.83    1.20
 -23   3 -20   23.82    1.23
  23  -3  21    0.55    0.70
 -23   3 -21    0.92    0.71
  23  -3  22   13.42    0.95
 -23   3 -22   13.93    0.98
  23  -3  23   11.02    0.89
 -23   3 -23    9.75    0.80
 -23  -5  29   33.19    1.46
 -23   5  29   40.11    2.02
 -23   5  29   35.80    1.73
 -23  -5  28   -0.30    0.67
 -23   5  28   -0.39    1.00
 -23   5  28    0.42    0.94
 -23  -5  27    0.10    0.73
 -23   5  27    0.68    0.94
 -23   5  27   -0.27    1.03
 -23  -5  26    0.46    0.76
 -23   5  26    2.79    0.95
 -23   5  26   -0.39    0.96
 -23  -5  25    8.09    0.92
 -23   5  25    7.76    1.05
 -23  -5  24    0.71    0.76
 -23   5  24    0.62    0.96
 -23  -5  23   16.58    1.13
 -23   5  23   15.53    1.25
 -23  -5  22   25.58    1.30
 -23   5  22   24.68    1.45
 -23  -5  21    5.28    0.94
 -23   5  21    5.34    1.05
 -23  -5  20   26.56    1.43
 -23   5  20   25.47    1.47
 -23  -5  19   60.06    2.42
 -23   5  19   60.85    2.43
 -23  -5  18   23.01    1.30
 -23   5  18   22.92    1.37
 -23  -5  17   34.76    1.56
 -23   5  17   31.76    1.58
 -23  -5  16    9.51    0.90
 -23   5  16    9.93    1.06
 -23  -5  15    0.45    0.75
 -23   5  15    0.52    0.90
 -23  -5  14   65.34    2.53
 -23   5  14   63.18    2.50
 -23  -5  13   58.07    2.29
 -23   5  13   58.46    2.36
 -23  -5  12    1.50    0.79
 -23   5  12    1.20    0.89
 -23  -5  11   36.14    1.68
 -23   5  11   35.41    1.65
 -23  -5  10   80.72    2.99
 -23   5  10   79.68    2.98
 -23  -5   9   23.62    1.21
 -23   5   9   23.85    1.35
 -23   5   8   43.81    1.91
  23  -5  -7    3.86    0.75
 -23  -5   7    3.32    0.63
 -23   5   7    3.23    0.92
  23  -5  -6    7.74    0.83
 -23  -5   6    8.09    0.70
 -23   5   6    6.76    0.94
  23  -5  -5   48.94    2.01
 -23  -5   5   46.38    1.74
 -23   5   5   46.53    1.94
  23  -5  -4   19.54    1.09
 -23  -5   4   19.30    0.91
 -23   5   4   22.62    1.23
  23  -5  -3  110.60    3.90
 -23  -5   3  111.60    3.80
 -23   5   3  107.20    3.82
  23  -5  -2   96.89    3.44
 -23  -5   2  101.10    3.44
 -23   5   2   99.11    3.57
  23  -5  -1   40.71    1.71
 -23  -5   1   38.14    1.43
 -23  -5   1   40.89    1.47
 -23   5   1   41.56    1.78
  23  -5   0    8.29    0.81
 -23   5   0    7.50    0.86
  23  -5   1  124.20    4.37
 -23   5  -1  121.40    4.27
  23  -5   2    9.51    0.81
 -23   5  -2   10.94    0.92
  23  -5   3    9.92    0.80
 -23   5  -3    9.51    0.90
  23  -5   4   14.98    0.93
 -23   5  -4   15.88    1.05
  23  -5   5   35.68    1.57
 -23   5  -5   35.93    1.61
  23  -5   6    7.58    0.76
 -23   5  -6    6.89    0.80
  23  -5   7   19.95    1.08
 -23   5  -7   20.67    1.16
  23  -5   8   -0.32    0.54
 -23   5  -8    1.48    0.69
  23  -5   9    9.00    0.78
 -23   5  -9    7.73    0.80
  23  -5  10    4.27    0.64
 -23   5 -10    4.14    0.73
  23  -5  11   60.49    2.26
 -23   5 -11   66.99    2.53
  23  -5  12   54.97    2.10
 -23   5 -12   55.33    2.14
  23  -5  13   23.66    1.17
 -23   5 -13   21.32    1.10
  23  -5  14    7.06    0.70
 -23   5 -14    6.43    0.75
  23  -5  15    6.78    0.73
 -23   5 -15    7.16    0.75
  23  -5  16    3.21    0.63
 -23   5 -16    4.68    0.81
  23  -5  17    3.60    0.69
 -23   5 -17    2.67    0.69
  23  -5  18    2.52    0.69
 -23   5 -18    2.67    0.71
  23  -5  19    4.80    0.69
 -23   5 -19    3.48    0.75
  23  -5  20    8.47    0.76
 -23   5 -20    9.26    0.88
 -23  -7  23   27.54    1.31
 -23   7  23   26.67    1.49
 -23  -7  22    6.18    0.88
 -23   7  22    3.90    0.99
 -23  -7  21    7.44    0.90
 -23   7  21    6.21    1.02
 -23  -7  20    0.57    0.80
 -23   7  20    0.58    0.98
 -23  -7  19   15.63    1.02
 -23   7  19   13.04    1.17
 -23  -7  18    1.72    0.72
 -23   7  18    2.62    0.84
 -23  -7  17    1.26    0.79
 -23   7  17    1.58    0.82
 -23  -7  16    0.25    0.77
 -23   7  16   -0.97    0.87
 -23  -7  15   -0.21    0.76
 -23   7  15    1.67    0.87
 -23  -7  14    0.49    0.74
 -23   7  14   -0.03    0.82
 -23  -7  13    4.57    0.79
 -23   7  13    4.94    0.89
 -23  -7  12    1.55    0.75
 -23   7  12    1.78    0.91
 -23  -7  11    4.99    0.74
 -23   7  11    4.73    0.87
 -23  -7  10    4.83    0.69
 -23   7  10    3.04    0.86
 -23  -7   9   36.61    1.52
 -23   7   9   36.23    1.62
  23  -7  -8   21.65    1.14
 -23  -7   8   20.78    1.07
 -23   7   8   19.84    1.19
  23  -7  -7   24.60    1.29
 -23  -7   7   23.71    1.14
 -23   7   7   25.34    1.32
  23  -7  -6    1.88    0.75
 -23  -7   6    3.17    0.58
 -23   7   6    2.25    0.82
  23  -7  -5    9.30    0.89
 -23  -7   5    9.57    0.69
 -23   7   5   11.41    0.98
  23  -7  -4   33.15    1.46
 -23  -7   4   35.43    1.44
 -23   7   4   36.95    1.63
  23  -7  -3   16.94    1.00
 -23  -7   3   17.37    0.88
 -23   7   3   16.19    1.04
  23  -7  -2    8.70    0.81
 -23  -7   2   10.68    0.66
 -23   7   2    9.97    0.92
  23  -7  -1   11.96    0.90
 -23   7   1    9.93    0.96
  23  -7   0    0.87    0.63
 -23   7   0    1.26    0.73
  23  -7   1    3.23    0.69
 -23   7  -1    1.71    0.74
  23  -7   2    4.20    0.64
 -23   7  -2    4.02    0.75
  23  -7   3   21.56    1.15
 -23   7  -3   21.14    1.20
  23  -7   4   20.52    1.14
 -23   7  -4   20.29    1.14
  23  -7   5   62.41    2.32
 -23   7  -5   62.51    2.39
  23  -7   6    5.64    0.65
 -23   7  -6    6.46    0.78
  23  -7   7   30.61    1.38
 -23   7  -7   29.42    1.36
  23  -7   8    0.73    0.59
 -23   7  -8   -0.33    0.62
  23  -7   9   24.71    1.20
 -23   7  -9   25.46    1.25
  23  -7  10    1.44    0.59
 -23   7 -10    1.91    0.69
  23  -7  11    1.52    0.57
 -23   7 -11    2.46    0.72
  23  -7  12    7.27    0.65
 -23   7 -12    8.35    0.79
  23  -7  13   -0.50    0.58
 -23   7 -13    0.48    0.71
  23  -7  14    1.37    0.52
 -23   7 -14    0.09    0.64
  23  -7  15    2.02    0.64
 -23  -9  12    1.57    0.86
 -23  -9  11    1.66    0.85
 -23   9  11    3.09    0.86
 -23  -9  10    0.84    0.83
 -23   9  10   -0.13    0.82
 -23  -9   9    3.72    0.89
 -23   9   9    3.05    0.86
 -23  -9   8    1.09    0.83
 -23   9   8    2.17    0.77
  23  -9  -7    1.42    0.72
 -23  -9   7    2.73    0.82
 -23   9   7    2.20    0.81
  23  -9  -6   14.27    0.91
 -23  -9   6   13.70    1.04
 -23   9   6   11.67    1.05
  23  -9  -5    4.16    0.65
 -23  -9   5    3.57    1.04
 -23   9   5    3.89    0.91
  23  -9  -4   -1.33    0.70
 -23  -9   4   -1.40    0.95
 -23   9   4   -0.84    0.74
  23  -9  -3    7.66    0.79
 -23  -9   3    7.31    0.98
 -23   9   3    6.74    0.86
  23  -9  -2    5.51    0.71
 -23   9   2    5.36    0.78
  23  -9  -1   11.27    0.84
 -23   9   1   13.74    1.01
  23  -9   0    0.88    0.62
 -23   9   0   -0.25    0.75
  23  -9   1    4.91    0.73
 -23   9  -1    4.69    0.77
  23  -9   2    4.71    0.64
 -23   9  -2    5.22    0.82
  23  -9   3    8.04    0.73
 -23   9  -3    6.66    0.79
 -24   0  33   -1.01    0.82
 -24   0  32    2.71    0.90
 -24   0  31    0.21    0.85
 -24   0  30    3.40    0.81
 -24   0  29   -1.17    0.78
 -24   0  28    3.24    0.86
 -24   0  27    0.58    0.81
 -24   0  26   81.52    3.06
 -24   0  25    0.27    0.85
 -24   0  24  127.60    4.47
 -24   0  23   -0.33    0.86
 -24   0  22   60.09    2.48
 -24   0  21   -0.11    0.94
 -24   0  20    2.02    0.92
 -24   0  19    0.93    0.74
 -24   0  18   83.14    3.07
 -24   0  17   -0.36    0.85
 -24   0  11    0.57    0.65
 -24   0  10  188.70    6.38
 -24   0   9    0.05    0.63
 -24   0   8    3.32    0.70
 -24   0   7    0.22    0.66
 -24   0   6    1.59    0.71
 -24   0   5    0.90    0.60
 -24   0   4  125.50    4.33
 -24   0   3    0.48    0.62
 -24   0   2   49.58    1.96
 -24   0   1    0.64    0.66
 -24   0   0  506.00   16.62
  24   0   1    0.47    0.57
 -24   0  -1    0.18    0.60
  24   0   2  480.50   15.77
 -24   0  -2  489.60   16.07
  24   0   3   -0.05    0.55
 -24   0  -3   -0.36    0.55
  24   0   4    0.37    0.55
 -24   0  -4    0.56    0.57
  24   0   5    0.41    0.60
 -24   0  -5   -0.18    0.55
  24   0   6   23.41    1.12
 -24   0  -6   22.38    1.11
  24   0   7    0.74    0.52
 -24   0  -7   -0.28    0.59
  24   0   8  179.00    6.03
 -24   0  -8  182.10    6.15
  24   0   9    0.05    0.49
 -24   0  -9    0.37    0.56
  24   0  10   36.28    1.48
 -24   0 -10   35.26    1.47
  24   0  11    0.57    0.49
 -24   0 -11   -0.13    0.54
  24   0  12   95.27    3.34
 -24   0 -12   97.69    3.45
  24   0  13    0.09    0.51
 -24   0 -13    0.25    0.56
  24   0  14  176.70    5.97
 -24   0 -14  175.30    5.91
  24   0  15    0.03    0.52
 -24   0 -15   -0.40    0.54
  24   0  16    8.85    0.73
 -24   0 -16    6.46    0.68
  24   0  17   -0.32    0.53
 -24   0 -17    0.26    0.58
  24   0  18    0.57    0.59
 -24   0 -18    0.52    0.56
  24   0  19   -0.03    0.59
 -24   0 -19   -1.41    0.56
  24   0  20    2.00    0.71
 -24   0 -20    0.67    0.66
  24   0  21    0.20    0.67
 -24   0 -21    0.86    0.75
  24   0  22    0.19    0.78
 -24   0 -22    0.05    0.73
  24   0  23   -0.56    0.83
 -24   0 -23   -0.47    0.75
  24   0  24    1.58    0.87
 -24   0 -24    2.08    0.85
 -24  -2  32   11.45    0.96
 -24   2  32   12.49    1.05
 -24   2  32   12.41    1.09
 -24  -2  31    5.18    0.89
 -24   2  31    4.40    0.93
 -24  -2  30   15.70    1.13
 -24   2  30   11.55    1.06
 -24  -2  29   -0.63    0.73
 -24   2  29    0.89    0.87
 -24  -2  28    3.16    0.83
 -24   2  28    2.30    0.85
 -24  -2  27    9.90    0.93
 -24   2  27   10.56    1.04
 -24  -2  26    1.08    0.85
 -24   2  26    1.68    0.76
 -24   2  26    1.66    0.87
 -24  -2  25   21.23    1.24
 -24   2  25   21.07    1.26
 -24   2  25   20.41    1.23
 -24  -2  24   43.90    1.84
 -24   2  24   39.51    1.78
 -24   2  24   40.62    1.85
 -24  -2  23   14.01    1.11
 -24   2  23   13.09    1.17
 -24   2  23   13.89    1.08
 -24  -2  22    0.49    0.87
 -24   2  22   -0.28    0.78
 -24   2  22    1.29    0.91
 -24  -2  21   -0.14    0.86
 -24   2  21   -0.17    0.89
 -24  -2  20   99.56    3.62
 -24   2  20   96.60    3.55
 -24  -2  19    6.55    0.94
 -24   2  19    5.82    1.00
 -24  -2  18    0.65    0.91
 -24   2  18    2.55    0.95
 -24  -2  17   17.68    1.26
 -24   2  17   17.94    1.22
 -24  -2  16  186.10    6.41
 -24   2  16  179.80    6.18
 -24  -2  15   51.15    2.12
 -24   2  15   48.97    2.06
 -24  -2  14   22.57    1.21
 -24   2  14   27.35    1.44
 -24  -2  13  114.60    4.00
 -24   2  13  105.20    3.77
 -24  -2  12   55.10    2.13
 -24   2  12   55.90    2.23
 -24  -2  11   11.63    0.85
 -24   2  11   10.27    0.92
 -24  -2  10    3.32    0.65
 -24   2  10    3.38    0.76
 -24  -2   9    0.81    0.58
 -24   2   9    0.62    0.76
 -24  -2   8  126.10    4.36
 -24   2   8  128.50    4.48
 -24  -2   7    0.21    0.60
 -24   2   7    0.55    0.69
 -24  -2   6    5.53    0.72
 -24   2   6    6.20    0.83
 -24  -2   5   65.11    2.38
 -24   2   5   64.42    2.44
 -24   2   4  219.80    7.41
  24  -2  -3   26.49    1.24
 -24  -2   3   25.29    1.19
 -24   2   3   24.28    1.24
  24  -2  -2   21.01    1.09
 -24  -2   2   19.79    0.97
 -24   2   2   20.94    1.13
  24  -2  -1  113.90    3.99
 -24  -2   1  115.00    3.94
 -24   2   1  112.30    3.96
  24  -2   0    1.72    0.67
 -24  -2   0    0.65    0.53
 -24   2   0    1.17    0.68
  24  -2   1  128.60    4.46
 -24  -2  -1  128.70    4.39
 -24   2  -1  132.20    4.59
 -24   2  -2    3.74    0.70
  24  -2   3    2.23    0.67
 -24  -2  -3    1.59    0.41
 -24   2  -3    2.05    0.62
  24  -2   4   64.42    2.44
 -24  -2  -4   60.95    2.16
 -24   2  -4   60.17    2.31
  24  -2   5   59.80    2.31
 -24  -2  -5   62.83    2.23
 -24   2  -5   56.72    2.19
  24  -2   6   46.54    1.85
 -24  -2  -6   52.28    1.88
 -24   2  -6   49.76    2.02
  24  -2   7  199.70    6.74
 -24  -2  -7  210.30    6.97
 -24   2  -7  204.70    6.95
  24  -2   8  234.50    7.88
 -24  -2  -8  248.90    8.22
 -24   2  -8  239.10    8.07
 -24   2  -9   58.54    2.30
  24  -2  10    0.38    0.61
 -24  -2 -10   -0.17    0.38
 -24   2 -10    0.78    0.72
  24  -2  11   41.27    1.70
 -24  -2 -11   40.19    1.47
 -24   2 -11   38.81    1.64
  24  -2  12    2.01    0.65
 -24  -2 -12    1.90    0.45
  24   2  12    1.06    0.41
 -24   2 -12    1.78    0.63
  24  -2  13    6.72    0.71
 -24  -2 -13    6.28    0.55
  24   2  13    6.53    0.52
 -24   2 -13    5.71    0.71
  24  -2  14   36.91    1.57
 -24  -2 -14   39.20    1.46
  24   2  14   33.41    1.27
 -24   2 -14   35.78    1.58
  24  -2  15    2.58    0.66
  24   2  15    1.31    0.46
 -24   2 -15    1.69    0.75
  24  -2  16    6.91    0.74
  24   2  16    6.92    0.58
 -24   2 -16    6.81    0.81
  24  -2  17   14.99    0.96
  24   2  17   14.89    0.80
 -24   2 -17   16.59    1.05
  24  -2  18   51.02    2.00
  24   2  18   51.99    1.91
 -24   2 -18   54.91    2.14
  24  -2  19   12.93    0.90
  24   2  19   12.81    0.87
 -24   2 -19   12.73    0.94
  24  -2  20   19.06    1.06
  24   2  20   20.47    1.07
 -24   2 -20   17.26    0.98
  24  -2  21    4.44    0.74
  24   2  21    3.54    0.78
 -24   2 -21    3.48    0.77
  24  -2  22   18.95    1.09
  24   2  22   21.69    1.19
 -24   2 -22   18.43    1.06
  24  -2  23    1.02    0.73
  24   2  23    4.29    0.94
 -24   2 -23    3.09    0.74
 -24  -4  30    0.87    0.74
 -24   4  30   -0.57    0.87
 -24   4  30    0.65    1.02
 -24  -4  29   17.34    1.13
 -24   4  29   17.23    1.26
 -24   4  29   17.91    1.23
 -24  -4  28    7.16    0.80
 -24   4  28    6.44    0.99
 -24   4  28    4.56    1.02
 -24  -4  27    9.60    0.95
 -24   4  27    9.99    1.06
 -24   4  27   10.15    1.12
 -24  -4  26   10.85    0.94
 -24   4  26   10.28    1.12
 -24   4  26   10.24    1.03
 -24  -4  25    8.12    0.95
 -24   4  25    6.17    1.04
 -24  -4  24    1.24    0.82
 -24   4  24    2.55    0.95
 -24  -4  23    5.47    0.92
 -24   4  23    3.89    0.97
 -24  -4  22   -0.27    0.85
 -24   4  22    0.89    0.94
 -24  -4  21    0.65    0.77
 -24   4  21    0.01    0.91
 -24  -4  20   44.61    1.90
 -24   4  20   46.74    2.05
 -24  -4  19  163.30    5.59
 -24   4  19  164.50    5.69
 -24  -4  18   20.90    1.28
 -24   4  18   20.17    1.32
 -24  -4  17   48.06    2.01
 -24   4  17   53.13    2.23
 -24  -4  16   -0.23    0.86
 -24   4  16   -0.20    0.89
 -24  -4  15    1.75    0.82
 -24   4  15    2.45    0.95
 -24  -4  14    3.29    0.87
 -24   4  14    4.30    0.94
 -24  -4  13   13.93    1.00
 -24   4  13   16.09    1.18
 -24  -4  12   41.40    1.76
 -24   4  12   37.00    1.72
 -24  -4  11    3.50    0.75
 -24   4  11    1.26    0.86
 -24  -4  10   -0.54    0.74
 -24   4  10    1.32    0.85
 -24  -4   9    7.35    0.88
 -24   4   9    7.93    0.96
 -24  -4   8   -0.03    0.68
 -24   4   8    0.41    0.87
  24  -4  -7   96.13    3.42
 -24  -4   7  108.20    3.79
 -24   4   7  103.90    3.74
  24  -4  -6   11.27    0.86
 -24  -4   6    9.32    0.87
 -24   4   6   11.40    1.02
  24  -4  -5   49.37    1.98
 -24  -4   5   54.62    2.12
 -24   4   5   50.48    2.08
  24  -4  -4   17.09    1.03
 -24  -4   4   14.06    0.85
 -24   4   4   15.79    1.12
  24  -4  -3   47.90    1.93
 -24  -4   3   47.77    1.80
 -24   4   3   51.12    2.09
  24  -4  -2   11.30    0.87
 -24  -4   2   11.21    0.65
 -24  -4   2    9.15    0.65
 -24   4   2   10.98    0.98
  24  -4  -1   28.86    1.36
 -24  -4   1   29.62    1.18
 -24  -4   1   28.30    1.15
 -24   4   1   30.44    1.46
  24  -4   0   12.05    0.84
 -24  -4   0   11.90    0.58
 -24  -4   0   11.39    0.58
 -24   4   0   11.82    0.95
  24  -4   1    1.04    0.60
 -24   4  -1    0.61    0.77
  24  -4   2    6.61    0.77
 -24   4  -2    7.38    0.85
  24  -4   3   30.08    1.38
 -24   4  -3   30.20    1.47
  24  -4   4    3.05    0.63
 -24   4  -4    3.36    0.83
  24  -4   5   70.37    2.60
 -24   4  -5   73.38    2.76
  24  -4   6    5.35    0.71
 -24   4  -6    3.69    0.81
  24  -4   7   48.34    1.91
 -24   4  -7   53.80    2.14
  24  -4   8    1.49    0.58
 -24   4  -8    1.80    0.74
  24  -4   9   61.62    2.32
 -24   4  -9   61.91    2.36
  24  -4  10    3.84    0.66
 -24   4 -10    2.43    0.67
  24  -4  11    8.68    0.80
 -24   4 -11    6.89    0.82
  24  -4  12   11.83    0.85
 -24   4 -12   10.26    0.89
  24  -4  13    0.41    0.56
 -24   4 -13    0.21    0.64
  24  -4  14    1.07    0.63
 -24   4 -14   -0.72    0.71
  24  -4  15    2.05    0.65
 -24   4 -15    0.22    0.64
  24  -4  16    1.43    0.63
 -24   4 -16    1.40    0.77
  24  -4  17    1.61    0.60
 -24   4 -17    2.86    0.79
  24  -4  18    3.35    0.73
 -24   4 -18    4.13    0.74
  24  -4  19    8.23    0.85
 -24   4 -19    9.52    0.84
  24  -4  20    1.29    0.66
 -24   4 -20   -0.07    0.75
  24  -4  21   59.19    2.23
 -24   4 -21   58.50    2.20
 -24  -6  26    2.51    0.75
 -24   6  26    2.26    1.07
 -24  -6  25    4.54    0.77
 -24   6  25    3.01    0.99
 -24  -6  24    3.69    0.79
 -24   6  24    3.99    1.07
 -24  -6  23   16.02    1.08
 -24   6  23   15.09    1.17
 -24  -6  22    2.45    0.77
 -24   6  22    3.46    1.02
 -24  -6  21    0.43    0.76
 -24   6  21   -0.24    0.93
 -24  -6  20    6.60    0.92
 -24   6  20    4.87    0.98
 -24  -6  19    0.40    0.79
 -24   6  19    0.65    0.91
 -24  -6  18   10.96    0.96
 -24   6  18   10.79    1.07
 -24  -6  17    0.01    0.76
 -24   6  17    0.98    0.94
 -24  -6  16    2.43    0.78
 -24   6  16    2.88    0.92
 -24  -6  15   10.37    0.97
 -24   6  15    8.69    1.02
 -24  -6  14   16.99    1.13
 -24   6  14   18.55    1.21
 -24  -6  13   47.52    1.98
 -24   6  13   44.90    1.93
 -24  -6  12   -0.30    0.71
 -24   6  12    0.73    0.84
 -24  -6  11   31.54    1.45
 -24   6  11   31.78    1.58
 -24  -6  10   11.81    0.91
 -24   6  10   10.52    1.02
 -24  -6   9    0.36    0.67
 -24   6   9    0.73    0.83
  24  -6  -8   45.99    1.88
 -24  -6   8   49.02    1.90
 -24   6   8   42.19    1.86
  24  -6  -7    5.23    0.76
 -24  -6   7    5.45    0.63
 -24   6   7    5.47    0.94
  24  -6  -6   37.74    1.62
 -24  -6   6   41.53    1.63
 -24   6   6   39.34    1.74
  24  -6  -5    9.01    0.90
 -24  -6   5   10.78    0.70
 -24   6   5   11.08    0.97
  24  -6  -4    0.64    0.72
 -24  -6   4   -0.04    0.55
 -24   6   4    0.79    0.78
  24  -6  -3   14.52    1.02
 -24  -6   3   17.42    0.86
 -24   6   3   14.30    1.03
  24  -6  -2   19.84    1.13
 -24  -6   2   22.50    0.96
 -24   6   2   22.47    1.22
  24  -6  -1   29.99    1.34
 -24   6   1   28.69    1.38
  24  -6   0   26.03    1.23
 -24   6   0   27.45    1.34
  24  -6   1   48.98    1.96
 -24   6  -1   45.33    1.88
  24  -6   2   14.96    0.98
 -24   6  -2   19.75    1.15
  24  -6   3   25.09    1.22
 -24   6  -3   25.79    1.31
  24  -6   4   20.69    1.06
 -24   6  -4   20.33    1.16
  24  -6   5   39.73    1.64
 -24   6  -5   47.55    1.92
  24  -6   6    3.77    0.65
 -24   6  -6    3.51    0.78
  24  -6   7   38.35    1.61
 -24   6  -7   36.48    1.60
  24  -6   8   26.47    1.21
 -24   6  -8   26.61    1.29
  24  -6   9    0.81    0.57
 -24   6  -9    0.84    0.66
  24  -6  10   16.65    0.97
 -24   6 -10   17.38    1.06
  24  -6  11   12.14    0.81
 -24   6 -11    7.75    0.87
  24  -6  12    5.39    0.72
 -24   6 -12    6.11    0.79
  24  -6  13   23.26    1.16
 -24   6 -13   26.27    1.30
  24  -6  14    5.76    0.68
 -24   6 -14    6.04    0.81
  24  -6  15   16.57    0.96
 -24   6 -15   17.66    1.04
  24  -6  16    3.46    0.63
 -24   6 -16    1.70    0.78
  24  -6  17    8.64    0.74
 -24   6 -17    8.87    0.85
 -24  -8  19    1.51    0.79
 -24  -8  18    0.60    0.78
 -24   8  18    0.51    0.92
 -24  -8  17    9.22    0.94
 -24   8  17    7.77    1.05
 -24  -8  16    5.58    0.92
 -24   8  16    5.09    0.98
 -24  -8  15    0.12    0.82
 -24   8  15    1.40    0.90
 -24  -8  14    1.99    0.78
 -24   8  14   -0.14    0.83
 -24  -8  13   22.92    1.22
 -24   8  13   21.21    1.21
 -24  -8  12   15.35    1.06
 -24   8  12   16.74    1.07
 -24  -8  11   18.53    1.08
 -24   8  11   18.50    1.13
 -24  -8  10    0.69    0.65
 -24   8  10   -0.56    0.81
 -24  -8   9   11.63    0.87
 -24   8   9   10.60    1.00
  24  -8  -8    7.16    0.77
 -24  -8   8    5.18    0.76
 -24   8   8    5.55    0.83
  24  -8  -7    4.00    0.71
 -24  -8   7    4.75    0.74
 -24   8   7    4.40    0.85
  24  -8  -6    1.54    0.69
 -24  -8   6    0.27    0.66
 -24   8   6    0.59    0.75
  24  -8  -5   -0.88    0.65
 -24  -8   5    1.63    0.78
 -24   8   5    0.33    0.77
  24  -8  -4   10.73    0.83
 -24  -8   4   12.41    0.86
 -24   8   4   12.07    0.95
  24  -8  -3   -0.30    0.70
 -24  -8   3    0.88    0.64
 -24   8   3   -0.66    0.75
  24  -8  -2    0.65    0.67
 -24  -8   2    0.26    0.40
 -24   8   2    0.63    0.74
  24  -8  -1    6.27    0.76
 -24   8   1    8.12    0.91
  24  -8   0   19.52    1.04
 -24   8   0   18.27    1.09
  24  -8   1    2.24    0.65
 -24   8  -1    2.31    0.72
  24  -8   2   13.00    0.89
 -24   8  -2   11.10    0.86
  24  -8   3    3.19    0.63
 -24   8  -3    5.68    0.77
  24  -8   4    2.67    0.60
 -24   8  -4    3.06    0.68
  24  -8   5    6.27    0.72
 -24   8  -5    6.54    0.78
  24  -8   6    1.20    0.57
 -24   8  -6    0.50    0.63
  24  -8   7    1.80    0.61
 -24   8  -7    0.84    0.63
  24  -8   8    3.48    0.60
 -24   8  -8    4.32    0.72
  24  -8   9    0.43    0.55
 -24   8  -9   -0.68    0.69
 -25  -1  33   -0.81    0.82
 -25   1  33    1.20    0.85
 -25  -1  32    6.69    0.91
 -25   1  32    6.78    0.95
 -25  -1  31    5.40    0.86
 -25   1  31    5.47    0.90
 -25  -1  30   20.11    1.16
 -25   1  30   18.85    1.21
 -25  -1  29   24.88    1.32
 -25   1  29   23.77    1.34
 -25  -1  28   23.78    1.26
 -25   1  28   35.92    1.62
 -25  -1  27   31.32    1.49
 -25   1  27   28.98    1.47
 -25  -1  26    3.74    0.84
 -25   1  26    5.05    0.89
 -25  -1  25    4.72    0.92
 -25   1  25    5.03    0.91
 -25  -1  24    5.54    0.95
 -25   1  24    4.85    0.92
 -25  -1  23   60.76    2.39
 -25   1  23   62.63    2.49
 -25  -1  22   -1.40    0.89
 -25   1  22    0.17    0.88
 -25  -1  21   37.55    1.76
 -25   1  21   36.82    1.72
 -25  -1  20   -0.32    0.93
 -25   1  20    0.39    0.90
 -25  -1  19   20.17    1.30
 -25  -1  18  121.80    4.30
 -25  -1  17   16.12    1.15
 -25   1  17   15.36    1.10
 -25  -1  16  104.60    3.74
 -25   1  16   90.97    3.36
 -25  -1  15   11.28    0.95
 -25   1  15   12.12    1.10
 -25  -1  14   59.98    2.34
 -25   1  14   57.41    2.28
 -25  -1  13  107.00    3.81
 -25   1  13  102.30    3.66
 -25   1  12   14.97    1.02
 -25   1  11   18.45    1.11
 -25   1  10   36.38    1.62
 -25   1   9   28.99    1.38
 -25  -1   8    5.95    0.77
 -25   1   8    5.68    0.75
 -25  -1   7   24.42    1.18
 -25   1   7   24.32    1.23
 -25  -1   6   13.03    0.91
 -25   1   6   13.99    0.96
 -25  -1   5   25.73    1.28
 -25   1   5   26.04    1.25
 -25  -1   4  159.90    5.44
 -25   1   4  160.60    5.49
 -25  -1   3   21.89    1.09
 -25   1   3   22.81    1.23
  25  -1  -2  162.40    5.52
 -25  -1   2  162.60    5.51
 -25   1   2  163.10    5.60
  25  -1  -1   58.29    2.21
 -25  -1   1   56.94    2.16
 -25   1   1   54.93    2.17
  25  -1   0   26.40    1.24
 -25  -1   0   26.35    1.23
 -25   1   0   24.39    1.23
  25  -1   1   26.26    1.25
 -25  -1  -1   23.22    1.11
 -25   1  -1   23.67    1.20
  25  -1   2   31.75    1.42
 -25  -1  -2   28.81    1.23
 -25   1  -2   29.32    1.32
 -25   1  -3   23.59    1.15
 -25   1  -4    4.55    0.69
  25  -1   5    1.40    0.51
 -25  -1  -5    1.05    0.52
  25   1   5    1.29    0.51
 -25   1  -5    0.02    0.63
  25  -1   6   41.78    1.68
 -25  -1  -6   43.25    1.66
  25   1   6   41.19    1.59
 -25   1  -6   42.54    1.78
  25  -1   7   26.83    1.23
 -25  -1  -7   27.44    1.18
  25   1   7   25.23    1.08
 -25   1  -7   28.71    1.37
  25  -1   8   57.23    2.17
 -25  -1  -8   53.81    1.99
  25   1   8   55.55    2.01
 -25   1  -8   57.57    2.25
  25  -1   9    7.35    0.70
 -25  -1  -9    7.19    0.64
  25   1   9    5.26    0.55
 -25   1  -9    7.30    0.80
  25  -1  10  144.50    4.99
 -25  -1 -10  141.70    4.83
  25   1  10  138.20    4.69
 -25   1 -10  138.40    4.77
  25  -1  11    1.88    0.58
 -25  -1 -11    2.68    0.56
  25   1  11    2.32    0.49
 -25   1 -11    3.05    0.73
  25  -1  12   41.06    1.69
 -25  -1 -12   44.74    1.72
  25   1  12   41.31    1.60
 -25   1 -12   44.00    1.81
  25  -1  13    2.05    0.59
 -25  -1 -13    0.51    0.53
  25   1  13    1.37    0.48
 -25   1 -13    0.75    0.67
  25  -1  14   84.86    3.06
 -25  -1 -14   84.24    2.98
  25   1  14   82.73    2.92
 -25   1 -14   79.25    2.88
  25  -1  15    1.58    0.59
 -25  -1 -15    0.61    0.50
  25   1  15    1.79    0.52
 -25   1 -15    1.28    0.63
  25  -1  16    8.46    0.78
 -25  -1 -16    8.01    0.67
  25   1  16    7.30    0.69
 -25   1 -16    7.01    0.77
  25  -1  17    5.66    0.69
 -25  -1 -17    5.35    0.64
  25   1  17    5.69    0.66
 -25   1 -17    6.31    0.80
  25  -1  18    4.04    0.67
 -25  -1 -18    5.41    0.68
  25   1  18    4.14    0.62
 -25   1 -18    5.40    0.76
  25  -1  19   13.81    0.90
 -25  -1 -19   13.18    0.88
  25   1  19   12.64    0.85
 -25   1 -19   11.72    0.90
  25  -1  20    4.68    0.72
 -25  -1 -20    2.77    0.73
  25   1  20    3.45    0.74
 -25   1 -20    2.59    0.72
  25  -1  21   10.19    0.89
 -25  -1 -21    8.50    0.83
  25   1  21    9.88    0.90
 -25   1 -21    8.51    0.82
  25  -1  22   -0.71    0.72
  25   1  22    0.78    0.80
 -25   1 -22   -0.50    0.72
  25  -1  23   14.84    0.99
  25   1  23   15.53    1.28
 -25   1 -23   16.15    1.10
 -25  -3  31    7.83    0.84
 -25   3  31    6.38    0.95
 -25   3  31    6.36    1.04
 -25  -3  30    6.80    0.89
 -25   3  30    5.44    0.90
 -25   3  30    7.25    1.01
 -25  -3  29    0.29    0.79
 -25   3  29    0.32    0.93
 -25   3  29    0.55    0.89
 -25  -3  28    1.42    0.76
 -25   3  28    0.27    0.93
 -25   3  28    0.93    0.89
 -25  -3  27    0.76    0.83
 -25   3  27    1.32    0.87
 -25   3  27    0.31    0.97
 -25  -3  26    2.05    0.84
 -25   3  26    2.01    0.94
 -25   3  26    2.96    0.97
 -25  -3  25   26.82    1.42
 -25   3  25   26.48    1.46
 -25   3  25   25.91    1.40
 -25  -3  24    6.72    0.94
 -25   3  24    4.25    0.78
 -25   3  24    5.73    1.01
 -25  -3  23   25.10    1.32
 -25   3  23   24.30    1.41
 -25  -3  22   46.92    1.95
 -25   3  22   48.94    2.09
 -25  -3  21   24.52    1.41
 -25   3  21   25.22    1.45
 -25  -3  20   26.35    1.42
 -25   3  20   21.46    1.35
 -25  -3  19    1.37    0.92
 -25   3  19    3.18    0.96
 -25  -3  18    1.88    0.83
 -25   3  18    2.79    0.96
 -25  -3  17    7.07    0.94
 -25   3  17    6.84    1.05
 -25  -3  16  134.70    4.71
 -25   3  16  127.90    4.52
 -25  -3  15    0.69    0.82
 -25   3  15    0.99    0.88
 -25  -3  14   15.58    1.15
 -25   3  14   12.91    1.13
 -25  -3  13   40.82    1.85
 -25   3  13   40.21    1.81
 -25  -3  12   36.66    1.72
 -25   3  12   37.75    1.74
 -25  -3  11   17.79    1.16
 -25   3  11   17.28    1.19
 -25  -3  10   44.21    1.91
 -25   3  10   46.63    1.99
 -25  -3   9   15.98    0.97
 -25   3   9   22.28    1.30
 -25  -3   8   44.31    1.75
 -25   3   8   45.94    1.96
 -25  -3   7   25.76    1.19
 -25   3   7   21.51    1.22
  25  -3  -6    7.50    0.81
 -25  -3   6    6.02    0.70
 -25   3   6    6.36    0.88
  25  -3  -5    1.96    0.70
 -25  -3   5    2.08    0.58
 -25   3   5    2.41    0.73
  25  -3  -4   20.09    1.13
 -25  -3   4   16.45    0.89
 -25  -3   4   18.75    0.96
 -25   3   4   18.42    1.13
  25  -3  -3    0.56    0.67
 -25  -3   3    0.41    0.53
 -25  -3   3    0.68    0.50
 -25   3   3    0.75    0.74
  25  -3  -2   54.22    2.13
 -25  -3   2   50.05    1.85
 -25  -3   2   49.92    1.88
 -25   3   2   50.92    2.03
 -25  -3   1    2.81    0.51
 -25  -3   1    4.07    0.55
 -25   3   1    4.04    0.74
  25  -3   0    0.08    0.66
 -25  -3   0    0.17    0.47
 -25  -3   0    0.05    0.44
 -25   3   0    0.20    0.66
 -25  -3  -1   26.34    1.09
 -25  -3  -1   25.73    1.06
 -25   3  -1   25.33    1.26
  25  -3   2   22.07    1.22
 -25  -3  -2   18.43    0.77
 -25  -3  -2   18.67    0.79
 -25   3  -2   18.72    1.10
  25  -3   3   35.71    1.63
 -25   3  -3   32.82    1.52
  25  -3   4    0.51    0.57
 -25   3  -4   -0.41    0.68
  25  -3   5   29.33    1.34
 -25   3  -5   27.59    1.38
  25  -3   6   48.36    1.95
 -25   3  -6   50.05    2.07
  25  -3   7    0.46    0.59
 -25   3  -7    0.54    0.79
  25  -3   8   17.64    1.04
 -25   3  -8   17.64    1.11
  25  -3   9    1.09    0.63
 -25   3  -9    1.04    0.76
  25  -3  10   51.38    2.01
 -25   3 -10   52.12    2.10
  25  -3  11    9.77    0.78
 -25   3 -11    8.67    0.82
  25  -3  12   31.12    1.37
 -25   3 -12   32.78    1.53
  25  -3  13    5.09    0.71
 -25   3 -13    5.13    0.81
  25  -3  14   33.42    1.48
 -25   3 -14   34.57    1.52
  25  -3  15   -0.21    0.55
 -25   3 -15    0.45    0.73
  25  -3  16    1.32    0.62
 -25   3 -16    2.16    0.75
  25  -3  17   12.99    0.84
 -25   3 -17   12.56    0.97
  25  -3  18   28.62    1.32
 -25   3 -18   30.49    1.46
  25  -3  19   12.36    0.89
 -25   3 -19   10.68    0.93
  25  -3  20   10.66    0.83
 -25   3 -20   12.16    0.92
  25  -3  21    1.11    0.63
 -25   3 -21    1.43    0.74
  25  -3  22    4.34    0.72
 -25   3 -22    6.07    0.81
 -25  -5  28   17.32    1.05
 -25   5  28   17.28    1.19
 -25   5  28   18.57    1.33
 -25  -5  27   -0.44    0.72
 -25   5  27    0.49    0.95
 -25   5  27   -0.03    0.97
 -25  -5  26    0.76    0.78
 -25   5  26    2.29    1.04
 -25  -5  25   20.41    1.17
 -25   5  25   18.83    1.27
 -25  -5  24    1.36    0.82
 -25   5  24    0.34    0.99
 -25  -5  23    6.35    0.90
 -25   5  23    3.73    0.98
 -25  -5  22   17.20    1.16
 -25   5  22   15.98    1.21
 -25  -5  21   48.01    2.01
 -25   5  21   49.32    2.11
 -25  -5  20   61.71    2.43
 -25   5  20   63.61    2.52
 -25  -5  19    0.69    0.79
 -25   5  19   -0.21    0.92
 -25  -5  18   38.37    1.71
 -25   5  18   36.50    1.73
 -25  -5  17    1.26    0.84
 -25   5  17    2.59    0.97
 -25  -5  16   26.89    1.45
 -25   5  16   25.67    1.43
 -25  -5  15    3.31    0.90
 -25   5  15    1.44    0.95
 -25  -5  14   20.30    1.25
 -25   5  14   21.85    1.35
 -25  -5  13    0.39    0.86
 -25   5  13    1.23    0.89
 -25  -5  12    0.87    0.78
 -25   5  12   -0.88    0.85
 -25  -5  11   34.11    1.53
 -25   5  11   38.43    1.75
 -25  -5  10   46.25    1.88
 -25   5  10   50.81    2.12
 -25  -5   9  137.80    4.74
 -25   5   9  137.30    4.81
  25  -5  -8   57.66    2.29
 -25  -5   8   58.58    2.20
 -25   5   8   61.78    2.44
 -25   5   7   50.72    2.10
  25  -5  -6   40.24    1.76
 -25  -5   6   36.41    1.53
 -25   5   6   36.28    1.66
  25  -5  -5    0.40    0.69
 -25  -5   5    0.52    0.56
 -25   5   5   -0.26    0.80
  25  -5  -4    2.33    0.68
 -25  -5   4    2.88    0.54
 -25   5   4    2.41    0.82
  25  -5  -3   18.02    1.08
 -25  -5   3   18.61    0.91
 -25   5   3   19.08    1.17
  25  -5  -2    0.60    0.73
 -25  -5   2    0.47    0.52
 -25  -5   2    0.85    0.46
 -25   5   2    0.07    0.77
  25  -5  -1   25.35    1.31
 -25  -5   1   21.50    0.89
 -25  -5   1   24.00    0.92
 -25   5   1   23.12    1.28
  25  -5   0   -0.05    0.64
 -25   5   0    0.24    0.73
  25  -5   1    1.02    0.64
 -25   5  -1    1.91    0.76
  25  -5   2    6.46    0.72
 -25   5  -2    5.93    0.82
  25  -5   3   51.26    2.04
 -25   5  -3   54.63    2.16
  25  -5   4   31.70    1.44
 -25   5  -4   36.08    1.60
  25  -5   5   78.08    2.86
 -25   5  -5   79.53    2.95
  25  -5   6    8.27    0.70
 -25   5  -6    6.70    0.88
  25  -5   7    4.09    0.64
 -25   5  -7    4.69    0.76
  25  -5   8    0.33    0.58
 -25   5  -8    1.15    0.72
  25  -5   9    4.40    0.62
 -25   5  -9    3.20    0.77
  25  -5  10    3.28    0.59
 -25   5 -10    3.22    0.69
  25  -5  11    1.03    0.58
 -25   5 -11    0.66    0.66
  25  -5  12   38.60    1.58
 -25   5 -12   41.77    1.73
  25  -5  13    4.31    0.66
 -25   5 -13    4.46    0.74
  25  -5  14   -0.30    0.55
 -25   5 -14    0.11    0.72
  25  -5  15    0.93    0.64
 -25   5 -15    1.21    0.67
  25  -5  16   13.75    0.91
 -25   5 -16   13.46    0.90
  25  -5  17   15.43    0.97
 -25   5 -17   16.34    0.97
  25  -5  18    1.04    0.62
 -25   5 -18    0.67    0.74
  25  -5  19    6.74    0.73
 -25   5 -19    5.63    0.87
 -25  -7  23   10.18    1.03
 -25  -7  22    2.49    0.83
 -25   7  22    1.69    1.01
 -25  -7  21    0.04    0.78
 -25   7  21   -0.17    0.90
 -25  -7  20   -0.59    0.81
 -25   7  20    0.71    0.87
 -25  -7  19    1.55    0.85
 -25   7  19    0.39    0.87
 -25  -7  18    0.23    0.73
 -25   7  18    0.37    0.87
 -25  -7  17    4.44    0.88
 -25   7  17    4.80    0.93
 -25  -7  16    4.09    0.83
 -25   7  16    4.36    0.94
 -25  -7  15   47.46    1.93
 -25   7  15   51.26    2.08
 -25  -7  14    0.10    0.73
 -25   7  14    0.27    0.79
 -25  -7  13   52.74    2.11
 -25   7  13   53.75    2.18
 -25  -7  12    0.69    0.79
 -25   7  12   -0.65    0.87
 -25  -7  11    5.28    0.79
 -25   7  11    5.40    0.89
 -25  -7  10    0.88    0.70
 -25   7  10    1.25    0.81
 -25  -7   9    8.49    0.79
 -25   7   9    8.24    0.91
  25  -7  -8    0.14    0.71
 -25  -7   8    0.96    0.64
 -25   7   8   -0.01    0.74
  25  -7  -7    0.60    0.66
 -25  -7   7   -0.30    0.59
 -25   7   7    0.24    0.74
  25  -7  -6    0.50    0.59
 -25  -7   6   -0.04    0.51
 -25   7   6    0.21    0.76
  25  -7  -5    5.51    0.75
 -25  -7   5    4.93    0.66
 -25   7   5    6.37    0.87
  25  -7  -4    7.96    0.84
 -25  -7   4    9.17    0.72
 -25   7   4   10.17    0.90
  25  -7  -3   55.67    2.17
 -25  -7   3   59.39    2.12
 -25   7   3   53.13    2.12
  25  -7  -2    3.82    0.69
 -25  -7   2    1.33    0.45
 -25  -7   2    2.16    0.43
 -25   7   2    1.51    0.76
  25  -7  -1   69.26    2.55
 -25   7   1   72.12    2.69
  25  -7   0    3.21    0.64
 -25   7   0    3.36    0.77
  25  -7   1    0.89    0.62
 -25   7  -1    0.28    0.69
  25  -7   2    0.59    0.64
 -25   7  -2    1.97    0.77
  25  -7   3    7.64    0.72
 -25   7  -3    9.09    0.86
  25  -7   4    6.41    0.68
 -25   7  -4    5.76    0.87
  25  -7   5    9.06    0.78
 -25   7  -5    8.14    0.82
  25  -7   6    0.55    0.57
 -25   7  -6    1.14    0.65
  25  -7   7    7.34    0.73
 -25   7  -7    6.39    0.76
  25  -7   8    0.54    0.63
 -25   7  -8    1.10    0.68
  25  -7   9   24.43    1.11
 -25   7  -9   23.95    1.24
  25  -7  10    4.34    0.63
 -25   7 -10    4.12    0.71
  25  -7  11   39.76    1.58
 -25   7 -11   42.71    1.76
  25  -7  12   -0.18    0.57
 -25   7 -12    0.56    0.64
  25  -7  13    3.23    0.57
 -25   7 -13    3.31    0.71
 -25  -9   9   10.52    1.03
 -25  -9   8    4.20    0.91
 -25   9   8    2.02    0.86
  25  -9  -7   16.30    1.02
 -25  -9   7   19.51    1.39
 -25   9   7   20.55    1.16
  25  -9  -6    2.23    0.67
 -25  -9   6   -0.39    1.09
 -25   9   6    0.58    0.76
  25  -9  -5    2.00    0.64
 -25  -9   5    1.47    1.08
 -25   9   5    2.28    0.82
  25  -9  -4    8.50    0.79
 -25  -9   4    6.85    1.04
 -25   9   4    8.69    0.88
  25  -9  -3   15.43    0.89
 -25   9   3   15.36    1.04
  25  -9  -2    5.92    0.69
 -25   9   2    5.23    0.91
  25  -9  -1    5.41    0.72
 -25   9   1    3.90    0.89
 -26   0  33    1.22    0.80
 -26   0  32   56.15    2.19
 -26   0  31   -0.19    0.86
 -26   0  30   29.21    1.45
 -26   0  29   -0.15    0.71
 -26   0  28   14.20    1.09
 -26   0  27   -0.41    0.81
 -26   0  26    5.95    0.96
 -26   0  25    0.06    0.84
 -26   0  24   20.35    1.23
 -26   0  23   -0.42    0.90
 -26   0  22   38.59    1.80
 -26   0  21   -0.25    0.88
 -26   0  20   55.72    2.26
 -26   0  19   -0.65    0.86
 -26   0  18  230.00    7.79
 -26   0  17    0.34    0.73
 -26   0  13    0.65    0.60
 -26   0  12  183.50    6.25
 -26   0  11   -0.47    0.67
 -26   0  10    7.90    0.83
 -26   0   9   -0.76    0.65
 -26   0   8    1.98    0.74
 -26   0   7    0.17    0.67
 -26   0   6  623.40   20.45
 -26   0   5    3.37    0.72
 -26   0   4  117.40    4.09
 -26   0   3   -0.01    0.60
 -26   0   2    1.67    0.70
 -26   0   1    0.37    0.64
 -26   0   0   31.46    1.42
  26   0   1    0.15    0.55
 -26   0  -1    0.37    0.59
  26   0   2   -0.18    0.59
 -26   0  -2    0.78    0.60
  26   0   3   -0.07    0.60
 -26   0  -3    0.22    0.57
  26   0   4   11.58    0.77
 -26   0  -4   11.45    0.80
  26   0   5   -0.60    0.52
 -26   0  -5   -1.06    0.66
  26   0   6  113.30    3.93
 -26   0  -6  125.10    4.34
  26   0   7    0.82    0.49
 -26   0  -7    0.65    0.58
  26   0   8  188.00    6.32
 -26   0  -8  202.90    6.83
  26   0   9   -0.43    0.48
 -26   0  -9    0.72    0.62
  26   0  10    5.39    0.63
 -26   0 -10    3.87    0.70
  26   0  11   -0.14    0.53
 -26   0 -11    0.39    0.65
  26   0  12   27.34    1.23
 -26   0 -12   25.91    1.23
  26   0  13    0.06    0.55
 -26   0 -13    0.42    0.59
  26   0  14    3.66    0.63
 -26   0 -14    3.06    0.61
  26   0  15    0.28    0.55
 -26   0 -15    0.22    0.62
  26   0  16    0.69    0.62
 -26   0 -16    0.61    0.62
  26   0  17    0.50    0.56
 -26   0 -17   -0.06    0.56
  26   0  18   12.06    0.86
 -26   0 -18   11.61    0.82
  26   0  19    0.17    0.65
 -26   0 -19    0.13    0.65
  26   0  20   50.22    2.02
 -26   0 -20   50.78    2.03
  26   0  21   -0.18    0.77
 -26   0 -21   -0.03    0.79
  26   0  22   18.58    1.21
 -26   0 -22   17.88    1.10
  26   0  23    0.52    0.87
 -26   0 -23    0.98    0.80
 -26  -2  32    1.01    0.74
 -26   2  32    1.20    0.91
 -26   2  32    0.33    0.88
 -26  -2  31    5.41    0.90
 -26   2  31    2.80    0.89
 -26   2  31    3.52    0.88
 -26  -2  30    3.50    0.89
 -26   2  30    2.30    0.92
 -26   2  30    1.61    0.88
 -26  -2  29    1.72    0.74
 -26   2  29    1.80    0.89
 -26   2  29    0.87    0.87
 -26  -2  28    4.27    0.81
 -26   2  28    3.48    0.95
 -26   2  28    3.60    0.93
 -26  -2  27    1.40    0.73
 -26   2  27   -0.49    0.91
 -26   2  27   -0.84    0.86
 -26  -2  26   19.15    1.21
 -26   2  26   23.14    1.31
 -26   2  26   23.31    1.34
 -26  -2  25    0.00    0.78
 -26   2  25    1.78    0.95
 -26   2  25   -0.38    0.89
 -26  -2  24   30.97    1.51
 -26   2  24   28.17    1.52
 -26   2  24   30.08    1.53
 -26  -2  23    0.95    0.88
 -26   2  23    0.79    0.92
 -26   2  23    0.36    0.83
 -26  -2  22   38.45    1.76
 -26   2  22   35.73    1.71
 -26  -2  21    7.52    0.95
 -26   2  21    7.06    0.98
 -26  -2  20   26.34    1.41
 -26   2  20   27.02    1.47
 -26  -2  19   80.18    3.07
 -26   2  19   77.63    2.98
 -26  -2  18   35.79    1.73
 -26   2  18   37.53    1.76
 -26  -2  17   -0.24    0.95
 -26   2  17    2.08    0.89
 -26  -2  16   82.21    3.10
 -26   2  16   76.60    2.91
 -26  -2  15   70.40    2.68
 -26   2  15   67.14    2.65
 -26  -2  14    7.76    0.85
 -26   2  14    9.96    1.02
 -26  -2  13   56.05    2.19
 -26   2  13   59.51    2.41
 -26  -2  12  189.50    6.41
 -26   2  12  199.90    6.83
 -26  -2  11   62.34    2.38
 -26   2  11   65.09    2.53
 -26  -2  10   87.79    3.21
 -26   2  10   82.76    3.07
 -26  -2   9  100.80    3.60
 -26   2   9   98.02    3.55
 -26  -2   8   16.88    0.98
 -26   2   8   19.34    1.13
 -26  -2   7   32.80    1.44
 -26  -2   7   29.78    1.37
 -26   2   7   32.28    1.51
 -26  -2   6   14.63    0.90
 -26   2   6   11.96    0.92
 -26  -2   5   22.49    1.11
 -26   2   5   24.97    1.26
  26  -2  -4    9.25    0.82
 -26  -2   4    7.90    0.78
 -26   2   4    7.00    0.78
  26  -2  -3   63.23    2.40
 -26  -2   3   59.68    2.24
 -26   2   3   60.92    2.35
  26  -2  -2   54.43    2.12
 -26  -2   2   49.99    1.90
 -26   2   2   49.56    2.01
  26  -2  -1    5.58    0.75
 -26  -2   1    7.97    0.68
 -26   2   1    5.52    0.77
  26  -2   0  286.30    9.53
 -26  -2   0  303.80   10.06
 -26   2   0  292.00    9.75
  26  -2   1  106.20    3.76
 -26  -2  -1   99.34    3.44
 -26   2  -1  102.40    3.64
  26  -2   2    3.34    0.73
 -26  -2  -2    2.51    0.48
 -26   2  -2    2.52    0.72
 -26   2  -3   19.23    1.08
  26  -2   4   67.15    2.49
 -26  -2  -4   62.22    2.21
 -26   2  -4   66.68    2.54
  26  -2   5    4.02    0.65
 -26  -2  -5    2.53    0.52
 -26   2  -5    3.98    0.83
  26  -2   6    4.66    0.65
 -26  -2  -6    4.39    0.51
 -26   2  -6    6.06    0.86
  26  -2   7    1.27    0.63
 -26  -2  -7    0.60    0.44
 -26   2  -7    1.37    0.72
  26  -2   8   87.67    3.17
 -26  -2  -8   92.66    3.17
 -26   2  -8   88.34    3.23
  26  -2   9  105.20    3.72
 -26  -2  -9  109.70    3.70
 -26   2  -9  104.10    3.71
  26  -2  10    1.30    0.58
 -26  -2 -10    1.34    0.43
 -26   2 -10    0.38    0.69
 -26   2 -11    8.32    0.85
  26  -2  12   48.28    1.96
 -26  -2 -12   51.76    1.86
 -26   2 -12   47.78    1.94
  26  -2  13    8.80    0.80
 -26  -2 -13    8.05    0.58
 -26   2 -13    6.52    0.84
  26  -2  14   32.54    1.44
 -26  -2 -14   34.44    1.32
  26   2  14   36.60    1.39
 -26   2 -14   33.24    1.54
  26  -2  15    1.08    0.62
  26   2  15    0.22    0.46
 -26   2 -15    0.80    0.73
  26  -2  16   60.98    2.32
  26   2  16   60.93    2.17
 -26   2 -16   67.48    2.54
  26  -2  17    4.19    0.70
  26   2  17    3.64    0.58
 -26   2 -17    4.33    0.72
  26  -2  18    1.20    0.63
  26   2  18    0.25    0.63
 -26   2 -18    1.31    0.74
  26  -2  19   18.92    1.06
  26   2  19   18.81    1.02
 -26   2 -19   18.66    1.10
  26  -2  20    1.25    0.71
  26   2  20   -0.28    0.71
 -26   2 -20    1.71    0.73
  26  -2  21   22.36    1.20
  26   2  21   24.85    1.25
 -26   2 -21   22.68    1.20
  26  -2  22    1.35    0.73
  26   2  22   -0.15    0.87
 -26   2 -22    0.46    0.71
 -26  -4  30    2.21    0.75
 -26   4  30    2.04    1.02
 -26   4  30    3.78    0.93
 -26  -4  29   -1.31    0.72
 -26   4  29    1.85    0.98
 -26   4  29   -1.28    0.89
 -26  -4  28    4.76    0.81
 -26   4  28    4.72    0.98
 -26   4  28    5.90    0.98
 -26  -4  27   25.10    1.31
 -26   4  27   25.68    1.47
 -26   4  27   25.84    1.44
 -26  -4  26    1.01    0.83
 -26   4  26   -0.44    0.86
 -26   4  26   -0.59    0.95
 -26  -4  25   51.55    2.08
 -26   4  25   50.92    2.16
 -26  -4  24    0.21    0.76
 -26   4  24    0.45    0.93
 -26  -4  23   40.86    1.83
 -26   4  23   44.35    1.96
 -26  -4  22   -0.06    0.79
 -26   4  22    1.04    0.98
 -26  -4  21    4.14    0.81
 -26   4  21    5.07    1.01
 -26  -4  20    0.33    0.85
 -26   4  20   -1.41    0.92
 -26  -4  19    4.56    0.97
 -26   4  19    5.45    1.01
 -26  -4  18   15.52    1.14
 -26   4  18   13.62    1.16
 -26  -4  17   26.34    1.45
 -26   4  17   31.10    1.58
 -26  -4  16    0.50    0.73
 -26   4  16   -0.82    0.88
 -26  -4  15   16.31    1.12
 -26   4  15   17.32    1.23
 -26  -4  14   44.18    1.83
 -26   4  14   43.85    1.94
 -26  -4  13   28.43    1.38
 -26   4  13   31.20    1.58
 -26  -4  12    0.64    0.75
 -26   4  12    1.15    0.91
 -26  -4  11   60.25    2.37
 -26   4  11   59.39    2.39
 -26  -4  10   41.04    1.75
 -26   4  10   41.19    1.82
 -26  -4   9   33.31    1.53
 -26   4   9   30.56    1.53
 -26  -4   8    1.62    0.77
 -26   4   8    2.68    0.89
  26  -4  -7   15.77    0.97
 -26  -4   7   15.23    1.02
 -26   4   7   18.03    1.22
 -26   4   6   61.33    2.43
  26  -4  -5    4.30    0.76
 -26  -4   5    3.41    0.63
 -26   4   5    4.39    0.88
  26  -4  -4   -0.13    0.66
 -26  -4   4    0.41    0.55
 -26  -4   4    0.54    0.55
 -26   4   4   -0.11    0.78
  26  -4  -3    1.04    0.70
 -26  -4   3    2.22    0.54
 -26  -4   3    1.35    0.61
 -26   4   3    1.78    0.84
  26  -4  -2   60.84    2.31
 -26  -4   2   65.25    2.29
 -26  -4   2   63.34    2.25
 -26   4   2   62.96    2.44
  26  -4  -1   18.75    1.06
 -26  -4   1   17.82    0.79
 -26   4   1   16.07    1.07
  26  -4   0   50.91    2.02
 -26  -4   0   50.46    1.80
 -26  -4   0   54.13    1.89
 -26   4   0   50.54    2.05
  26  -4   1  125.00    4.37
 -26   4  -1  135.20    4.72
  26  -4   2   31.09    1.38
 -26   4  -2   30.23    1.44
  26  -4   3   26.97    1.26
 -26   4  -3   27.18    1.34
  26  -4   4   28.61    1.32
 -26   4  -4   29.34    1.44
  26  -4   5    0.28    0.62
 -26   4  -5   -0.21    0.70
  26  -4   6   10.13    0.78
 -26   4  -6    9.41    0.90
  26  -4   7   -0.39    0.56
 -26   4  -7    0.13    0.66
  26  -4   8    1.49    0.63
 -26   4  -8    1.56    0.73
  26  -4   9   -0.21    0.60
 -26   4  -9    0.77    0.65
  26  -4  10    2.20    0.64
 -26   4 -10    1.71    0.71
  26  -4  11    1.84    0.64
 -26   4 -11    1.48    0.69
  26  -4  12    6.93    0.77
 -26   4 -12    7.95    0.85
  26  -4  13   21.26    1.08
 -26   4 -13   21.17    1.16
  26  -4  14    3.46    0.68
 -26   4 -14    2.85    0.77
  26  -4  15   43.55    1.75
 -26   4 -15   45.95    1.89
  26  -4  16    2.50    0.69
 -26   4 -16    2.23    0.72
  26  -4  17    5.81    0.73
 -26   4 -17    6.31    0.84
  26  -4  18   -0.03    0.71
 -26   4 -18   -0.24    0.76
  26  -4  19   -1.08    0.70
 -26   4 -19    0.45    0.66
  26  -4  20   13.41    0.86
 -26   4 -20   13.68    0.98
 -26  -6  26    7.27    0.94
 -26  -6  25    0.85    0.73
 -26   6  25    0.12    1.03
 -26  -6  24    7.31    0.89
 -26   6  24    7.56    1.03
 -26  -6  23   -1.07    0.81
 -26   6  23   -0.46    0.95
 -26  -6  22   -0.19    0.74
 -26   6  22   -1.09    0.92
 -26  -6  21    6.24    0.85
 -26   6  21    6.14    1.00
 -26  -6  20    3.40    0.89
 -26   6  20    2.51    0.92
 -26  -6  19   32.44    1.58
 -26   6  19   28.96    1.48
 -26  -6  18    2.13    0.88
 -26   6  18    1.83    0.92
 -26  -6  17   30.81    1.50
 -26   6  17   32.02    1.57
 -26  -6  16    8.35    0.97
 -26   6  16    7.97    1.00
 -26  -6  15    3.25    0.75
 -26   6  15    3.10    0.92
 -26  -6  14    8.02    0.90
 -26   6  14   11.41    1.06
 -26  -6  13   -0.55    0.71
 -26   6  13   -0.73    0.82
 -26  -6  12   31.37    1.46
 -26   6  12   29.64    1.48
 -26  -6  11   39.69    1.69
 -26   6  11   40.45    1.77
 -26  -6  10   12.02    0.90
 -26   6  10   12.56    1.06
 -26  -6   9   65.47    2.46
 -26   6   9   64.20    2.49
  26  -6  -8   23.03    1.18
 -26  -6   8   20.88    1.10
 -26   6   8   21.00    1.26
  26  -6  -7   64.31    2.43
 -26  -6   7   71.31    2.60
 -26   6   7   67.20    2.59
 -26   6   6   10.82    0.96
  26  -6  -5    5.06    0.74
 -26  -6   5    5.35    0.62
 -26   6   5    5.68    0.89
  26  -6  -4   26.66    1.25
 -26  -6   4   25.81    1.11
 -26   6   4   25.22    1.30
  26  -6  -3   79.86    2.87
 -26  -6   3   82.17    2.84
 -26   6   3   66.23    2.52
  26  -6  -2    2.63    0.63
 -26  -6   2    2.73    0.48
 -26  -6   2    2.46    0.41
 -26   6   2    3.14    0.77
  26  -6  -1    1.47    0.72
 -26   6   1    2.13    0.74
  26  -6   0    1.56    0.64
 -26   6   0    2.00    0.74
  26  -6   1   23.27    1.17
 -26   6  -1   23.06    1.23
  26  -6   2   77.21    2.80
 -26   6  -2   79.63    2.93
  26  -6   3   24.65    1.17
 -26   6  -3   22.80    1.22
  26  -6   4    1.18    0.62
 -26   6  -4    1.76    0.74
  26  -6   5    0.04    0.59
 -26   6  -5    1.06    0.69
  26  -6   6   -0.44    0.59
 -26   6  -6    0.82    0.68
  26  -6   7   48.20    1.89
 -26   6  -7   50.09    1.98
  26  -6   8    5.18    0.69
 -26   6  -8    3.86    0.75
  26  -6   9   13.86    0.86
 -26   6  -9   12.83    0.98
  26  -6  10   18.65    1.02
 -26   6 -10   20.64    1.14
  26  -6  11    5.56    0.70
 -26   6 -11    4.32    0.77
  26  -6  12    1.72    0.61
 -26   6 -12    2.01    0.70
  26  -6  13    4.21    0.62
 -26   6 -13    3.62    0.73
  26  -6  14    6.64    0.69
 -26   6 -14    4.66    0.76
  26  -6  15    2.87    0.62
 -26   6 -15    3.38    0.75
  26  -6  16    4.43    0.71
 -26   6 -16    3.88    0.81
 -26  -8  17    0.95    0.82
 -26   8  17    1.73    0.94
 -26  -8  16    0.27    0.79
 -26   8  16    0.80    0.89
 -26  -8  15    3.05    0.83
 -26   8  15    2.64    0.90
 -26  -8  14    1.63    0.77
 -26   8  14    2.31    0.84
 -26  -8  13   10.89    1.00
 -26   8  13   10.41    0.96
 -26  -8  12    8.34    0.89
 -26   8  12    6.31    0.82
 -26  -8  11   10.92    0.98
 -26   8  11   10.69    0.94
 -26  -8  10   14.24    1.01
 -26   8  10   16.50    1.08
 -26  -8   9    2.29    0.76
 -26   8   9    2.01    0.83
  26  -8  -8    0.54    0.60
 -26  -8   8    0.28    0.69
 -26   8   8   -0.26    0.76
  26  -8  -7   -0.28    0.72
 -26  -8   7    0.41    0.70
 -26   8   7    0.37    0.79
  26  -8  -6   19.47    1.07
 -26  -8   6   21.48    1.20
 -26   8   6   17.65    1.07
  26  -8  -5    3.02    0.69
 -26  -8   5    3.25    0.72
 -26   8   5    2.46    0.80
 -26   8   4   32.40    1.47
  26  -8  -3   15.37    0.92
 -26   8   3   14.82    1.07
  26  -8  -2    4.90    0.69
 -26   8   2    5.59    0.81
  26  -8  -1    7.03    0.76
 -26   8   1    6.49    0.83
  26  -8   0    6.65    0.71
 -26   8   0    6.91    0.78
  26  -8   1    3.46    0.61
 -26   8  -1    2.40    0.76
  26  -8   2    0.07    0.58
 -26   8  -2   -0.41    0.71
  26  -8   3    4.54    0.66
 -26   8  -3    3.25    0.70
  26  -8   4   -0.12    0.55
 -26   8  -4    0.06    0.64
  26  -8   5   24.52    1.17
 -26   8  -5   22.74    1.13
  26  -8   6    8.32    0.73
 -26   8  -6    8.19    0.78
  26  -8   7   11.77    0.81
 -26   8  -7   12.66    0.88
 -27  -1  32    0.11    0.81
 -27   1  32    0.08    0.78
 -27  -1  31    0.36    0.81
 -27   1  31   -0.73    0.78
 -27  -1  30    9.80    0.92
 -27   1  30   11.09    1.03
 -27  -1  29   24.31    1.25
 -27   1  29   23.21    1.32
 -27  -1  28    6.46    0.88
 -27   1  28    5.82    0.88
 -27  -1  27    0.90    0.77
 -27   1  27    1.93    0.88
 -27  -1  26    0.74    0.83
 -27   1  26    1.51    0.84
 -27  -1  25    4.04    0.94
 -27   1  25    4.21    0.90
 -27  -1  24   49.86    2.06
 -27   1  24   45.02    1.97
 -27  -1  23    0.85    0.85
 -27   1  23    1.15    0.87
 -27  -1  22   25.14    1.43
 -27   1  22   25.99    1.38
 -27  -1  21   29.67    1.58
 -27   1  21   29.23    1.55
 -27  -1  20   12.17    1.12
 -27  -1  19   17.26    1.23
 -27   1  19   15.32    1.17
 -27  -1  18   65.67    2.52
 -27   1  18   63.74    2.53
 -27  -1  17    0.10    0.85
 -27   1  17   -0.08    0.91
 -27  -1  16   31.16    1.57
 -27   1  16   29.33    1.52
 -27  -1  15   15.46    1.16
 -27   1  15   15.50    1.16
 -27  -1  14  116.80    4.17
 -27   1  14  125.00    4.42
 -27  -1  13   26.84    1.33
 -27   1  13   26.66    1.41
 -27   1  12    3.53    0.75
 -27   1  11   12.71    0.96
 -27  -1  10   51.47    2.06
 -27   1  10   53.85    2.15
 -27  -1   9   11.29    0.92
 -27   1   9   11.34    0.91
 -27  -1   8   44.58    1.81
 -27   1   8   43.90    1.85
 -27  -1   7    7.59    0.77
 -27   1   7    7.35    0.84
 -27  -1   6   63.04    2.37
 -27   1   6   67.01    2.56
 -27  -1   5    4.54    0.71
 -27   1   5    4.51    0.72
 -27  -1   4   19.16    1.08
 -27   1   4   17.42    1.05
 -27  -1   3    3.92    0.70
 -27   1   3    2.51    0.72
 -27  -1   2   11.51    0.81
 -27   1   2   12.66    0.93
 -27   1   1    1.88    0.74
  27  -1   0   28.64    1.33
 -27  -1   0   26.67    1.24
 -27   1   0   28.36    1.37
  27  -1   1   27.60    1.26
 -27  -1  -1   24.85    1.16
 -27   1  -1   24.61    1.23
  27  -1   2  128.00    4.41
 -27  -1  -2  125.10    4.29
 -27   1  -2  127.70    4.42
 -27   1  -3   15.14    0.95
  27  -1   4    3.02    0.62
 -27  -1  -4    4.91    0.67
 -27   1  -4    4.54    0.80
  27  -1   5    2.75    0.59
 -27  -1  -5    2.31    0.58
 -27   1  -5    2.41    0.74
  27  -1   6  264.80    8.83
 -27  -1  -6  279.60    9.25
  27   1   6  278.50    9.26
 -27   1  -6  274.70    9.20
  27  -1   7    0.97    0.57
 -27  -1  -7    0.26    0.53
  27   1   7   -0.04    0.49
 -27   1  -7   -0.60    0.71
  27  -1   8    2.39    0.64
 -27  -1  -8    2.77    0.59
  27   1   8    2.58    0.53
 -27   1  -8    2.46    0.70
  27  -1   9    3.00    0.60
 -27  -1  -9    1.22    0.61
  27   1   9    2.41    0.51
 -27   1  -9    1.65    0.65
  27  -1  10   16.07    0.96
 -27  -1 -10   15.85    0.93
  27   1  10   15.19    0.85
 -27   1 -10   17.33    1.03
  27  -1  11   49.23    1.92
 -27  -1 -11   50.39    1.89
  27   1  11   48.93    1.84
 -27   1 -11   49.82    1.99
  27  -1  12   14.55    0.92
 -27  -1 -12   16.09    0.87
  27   1  12   16.04    0.85
 -27   1 -12   14.87    0.95
  27  -1  13   17.84    1.03
 -27  -1 -13   15.90    0.87
  27   1  13   18.00    0.92
 -27   1 -13   16.82    1.01
  27  -1  14   30.03    1.36
 -27  -1 -14   30.39    1.28
  27   1  14   27.67    1.20
 -27   1 -14   30.82    1.41
  27  -1  15   11.94    0.81
 -27  -1 -15   12.27    0.78
  27   1  15   13.01    0.83
 -27   1 -15   12.55    0.92
  27  -1  16    7.10    0.73
 -27  -1 -16    7.02    0.71
  27   1  16    5.62    0.67
 -27   1 -16    5.83    0.74
  27   1  17   31.47    1.36
 -27   1 -17   31.91    1.47
  27  -1  18    6.00    0.75
 -27  -1 -18    6.50    0.73
  27   1  18    7.09    0.84
 -27   1 -18    4.52    0.76
  27  -1  19   14.76    1.02
 -27  -1 -19   12.77    0.90
  27   1  19   15.41    1.07
 -27   1 -19   14.32    0.99
  27  -1  20    3.25    0.72
 -27  -1 -20    3.30    0.92
  27   1  20    4.02    0.92
 -27   1 -20    4.69    0.81
  27  -1  21    3.77    0.76
 -27  -1 -21    2.27    0.88
  27   1  21    4.12    1.02
 -27   1 -21    3.43    0.83
  27  -1  22    1.20    0.73
  27   1  22    0.78    1.10
 -27   1 -22    2.11    0.84
 -27  -3  31    8.36    0.81
 -27   3  31    6.27    1.08
 -27   3  31    7.85    1.03
 -27  -3  30   35.34    1.54
 -27   3  30   37.51    1.71
 -27   3  30   33.86    1.61
 -27  -3  29    2.57    0.92
 -27   3  29    4.28    0.97
 -27   3  29    2.59    0.94
 -27  -3  28    2.52    0.74
 -27   3  28    1.40    0.97
 -27   3  28    0.09    0.93
 -27  -3  27    7.95    0.90
 -27   3  27    8.90    1.07
 -27   3  27    8.12    1.03
 -27  -3  26   11.56    0.96
 -27   3  26   11.91    1.08
 -27   3  26   12.13    1.13
 -27  -3  25    2.66    0.91
 -27   3  25    3.40    0.91
 -27   3  25    3.42    0.89
 -27  -3  24   22.18    1.27
 -27   3  24   20.35    1.31
 -27  -3  23    2.63    0.92
 -27   3  23    3.11    0.96
 -27  -3  22   42.51    1.89
 -27   3  22   38.72    1.80
 -27  -3  21    0.48    0.90
 -27   3  21    0.22    0.92
 -27  -3  20    3.73    0.87
 -27   3  20    2.41    0.94
 -27  -3  19    0.69    0.81
 -27   3  19    1.94    0.92
 -27  -3  18   73.46    2.78
 -27   3  18   76.93    2.93
 -27  -3  17   30.95    1.51
 -27   3  17   33.56    1.67
 -27  -3  16   -0.42    0.88
 -27   3  16    0.31    0.96
 -27  -3  15   17.14    1.23
 -27   3  15   17.05    1.22
 -27  -3  14  145.60    5.10
 -27   3  14  141.20    4.94
 -27  -3  13    3.89    0.93
 -27   3  13    4.10    0.96
 -27  -3  12    3.25    0.89
 -27   3  12    3.05    0.99
 -27  -3  11   13.50    0.99
 -27   3  11   13.69    1.12
 -27  -3  10    3.78    0.81
 -27   3  10    3.46    0.87
 -27  -3   9    0.53    0.78
 -27   3   9    0.65    0.87
 -27  -3   8   12.70    1.01
 -27   3   8   13.21    1.09
 -27  -3   7    1.29    0.74
 -27   3   7   -0.51    0.84
 -27  -3   6    3.80    0.70
 -27  -3   6    3.96    0.78
 -27   3   6    4.84    0.89
  27  -3  -5    9.59    0.86
 -27  -3   5    8.98    0.84
 -27  -3   5    8.58    0.89
 -27   3   5    9.51    0.98
  27  -3  -4   25.56    1.30
 -27  -3   4   29.45    1.40
 -27  -3   4   30.25    1.37
 -27   3   4   28.31    1.44
  27  -3  -3   14.21    0.99
 -27  -3   3   13.95    0.89
 -27  -3   3   11.21    0.82
 -27   3   3   14.19    1.09
  27  -3  -2   30.20    1.37
 -27  -3   2   31.75    1.34
 -27  -3   2   28.46    1.25
 -27   3   2   33.96    1.56
  27  -3  -1   19.33    1.06
 -27  -3   1   17.68    0.89
 -27   3   1   18.31    1.14
  27  -3   0   42.95    1.77
 -27  -3   0   39.86    1.52
 -27  -3   0   39.67    1.49
 -27   3   0   41.13    1.78
  27  -3   1   12.25    0.87
 -27  -3  -1   10.65    0.63
 -27  -3  -1   11.73    0.63
 -27   3  -1   13.01    0.99
  27  -3   2   32.30    1.43
 -27  -3  -2   30.46    1.16
 -27  -3  -2   31.87    1.19
 -27   3  -2   31.55    1.50
  27  -3   3   35.59    1.53
 -27  -3  -3   37.92    1.39
 -27  -3  -3   34.03    1.23
 -27   3  -3   36.86    1.66
  27  -3   4   38.39    1.64
 -27   3  -4   38.35    1.68
  27  -3   5    1.63    0.60
 -27   3  -5    2.48    0.74
  27  -3   6    0.70    0.62
 -27   3  -6    0.98    0.69
  27  -3   7    0.82    0.59
 -27   3  -7    1.31    0.79
  27  -3   8    2.25    0.64
 -27   3  -8    1.63    0.74
  27  -3   9    7.33    0.77
 -27   3  -9    8.80    0.90
  27  -3  10   76.98    2.84
 -27   3 -10   77.69    2.89
  27  -3  11    4.07    0.65
 -27   3 -11    2.89    0.71
  27  -3  12   78.84    2.88
 -27   3 -12   72.37    2.71
  27  -3  13   19.41    1.07
 -27   3 -13   19.74    1.16
  27  -3  14   15.37    0.96
 -27   3 -14   15.48    0.96
  27  -3  15    2.20    0.60
 -27   3 -15    2.47    0.79
  27  -3  16   14.40    0.96
 -27   3 -16   15.10    1.01
  27  -3  17    2.20    0.69
 -27   3 -17    1.50    0.78
  27  -3  18   -0.03    0.69
 -27   3 -18    0.26    0.68
  27  -3  19   -0.75    0.72
 -27   3 -19   -1.05    0.77
  27  -3  20    2.85    0.72
 -27   3 -20    3.55    0.73
  27  -3  21    0.22    0.74
 -27   3 -21    0.82    0.79
 -27  -5  28   20.78    1.15
 -27   5  28   14.28    1.35
 -27   5  28   14.58    1.22
 -27  -5  27   40.41    1.69
 -27   5  27   37.93    1.78
 -27   5  27   39.82    1.73
 -27  -5  26    7.69    0.95
 -27   5  26    9.98    1.13
 -27  -5  25    2.15    0.80
 -27   5  25    2.25    0.96
 -27  -5  24   16.22    1.11
 -27   5  24   15.87    1.23
 -27  -5  23    2.98    0.83
 -27   5  23    0.24    0.93
 -27  -5  22   20.34    1.20
 -27   5  22   22.63    1.37
 -27  -5  21   10.91    0.93
 -27   5  21   12.71    1.15
 -27  -5  20    2.25    0.84
 -27   5  20    2.37    0.93
 -27  -5  19   12.93    1.07
 -27   5  19   13.96    1.15
 -27  -5  18   -0.03    0.86
 -27   5  18   -1.33    0.91
 -27  -5  17   35.15    1.70
 -27   5  17   36.31    1.71
 -27  -5  16   11.88    1.02
 -27   5  16   13.32    1.10
 -27  -5  15   52.48    2.10
 -27   5  15   53.01    2.18
 -27  -5  14   24.47    1.27
 -27   5  14   23.85    1.34
 -27  -5  13   31.66    1.45
 -27   5  13   32.95    1.59
 -27  -5  12   22.38    1.21
 -27   5  12   21.41    1.29
 -27  -5  11    8.33    0.85
 -27   5  11    8.48    0.97
 -27  -5  10    1.31    0.73
 -27   5  10    1.68    0.86
 -27  -5   9   26.30    1.35
 -27   5   9   27.72    1.43
 -27  -5   8    0.33    0.74
 -27   5   8    0.37    0.85
  27  -5  -7    0.64    0.67
 -27  -5   7    0.02    0.70
 -27   5   7    1.50    0.84
  27  -5  -6    1.11    0.65
 -27  -5   6    1.75    0.65
 -27   5   6    2.00    0.86
  27  -5  -5    1.15    0.67
 -27  -5   5    1.00    0.57
 -27   5   5    1.14    0.84
  27  -5  -4    1.44    0.69
 -27  -5   4    1.04    0.54
 -27   5   4    1.21    0.75
  27  -5  -3   39.52    1.72
 -27  -5   3   39.47    1.47
 -27  -5   3   36.97    1.47
 -27   5   3   37.00    1.68
  27  -5  -2   22.21    1.19
 -27  -5   2   19.30    0.89
 -27  -5   2   22.39    0.92
 -27   5   2   22.11    1.23
  27  -5  -1  173.50    5.90
 -27  -5   1  168.00    5.64
 -27  -5   1  170.20    5.67
 -27   5   1  168.70    5.80
  27  -5   0    4.12    0.74
 -27   5   0    5.05    0.84
  27  -5   1   10.55    0.84
 -27   5  -1   11.43    0.96
  27  -5   2    6.55    0.74
 -27   5  -2    7.97    0.89
  27  -5   3   -0.01    0.62
 -27   5  -3    0.34    0.70
  27  -5   4   17.29    0.95
 -27   5  -4   18.72    1.09
  27  -5   5    0.96    0.61
 -27   5  -5    1.23    0.75
  27  -5   6   43.33    1.78
 -27   5  -6   41.26    1.77
  27  -5   7   10.68    0.82
 -27   5  -7    9.73    0.88
  27  -5   8    1.63    0.60
 -27   5  -8    1.28    0.68
  27  -5   9   19.52    1.06
 -27   5  -9   17.17    1.06
  27  -5  10   13.98    0.91
 -27   5 -10   13.58    0.89
  27  -5  11    2.29    0.64
 -27   5 -11    1.97    0.70
  27  -5  12    6.18    0.69
 -27   5 -12    6.44    0.79
  27  -5  13   31.03    1.39
 -27   5 -13   31.45    1.46
  27  -5  14    0.73    0.63
 -27   5 -14   -0.09    0.73
  27  -5  15    7.50    0.76
 -27   5 -15    7.06    0.73
  27  -5  16   11.08    0.88
 -27   5 -16   10.99    0.93
  27  -5  17    1.13    0.61
 -27   5 -17    1.54    0.70
 -27  -7  22    9.28    0.98
 -27   7  22    7.40    1.13
 -27  -7  21   26.12    1.35
 -27   7  21   28.82    1.49
 -27  -7  20    1.60    0.79
 -27   7  20    0.16    0.90
 -27  -7  19    2.52    0.75
 -27   7  19    2.36    0.85
 -27  -7  18   -0.68    0.82
 -27   7  18    2.83    0.85
 -27  -7  17    0.85    0.86
 -27   7  17    0.05    0.82
 -27  -7  16    1.39    0.74
 -27   7  16    3.12    0.84
 -27  -7  15   -0.27    0.79
 -27   7  15    0.42    0.81
 -27  -7  14   -0.05    0.72
 -27   7  14    0.51    0.88
 -27  -7  13    3.71    0.78
 -27   7  13    6.59    0.94
 -27  -7  12    3.11    0.76
 -27   7  12    2.17    0.83
 -27  -7  11   39.04    1.67
 -27   7  11   36.09    1.64
 -27  -7  10   19.30    1.15
 -27   7  10   19.17    1.18
 -27  -7   9   27.65    1.33
 -27   7   9   31.73    1.47
  27  -7  -8    0.36    0.62
 -27  -7   8   -0.04    0.65
 -27   7   8    0.68    0.79
  27  -7  -7   33.91    1.49
 -27  -7   7   37.47    1.54
 -27   7   7   35.13    1.56
  27  -7  -6    5.92    0.74
 -27  -7   6    4.75    0.64
 -27   7   6    4.76    0.80
  27  -7  -5    0.46    0.66
 -27  -7   5    0.64    0.60
 -27   7   5    0.32    0.75
  27  -7  -4    1.50    0.63
 -27  -7   4    1.94    0.57
 -27   7   4    1.62    0.77
  27  -7  -3    2.36    0.62
 -27  -7   3    2.09    0.58
 -27  -7   3    2.03    0.46
 -27   7   3    1.34    0.71
  27  -7  -2    2.54    0.70
 -27   7   2    3.24    0.75
  27  -7  -1   12.79    0.92
 -27   7   1   11.90    0.94
  27  -7   0    6.45    0.79
 -27   7   0    5.80    0.82
  27  -7   1   -0.56    0.56
 -27   7  -1   -1.05    0.69
  27  -7   2    2.78    0.61
 -27   7  -2    3.48    0.79
  27  -7   3   47.51    1.88
 -27   7  -3   49.88    1.99
  27  -7   4   21.86    1.07
 -27   7  -4   24.96    1.23
  27  -7   5   23.79    1.13
 -27   7  -5   24.39    1.20
  27  -7   6    4.01    0.70
 -27   7  -6    2.85    0.69
  27  -7   7    4.20    0.66
 -27   7  -7    4.90    0.75
  27  -7   8    0.84    0.62
 -27   7  -8    1.15    0.74
  27  -7   9    7.62    0.69
 -27   7  -9    7.28    0.79
  27  -7  10    4.52    0.64
 -27   7 -10    4.54    0.81
  27  -7  11   17.59    0.89
 -27   7 -11   16.00    0.98
 -28   0  32    0.68    0.77
 -28   0  31    0.91    0.78
 -28   0  30    0.14    0.83
 -28   0  29    0.16    0.79
 -28   0  28    5.79    0.88
 -28   0  27    0.51    0.82
 -28   0  26   56.08    2.26
 -28   0  25   -0.78    0.76
 -28   0  24  135.20    4.73
 -28   0  23   -0.71    0.93
 -28   0  22   11.65    1.08
 -28   0  21    0.92    0.87
 -28   0  20    1.60    0.94
 -28   0  19    0.06    0.92
 -28   0  18  221.00    7.52
 -28   0  15   -0.33    0.75
 -28   0  14  231.40    7.81
 -28   0  13   -1.02    0.89
 -28   0  12  167.20    5.73
 -28   0  11   -0.20    0.69
 -28   0  10    2.77    0.80
 -28   0   9    0.87    0.73
 -28   0   8    3.89    0.75
 -28   0   7    0.52    0.67
 -28   0   6   26.46    1.37
 -28   0   5    0.08    0.72
 -28   0   4   12.02    0.85
 -28   0   3    0.67    0.63
 -28   0   2  130.70    4.52
 -28   0   1    0.13    0.63
 -28   0   0  181.80    6.16
 -28   0  -1   -0.32    0.70
  28   0   2   41.34    1.64
 -28   0  -2   39.85    1.65
  28   0   3   -0.32    0.55
 -28   0  -3    0.11    0.65
  28   0   4   46.06    1.81
 -28   0  -4   46.36    1.90
  28   0   5   -0.52    0.53
 -28   0  -5   -0.16    0.65
  28   0   6   42.46    1.69
 -28   0  -6   42.89    1.77
  28   0   7    0.22    0.52
 -28   0  -7    0.54    0.61
  28   0   8   21.78    1.06
 -28   0  -8   24.30    1.19
  28   0   9   -0.01    0.51
 -28   0  -9    0.56    0.66
  28   0  10   12.70    0.82
 -28   0 -10   11.34    0.85
  28   0  11    0.07    0.54
 -28   0 -11    0.18    0.63
  28   0  12   16.13    0.93
 -28   0 -12   17.63    1.01
  28   0  13    0.13    0.57
 -28   0 -13    0.16    0.58
  28   0  14   43.97    1.73
 -28   0 -14   44.40    1.80
  28   0  15   -0.62    0.60
 -28   0 -15    0.29    0.60
  28   0  16    2.91    0.68
 -28   0 -16    2.29    0.66
  28   0  17    0.16    0.67
 -28   0 -17    0.11    0.68
  28   0  18    1.13    0.67
 -28   0 -18   -0.11    0.67
  28   0  19   -0.75    0.75
 -28   0 -19   -0.23    0.70
  28   0  20    5.79    0.88
 -28   0 -20    3.98    0.79
  28   0  21    0.43    0.88
 -28   0 -21    0.45    0.72
  28   0  22    3.93    1.02
 -28   0 -22    3.70    0.88
 -28  -2  32    0.35    0.78
 -28   2  32    1.51    0.99
 -28  -2  31   -0.47    0.80
 -28   2  31    1.06    0.85
 -28   2  31    0.84    0.84
 -28  -2  30    8.50    0.94
 -28   2  30    8.53    0.92
 -28   2  30    9.39    0.98
 -28  -2  29    2.15    0.78
 -28   2  29    2.27    0.90
 -28   2  29    2.09    0.92
 -28  -2  28    0.00    0.74
 -28   2  28   -0.91    0.85
 -28   2  28    0.82    0.93
 -28  -2  27   12.46    1.01
 -28   2  27   11.82    1.08
 -28   2  27   12.78    1.03
 -28  -2  26    8.81    0.97
 -28   2  26    8.66    0.96
 -28   2  26    9.62    1.02
 -28  -2  25    5.74    0.85
 -28   2  25    5.14    0.99
 -28   2  25    5.38    0.96
 -28  -2  24   13.25    1.07
 -28  -2  23    4.65    0.92
 -28   2  23    5.41    1.01
 -28   2  23    5.57    0.89
 -28  -2  22    8.54    0.94
 -28   2  22    8.74    1.03
 -28  -2  21   14.09    1.16
 -28   2  21   14.60    1.17
 -28  -2  20   21.62    1.35
 -28   2  20   22.59    1.36
 -28  -2  19   99.41    3.68
 -28   2  19   95.30    3.52
 -28  -2  18  138.20    4.89
 -28   2  18  131.80    4.68
 -28  -2  17   -0.46    0.87
 -28   2  17    1.22    0.95
 -28  -2  16   18.00    1.18
 -28   2  16   18.24    1.30
 -28  -2  15   86.96    3.18
 -28   2  15   87.27    3.27
 -28  -2  14   63.00    2.45
 -28   2  14   61.35    2.46
 -28  -2  13    2.59    0.89
 -28   2  13    0.08    0.86
 -28  -2  12    9.23    1.08
 -28   2  12   10.70    1.06
 -28  -2  11  127.70    4.52
 -28   2  11  120.50    4.30
 -28  -2  10    4.25    0.87
 -28   2  10    2.13    0.87
 -28  -2   9    3.93    0.93
 -28   2   9    3.72    0.87
 -28   2   8  316.90   10.56
 -28  -2   7   88.67    3.20
 -28  -2   7   79.93    2.86
 -28   2   7   77.62    2.90
 -28  -2   6   86.18    3.10
 -28   2   6   79.94    2.97
 -28  -2   5   24.60    1.21
 -28   2   5   24.14    1.27
 -28  -2   4   10.19    0.82
 -28   2   4   10.02    0.92
 -28   2   3   17.66    1.08
  28  -2  -2   54.71    2.15
 -28  -2   2   53.78    2.03
 -28   2   2   49.82    2.02
  28  -2  -1   13.10    0.96
 -28  -2   1   10.17    0.81
 -28   2   1    7.91    0.89
  28  -2   0  105.00    3.72
 -28  -2   0  116.30    3.99
 -28   2   0  111.60    3.97
  28  -2   1    5.56    0.68
 -28  -2  -1    6.33    0.65
 -28   2  -1    7.83    0.86
  28  -2   2    0.55    0.57
 -28  -2  -2    0.53    0.53
 -28   2  -2    0.32    0.68
  28  -2   3   43.07    1.75
 -28  -2  -3   45.54    1.72
 -28   2  -3   45.17    1.90
  28  -2   4   27.34    1.27
 -28  -2  -4   24.80    1.07
 -28   2  -4   25.78    1.35
  28  -2   5   -0.10    0.62
 -28  -2  -5   -0.42    0.50
 -28   2  -5   -0.20    0.76
  28  -2   6   24.83    1.22
 -28  -2  -6   23.69    1.03
 -28   2  -6   25.81    1.29
  28  -2   7   39.33    1.64
 -28  -2  -7   38.02    1.46
 -28   2  -7   39.30    1.71
  28  -2   8   13.52    0.90
 -28  -2  -8   15.37    0.78
 -28   2  -8   14.23    1.03
  28  -2   9   -0.56    0.61
 -28  -2  -9    0.44    0.47
 -28   2  -9    0.05    0.73
  28  -2  10  128.80    4.49
 -28  -2 -10  141.00    4.75
 -28   2 -10  130.70    4.55
  28  -2  11    0.97    0.63
 -28  -2 -11    0.68    0.44
 -28   2 -11    0.80    0.74
  28  -2  12    1.11    0.62
 -28  -2 -12    1.35    0.48
 -28   2 -12    0.44    0.75
  28  -2  13   26.03    1.25
 -28  -2 -13   28.76    1.15
 -28   2 -13   25.19    1.30
  28  -2  14    6.62    0.77
 -28  -2 -14    4.83    0.53
 -28   2 -14    4.96    0.83
  28  -2  15   28.81    1.35
 -28   2 -15   30.89    1.44
  28  -2  16   -0.45    0.61
 -28   2 -16   -0.76    0.72
  28  -2  17    6.89    0.79
 -28   2 -17    7.07    0.87
  28  -2  18   13.44    0.94
 -28   2 -18   13.27    0.98
  28  -2  19    1.07    0.70
 -28   2 -19    0.86    0.77
  28  -2  20    2.91    0.77
 -28   2 -20    3.88    0.79
  28  -2  21    2.38    0.78
 -28   2 -21    2.18    0.78
 -28  -4  29    4.51    0.85
 -28   4  29    4.35    0.91
 -28   4  29    1.66    1.01
 -28  -4  28    3.01    0.88
 -28   4  28    1.51    0.90
 -28   4  28    1.24    0.95
 -28  -4  27    2.09    0.77
 -28   4  27    1.80    0.95
 -28   4  27    1.64    0.93
 -28  -4  26    0.80    0.84
 -28   4  26    0.78    0.78
 -28   4  26    0.82    0.97
 -28  -4  25    1.10    0.81
 -28   4  25   -0.46    0.94
 -28  -4  24    1.52    0.88
 -28   4  24    0.86    0.99
 -28  -4  23    3.77    0.85
 -28   4  23    4.71    0.98
 -28  -4  22   33.11    1.56
 -28   4  22   35.75    1.71
 -28  -4  21   11.11    1.06
 -28   4  21   11.64    1.10
 -28  -4  20    0.41    0.81
 -28   4  20    0.34    0.96
 -28  -4  19   20.23    1.29
 -28   4  19   19.17    1.29
 -28  -4  18   20.55    1.18
 -28   4  18   17.84    1.26
 -28  -4  17   25.61    1.36
 -28   4  17   26.00    1.45
 -28  -4  16    1.25    0.83
 -28   4  16    1.43    0.91
 -28  -4  15    2.05    0.81
 -28   4  15    1.15    0.89
 -28  -4  14   29.03    1.44
 -28   4  14   27.57    1.50
 -28  -4  13   34.02    1.63
 -28   4  13   34.90    1.68
 -28  -4  12    2.46    0.81
 -28   4  12    2.54    0.94
 -28  -4  11   18.96    1.18
 -28   4  11   17.57    1.24
 -28  -4  10    4.19    0.87
 -28   4  10    5.49    0.94
 -28  -4   9    2.60    0.77
 -28   4   9    5.42    0.99
 -28  -4   8   -0.56    0.68
 -28   4   8    0.32    0.91
 -28  -4   7   25.56    1.22
 -28   4   7   25.74    1.41
  28  -4  -6   29.62    1.40
 -28  -4   6   31.72    1.41
 -28   4   6   34.41    1.61
  28  -4  -5  132.50    4.59
 -28  -4   5  146.10    4.96
 -28  -4   5  135.80    4.63
 -28   4   5  128.00    4.50
  28  -4  -4    4.86    0.71
 -28  -4   4    4.83    0.63
 -28  -4   4    4.04    0.74
 -28   4   4    4.29    0.86
  28  -4  -3    1.43    0.65
 -28  -4   3   -0.76    0.55
 -28  -4   3    0.07    0.64
 -28   4   3   -0.48    0.82
  28  -4  -2   72.59    2.71
 -28  -4   2   64.73    2.33
 -28  -4   2   69.06    2.47
 -28   4   2   69.26    2.63
  28  -4  -1    0.32    0.62
 -28  -4   1    0.87    0.47
 -28  -4   1    1.32    0.46
 -28   4   1    1.65    0.76
  28  -4   0   -0.23    0.60
 -28  -4   0    0.10    0.38
 -28  -4   0    0.78    0.38
 -28   4   0    1.57    0.77
  28  -4   1    1.03    0.68
 -28   4  -1    0.81    0.72
  28  -4   2   -0.51    0.62
 -28   4  -2    0.56    0.78
  28  -4   3    1.86    0.63
 -28   4  -3    0.25    0.71
  28  -4   4    4.78    0.71
 -28   4  -4    4.87    0.83
  28  -4   5    5.81    0.69
 -28   4  -5    6.58    0.81
  28  -4   6    1.21    0.62
 -28   4  -6    1.55    0.78
  28  -4   7   93.61    3.36
 -28   4  -7   94.88    3.41
  28  -4   8   12.71    0.89
 -28   4  -8   15.33    0.99
  28  -4   9   25.83    1.24
 -28   4  -9   27.28    1.32
  28  -4  10   18.83    1.05
 -28   4 -10   20.58    1.19
  28  -4  11    6.64    0.74
 -28   4 -11    5.89    0.78
  28  -4  12    7.79    0.78
 -28   4 -12    4.27    0.82
  28  -4  13    6.60    0.69
 -28   4 -13    5.50    0.79
  28  -4  14   28.40    1.33
 -28   4 -14   23.03    1.26
  28  -4  15    6.02    0.81
 -28   4 -15    6.12    0.93
  28  -4  16    1.30    0.70
 -28   4 -16    1.15    0.71
  28  -4  17    1.75    0.67
 -28   4 -17    1.18    0.81
  28  -4  18    2.97    0.77
 -28   4 -18    1.34    0.79
  28  -4  19   37.66    1.65
 -28   4 -19   36.32    1.64
 -28  -6  25    4.97    0.86
 -28   6  25    3.44    1.06
 -28  -6  24   15.14    1.13
 -28   6  24   14.76    1.14
 -28  -6  23    6.51    0.91
 -28   6  23    6.74    1.02
 -28  -6  22    2.60    0.78
 -28   6  22    1.05    0.90
 -28  -6  21    3.61    0.91
 -28   6  21    4.03    0.95
 -28  -6  20    9.67    1.02
 -28   6  20    8.79    1.02
 -28  -6  19   10.05    1.07
 -28   6  19    9.11    1.09
 -28  -6  18    6.86    0.98
 -28   6  18    7.11    1.03
 -28  -6  17   -0.74    0.86
 -28   6  17    0.86    0.85
 -28  -6  16   13.52    1.07
 -28   6  16   13.26    1.09
 -28  -6  15   42.58    1.84
 -28   6  15   42.56    1.86
 -28  -6  14    2.28    0.82
 -28   6  14    0.43    0.88
 -28  -6  13   17.38    1.13
 -28   6  13   18.59    1.17
 -28  -6  12   33.54    1.56
 -28   6  12   35.33    1.62
 -28  -6  11   43.04    1.81
 -28   6  11   38.29    1.72
 -28  -6  10   18.31    1.09
 -28   6  10   18.38    1.17
 -28  -6   9   16.44    1.00
 -28   6   9   15.19    1.07
 -28  -6   8   11.06    0.82
 -28   6   8   10.64    0.99
  28  -6  -7    7.67    0.80
 -28  -6   7    6.93    0.72
 -28   6   7    6.81    0.86
  28  -6  -6    0.86    0.63
 -28  -6   6    2.34    0.60
 -28   6   6    2.61    0.77
  28  -6  -5    8.24    0.76
 -28  -6   5    6.05    0.69
 -28   6   5    7.30    0.90
  28  -6  -4   64.94    2.42
 -28  -6   4   69.51    2.51
 -28  -6   4   67.87    2.40
 -28   6   4   64.16    2.44
  28  -6  -3    2.43    0.76
 -28  -6   3    2.71    0.58
 -28  -6   3    3.38    0.50
 -28   6   3    3.79    0.82
  28  -6  -2   -0.66    0.66
 -28   6   2    0.11    0.74
  28  -6  -1   23.52    1.17
 -28   6   1   21.56    1.19
  28  -6   0   16.31    0.98
 -28   6   0   15.59    1.02
  28  -6   1   18.98    1.04
 -28   6  -1   17.89    1.09
  28  -6   2   13.79    0.93
 -28   6  -2   15.99    1.03
  28  -6   3   19.34    1.05
 -28   6  -3   18.21    1.07
  28  -6   4    8.66    0.75
 -28   6  -4    9.28    0.85
  28  -6   5   12.63    0.87
 -28   6  -5   12.80    0.94
  28  -6   6    8.96    0.80
 -28   6  -6    9.58    0.84
  28  -6   7    0.59    0.59
 -28   6  -7   -0.50    0.69
  28  -6   8   21.43    1.10
 -28   6  -8   19.91    1.10
  28  -6   9    7.51    0.72
 -28   6  -9    5.82    0.83
  28  -6  10    2.31    0.66
 -28   6 -10   -0.19    0.72
  28  -6  11   17.44    0.94
 -28   6 -11   17.25    1.07
  28  -6  12   -0.89    0.57
 -28   6 -12    1.14    0.69
  28  -6  13    5.78    0.69
 -28   6 -13    6.88    0.82
  28  -6  14   22.90    1.06
 -28   6 -14   22.75    1.21
 -28  -8  16    1.73    0.94
 -28   8  16   -0.11    0.85
 -28  -8  15   -0.18    0.84
 -28   8  15   -0.28    0.82
 -28  -8  14   -0.39    0.79
 -28   8  14    0.18    0.82
 -28  -8  13    6.66    0.90
 -28   8  13    6.34    0.84
 -28  -8  12   16.67    1.14
 -28   8  12   14.86    0.98
 -28  -8  11   10.67    1.01
 -28   8  11    9.20    0.84
 -28  -8  10   34.04    1.58
 -28   8  10   35.60    1.53
 -28  -8   9    6.05    0.83
 -28   8   9    4.84    0.78
 -28  -8   8    0.33    0.73
 -28   8   8    1.42    0.75
  28  -8  -7    3.05    0.70
 -28  -8   7    3.84    0.87
 -28   8   7    3.30    0.78
  28  -8  -6    0.14    0.60
 -28  -8   6    0.75    0.82
 -28   8   6    1.57    0.71
  28  -8  -5   11.29    0.87
 -28  -8   5   12.05    0.89
 -28   8   5   10.73    0.92
  28  -8  -4   -0.36    0.68
 -28   8   4   -0.06    0.71
  28  -8  -3    2.07    0.63
 -28   8   3    0.71    0.80
  28  -8  -2    1.37    0.67
 -28   8   2    1.29    0.72
  28  -8  -1    1.18    0.61
 -28   8   1    0.33    0.75
  28  -8   0   35.09    1.52
 -28   8   0   38.60    1.62
  28  -8   1    7.84    0.73
 -28   8  -1    7.62    0.83
  28  -8   2   36.28    1.46
 -28   8  -2   38.14    1.57
  28  -8   3    1.22    0.63
 -28   8  -3    3.03    0.69
  28  -8   4    0.38    0.56
 -28   8  -4   -0.15    0.65
  28  -8   5    1.10    0.60
 -28   8  -5    0.47    0.63
 -29  -1  32   36.27    1.64
 -29   1  32   35.08    1.53
 -29  -1  31    0.47    0.77
 -29   1  31   -0.73    0.75
 -29  -1  30    0.39    0.76
 -29   1  30    1.07    0.81
 -29  -1  29    9.26    0.93
 -29   1  29    9.68    0.96
 -29  -1  28   38.37    1.68
 -29   1  28   35.73    1.58
 -29  -1  27   14.88    1.03
 -29   1  27   15.68    1.14
 -29  -1  26   25.49    1.37
 -29   1  26   26.86    1.36
 -29  -1  25    5.43    0.90
 -29   1  25    5.94    0.98
 -29  -1  24   -0.21    0.82
 -29   1  24    0.27    0.85
 -29  -1  23    1.83    0.84
 -29   1  23    0.53    0.81
 -29   1  23    0.43    0.79
 -29  -1  22    0.00    0.90
 -29   1  22    0.61    0.88
 -29   1  22   -0.80    0.88
 -29  -1  21   14.93    1.16
 -29   1  21   12.01    1.09
 -29   1  21    9.89    1.10
 -29  -1  20   44.99    1.95
 -29   1  20   54.14    2.24
 -29  -1  19   -0.06    0.93
 -29   1  19    0.37    0.91
 -29  -1  18   12.43    1.15
 -29   1  18   13.29    1.15
 -29  -1  17    5.94    1.00
 -29   1  17    7.12    1.03
 -29  -1  16   83.05    3.16
 -29   1  16   75.04    2.88
 -29  -1  15  113.50    4.10
 -29   1  15  111.90    4.01
 -29  -1  14   15.20    1.12
 -29   1  14   14.48    1.18
 -29   1  13   39.34    1.81
 -29  -1  12   87.81    3.21
 -29   1  12   83.81    3.11
 -29  -1  11   48.91    2.02
 -29   1  11   55.79    2.26
 -29  -1  10    4.21    0.90
 -29   1  10    2.20    0.76
 -29  -1   9    4.59    0.80
 -29   1   9    4.47    0.77
 -29  -1   8    6.98    0.75
 -29   1   8    6.76    0.88
 -29  -1   7    0.30    0.68
 -29   1   7    1.19    0.77
 -29  -1   6   27.50    1.32
 -29   1   6   28.20    1.37
 -29  -1   5    1.01    0.66
 -29   1   5    2.90    0.69
 -29  -1   4   71.18    2.64
 -29   1   4   71.87    2.69
 -29  -1   3   38.12    1.64
 -29   1   3   33.47    1.53
 -29  -1   2  178.50    6.06
 -29   1   2  166.40    5.71
  29  -1  -1   29.79    1.36
 -29  -1   1   29.22    1.38
 -29   1   1   30.85    1.49
  29  -1   0   51.35    2.01
 -29  -1   0   51.03    2.01
 -29   1   0   48.83    1.99
  29  -1   1    1.13    0.60
 -29  -1  -1    1.17    0.65
 -29   1  -1    0.68    0.74
  29  -1   2   -0.89    0.57
 -29  -1  -2   -0.75    0.61
 -29   1  -2    0.33    0.70
  29  -1   3   21.83    1.08
 -29  -1  -3   23.99    1.16
 -29   1  -3   21.16    1.19
  29  -1   4    4.42    0.67
 -29  -1  -4    2.92    0.64
 -29   1  -4    2.42    0.78
  29  -1   5   12.67    0.87
 -29  -1  -5   14.29    0.85
 -29   1  -5   13.46    1.00
  29  -1   6    2.98    0.65
 -29  -1  -6    2.33    0.59
 -29   1  -6    2.06    0.71
  29  -1   7    9.91    0.80
 -29  -1  -7    7.61    0.71
 -29   1  -7    8.15    0.82
  29  -1   8    1.05    0.59
 -29  -1  -8    1.71    0.59
  29   1   8    0.38    0.49
 -29   1  -8   -0.13    0.69
  29  -1   9   13.80    0.88
 -29  -1  -9   13.19    0.81
  29   1   9   12.75    0.77
 -29   1  -9   13.81    0.96
  29   1  10   13.22    0.80
 -29   1 -10   15.15    0.98
  29  -1  11  155.00    5.30
 -29  -1 -11  149.00    5.05
  29   1  11  148.00    5.02
 -29   1 -11  154.50    5.29
  29  -1  12    1.22    0.61
 -29  -1 -12    1.47    0.60
  29   1  12    2.50    0.58
 -29   1 -12    3.10    0.71
  29  -1  13   18.24    1.01
 -29  -1 -13   18.25    0.97
  29   1  13   18.20    0.94
 -29   1 -13   16.46    1.05
  29  -1  14    9.03    0.83
 -29  -1 -14    9.29    0.74
  29   1  14    9.78    0.74
 -29   1 -14    8.45    0.84
  29  -1  15   -0.58    0.60
 -29  -1 -15   -0.06    0.59
  29   1  15    0.79    0.68
 -29   1 -15   -0.56    0.69
  29  -1  16   15.01    0.96
 -29  -1 -16   17.96    1.04
  29   1  16   18.90    1.08
 -29   1 -16   15.10    1.02
  29  -1  17   11.82    0.91
 -29  -1 -17   12.67    1.00
  29   1  17   12.37    1.00
 -29   1 -17   10.74    0.98
  29  -1  18    7.48    0.83
 -29  -1 -18    5.92    0.88
  29   1  18    5.34    0.92
 -29   1 -18    5.58    0.80
  29  -1  19   12.48    0.92
 -29  -1 -19   12.99    1.10
  29   1  19   11.03    1.12
 -29   1 -19    9.54    0.95
  29  -1  20    0.80    0.73
 -29  -1 -20    0.50    0.90
  29   1  20    0.80    1.01
 -29   1 -20    0.45    0.79
  29  -1  21    2.50    0.81
  29   1  21    1.30    1.20
 -29   1 -21    1.24    0.82
 -29  -3  30   47.47    1.90
 -29   3  30   50.26    2.07
 -29   3  30   49.64    2.01
 -29  -3  29    0.88    0.84
 -29   3  29    2.82    0.94
 -29   3  29    0.80    0.93
 -29  -3  28    0.49    0.76
 -29   3  28    0.44    0.90
 -29   3  28    1.38    0.94
 -29  -3  27    0.91    0.83
 -29   3  27   -0.07    0.94
 -29   3  27    0.36    0.96
 -29  -3  26    8.48    0.95
 -29   3  26    9.20    1.07
 -29   3  26    7.63    1.03
 -29  -3  25    1.95    0.86
 -29   3  25    1.41    0.88
 -29   3  25    3.46    0.97
 -29  -3  24    1.07    0.81
 -29   3  24    0.95    0.94
 -29  -3  23   22.01    1.32
 -29   3  23   24.33    1.38
 -29  -3  22   47.39    2.04
 -29   3  22   49.14    2.10
 -29  -3  21    7.53    0.92
 -29   3  21    6.88    0.99
 -29  -3  20   57.44    2.28
 -29   3  20   60.77    2.43
 -29  -3  19    2.02    0.86
 -29   3  19    2.70    0.95
 -29  -3  18   23.03    1.36
 -29   3  18   24.03    1.40
 -29  -3  17    0.09    0.87
 -29   3  17    0.34    0.91
 -29  -3  16    2.87    0.91
 -29   3  16    4.25    0.98
 -29  -3  15    0.23    0.88
 -29   3  15   -0.39    0.87
 -29  -3  14    7.22    0.94
 -29   3  14    9.16    1.05
 -29  -3  13    3.15    0.86
 -29   3  13    2.75    0.98
 -29  -3  12    5.26    0.89
 -29   3  12    6.67    1.02
 -29  -3  11   21.73    1.24
 -29   3  11   20.36    1.31
 -29  -3  10   16.11    1.10
 -29   3  10   19.77    1.28
 -29  -3   9   41.20    1.78
 -29   3   9   40.07    1.82
 -29  -3   8  191.10    6.54
 -29   3   8  187.80    6.43
 -29  -3   7   17.60    1.16
 -29  -3   7   17.95    1.08
 -29   3   7   17.24    1.13
 -29  -3   6    4.79    0.83
 -29  -3   6    5.57    0.80
 -29   3   6    4.34    0.91
  29  -3  -5    1.55    0.66
 -29  -3   5    3.01    0.74
 -29  -3   5    2.12    0.77
 -29   3   5    2.57    0.86
 -29  -3   4   41.79    1.72
 -29  -3   4   41.79    1.68
 -29   3   4   40.86    1.80
  29  -3  -3    0.96    0.66
 -29  -3   3    0.89    0.61
 -29  -3   3    0.21    0.61
 -29   3   3    1.03    0.84
  29  -3  -2    3.37    0.68
 -29  -3   2    3.37    0.72
 -29  -3   2    1.23    0.60
 -29   3   2    2.34    0.81
  29  -3  -1    8.73    0.81
 -29  -3   1    7.02    0.73
 -29   3   1    7.56    0.93
  29  -3   0    5.86    0.72
 -29  -3   0    5.53    0.58
 -29  -3   0    5.01    0.56
 -29   3   0    5.91    0.88
  29  -3   1    0.29    0.58
 -29  -3  -1    0.18    0.48
 -29  -3  -1    0.90    0.47
 -29   3  -1    0.98    0.73
  29  -3   2    3.18    0.69
 -29  -3  -2    2.11    0.44
 -29  -3  -2    3.56    0.47
 -29   3  -2    2.94    0.76
  29  -3   3   26.36    1.28
 -29  -3  -3   24.23    0.96
 -29  -3  -3   23.28    0.92
 -29   3  -3   25.93    1.36
  29  -3   4  110.40    3.90
 -29   3  -4  104.50    3.72
  29  -3   5   52.77    2.07
 -29   3  -5   52.89    2.10
  29  -3   6   29.94    1.35
 -29   3  -6   30.92    1.46
  29  -3   7   11.88    0.89
 -29   3  -7   11.37    0.92
  29  -3   8    4.46    0.73
 -29   3  -8    5.90    0.87
  29  -3   9    0.61    0.61
 -29   3  -9    0.79    0.74
  29  -3  10    2.96    0.70
 -29   3 -10    0.89    0.75
  29  -3  11    0.46    0.61
 -29   3 -11   -0.28    0.67
  29  -3  12    7.21    0.77
 -29   3 -12    6.03    0.85
  29  -3  13   10.07    0.82
 -29   3 -13   10.20    0.93
  29  -3  14    2.95    0.62
 -29   3 -14    3.64    0.71
  29  -3  15    8.46    0.78
 -29   3 -15    7.73    0.91
  29  -3  16   44.48    1.78
 -29   3 -16   42.54    1.81
  29  -3  17   20.48    1.12
 -29   3 -17   18.37    1.16
  29  -3  18    5.59    0.80
 -29   3 -18    6.15    0.90
  29  -3  19   24.70    1.26
 -29   3 -19   23.40    1.25
 -29  -5  27    2.36    0.78
 -29   5  27    2.48    1.01
 -29  -5  26    2.23    0.84
 -29   5  26    0.82    0.99
 -29  -5  25   18.78    1.14
 -29   5  25   18.12    1.25
 -29  -5  24    6.39    0.92
 -29   5  24    5.19    1.01
 -29  -5  23   31.97    1.51
 -29   5  23   31.78    1.58
 -29  -5  22    8.78    1.00
 -29   5  22   10.89    1.11
 -29  -5  21    8.19    0.93
 -29   5  21    6.41    1.05
 -29  -5  20   20.85    1.25
 -29   5  20   21.05    1.31
 -29  -5  19    6.88    0.87
 -29   5  19    8.59    1.01
 -29  -5  18    3.94    0.88
 -29   5  18    6.99    0.99
 -29  -5  17   14.92    1.04
 -29   5  17   16.11    1.15
 -29  -5  16   -0.27    0.81
 -29   5  16    0.75    0.88
 -29  -5  15   10.99    0.94
 -29   5  15   12.66    1.07
 -29  -5  14   11.62    0.98
 -29   5  14   10.67    1.07
 -29  -5  13    3.16    0.85
 -29   5  13    2.96    0.91
 -29  -5  12    0.71    0.76
 -29   5  12    0.38    0.82
 -29  -5  11   52.03    2.09
 -29   5  11   53.04    2.18
 -29  -5  10   11.14    0.97
 -29   5  10   10.24    1.02
 -29  -5   9    1.01    0.72
 -29   5   9    1.95    0.81
 -29  -5   8    9.35    0.84
 -29   5   8    8.97    1.01
  29  -5  -7   28.95    1.36
 -29  -5   7   28.21    1.29
 -29   5   7   29.88    1.49
 -29   5   6    6.01    0.92
  29  -5  -5   41.69    1.76
 -29  -5   5   48.23    1.92
 -29  -5   5   41.76    1.65
 -29   5   5   41.06    1.81
  29  -5  -4   42.99    1.79
 -29  -5   4   40.37    1.60
 -29  -5   4   41.40    1.64
 -29   5   4   42.70    1.84
  29  -5  -3   11.15    0.85
 -29  -5   3   10.03    0.66
 -29  -5   3    9.13    0.73
 -29   5   3   10.38    0.93
  29  -5  -2   64.03    2.39
 -29  -5   2   66.98    2.33
 -29  -5   2   62.00    2.21
 -29   5   2   61.77    2.37
  29  -5  -1    3.94    0.68
 -29   5   1    4.43    0.80
  29  -5   0    1.96    0.63
 -29   5   0    1.67    0.73
  29  -5   1   35.57    1.53
 -29   5  -1   36.73    1.59
  29  -5   2    4.01    0.63
 -29   5  -2    3.70    0.76
  29  -5   3    6.25    0.69
 -29   5  -3    5.01    0.82
  29  -5   4    0.62    0.63
 -29   5  -4    0.66    0.76
  29  -5   5    1.33    0.60
 -29   5  -5    1.50    0.76
  29  -5   6    2.59    0.60
 -29   5  -6    2.17    0.70
  29  -5   7   18.31    1.02
 -29   5  -7   14.86    1.00
  29  -5   8   -0.80    0.59
 -29   5  -8    0.32    0.70
  29  -5   9    3.56    0.65
 -29   5  -9    3.44    0.78
  29  -5  10   45.93    1.83
 -29   5 -10   49.88    1.97
  29  -5  11   -0.82    0.59
 -29   5 -11   -0.53    0.67
  29  -5  12    9.26    0.83
 -29   5 -12    8.99    0.89
  29  -5  13   12.21    0.89
 -29   5 -13   10.36    0.90
  29  -5  14    4.51    0.69
 -29   5 -14    6.02    0.84
  29  -5  15    5.40    0.78
 -29   5 -15    4.86    0.76
  29  -5  16    6.96    0.71
 -29   5 -16    7.65    0.85
 -29  -7  21    6.92    0.89
 -29   7  21    3.06    1.04
 -29  -7  20    0.88    0.74
 -29   7  20    0.50    0.89
 -29  -7  19    3.39    0.85
 -29   7  19    3.14    0.91
 -29  -7  18   -0.15    0.83
 -29   7  18   -0.64    0.84
 -29  -7  17   11.95    1.02
 -29   7  17   12.55    1.05
 -29  -7  16    3.46    0.85
 -29   7  16    3.53    0.88
 -29  -7  15   69.09    2.63
 -29   7  15   62.73    2.43
 -29  -7  14    4.19    0.89
 -29   7  14    3.68    0.87
 -29  -7  13    6.74    0.91
 -29   7  13    6.07    0.90
 -29  -7  12    0.40    0.77
 -29   7  12   -0.37    0.86
 -29  -7  11    1.22    0.81
 -29   7  11    3.55    0.84
 -29  -7  10   -0.89    0.77
 -29   7  10    0.15    0.75
 -29  -7   9   16.28    1.03
 -29   7   9   16.34    1.05
 -29  -7   8    1.17    0.66
 -29   7   8    1.19    0.73
  29  -7  -7    2.24    0.64
 -29  -7   7    2.33    0.64
 -29   7   7    2.47    0.72
  29  -7  -6   14.12    0.88
 -29  -7   6   13.21    0.91
 -29   7   6   12.09    0.93
  29  -7  -5    5.52    0.72
 -29  -7   5    5.26    0.69
 -29   7   5    6.96    0.88
  29  -7  -4    6.03    0.74
 -29  -7   4    7.12    0.82
 -29  -7   4    7.62    0.63
 -29   7   4    6.73    0.84
  29  -7  -3   26.32    1.25
 -29   7   3   24.55    1.26
  29  -7  -2    8.65    0.74
 -29   7   2    9.14    0.92
  29  -7  -1   29.40    1.30
 -29   7   1   31.56    1.47
  29  -7   0    0.68    0.63
 -29   7   0    0.68    0.71
  29  -7   1    9.04    0.81
 -29   7  -1    8.93    0.82
  29  -7   2    0.25    0.56
 -29   7  -2   -0.22    0.75
  29  -7   3    1.21    0.60
 -29   7  -3    3.17    0.74
  29  -7   4    4.50    0.63
 -29   7  -4    4.93    0.73
  29  -7   5    0.52    0.62
 -29   7  -5   -0.03    0.67
  29  -7   6    2.27    0.64
 -29   7  -6    1.92    0.68
  29  -7   7    1.36    0.62
 -29   7  -7    0.43    0.65
  29  -7   8    0.35    0.60
 -29   7  -8   -0.38    0.76
  29  -7   9    4.57    0.62
 -29   7  -9    5.53    0.76
  29  -7  10    1.95    0.67
 -30   0  32    9.52    0.86
 -30   0  31   -0.12    0.83
 -30   0  30   14.43    1.03
 -30   0  29   -1.23    0.77
 -30   0  28    2.98    0.84
 -30   0  27   -0.11    0.80
 -30   0  26   -1.23    0.83
 -30   0  25   -0.09    0.80
 -30   0  24    0.45    0.90
 -30   0  23   -0.50    0.88
 -30   0  22    3.33    0.90
 -30   0  21   -0.14    0.88
 -30   0  20   82.26    3.12
 -30   0  19   -0.63    0.86
 -30   0  18   40.06    1.80
 -30   0  17    0.11    0.80
 -30   0  16    0.32    0.87
 -30   0  15   -0.73    0.89
 -30   0  14  176.50    6.07
 -30   0  13    0.31    0.87
 -30   0  12   91.79    3.38
 -30   0  11    0.30    0.87
 -30   0  10   52.21    2.14
 -30   0   9    0.56    0.75
 -30   0   8   56.32    2.22
 -30   0   7    1.27    0.70
 -30   0   6    3.20    0.85
 -30   0   5    0.05    0.77
 -30   0   4  200.50    6.77
 -30   0   3    0.67    0.76
 -30   0   2   58.98    2.31
 -30   0   1    0.33    0.72
 -30   0   0   46.90    1.89
 -30   0  -1   -0.84    0.67
 -30   0  -2   75.38    2.77
  30   0   3   -0.51    0.53
 -30   0  -3   -0.96    0.70
  30   0   4   97.52    3.45
 -30   0  -4   99.35    3.54
  30   0   5   -0.23    0.57
 -30   0  -5   -0.26    0.61
  30   0   6  121.60    4.20
 -30   0  -6  130.30    4.50
  30   0   7   -0.48    0.53
 -30   0  -7    0.62    0.64
  30   0   8   49.60    1.93
 -30   0  -8   52.04    2.04
  30   0  10   18.52    1.01
 -30   0 -10   20.48    1.11
  30   0  11    0.09    0.56
 -30   0 -11    0.85    0.68
  30   0  12    2.06    0.62
 -30   0 -12    1.93    0.72
  30   0  13   -0.09    0.57
 -30   0 -13   -0.32    0.60
  30   0  14    1.04    0.58
 -30   0 -14    1.62    0.66
  30   0  15    0.29    0.66
 -30   0 -15   -1.58    0.68
  30   0  16    1.35    0.68
 -30   0 -16    1.15    0.71
  30   0  17    0.21    0.73
 -30   0 -17    0.45    0.71
  30   0  18   -1.33    0.79
 -30   0 -18   -0.70    0.76
  30   0  19   -0.05    0.80
 -30   0 -19    0.82    0.73
  30   0  20   15.62    1.18
 -30   0 -20   14.41    1.03
 -30  -2  31   13.31    0.95
 -30   2  31   11.81    1.06
 -30   2  31   11.38    1.05
 -30  -2  30    1.01    0.80
 -30   2  30    2.37    0.80
 -30   2  30    2.52    0.86
 -30  -2  29    1.14    0.82
 -30   2  29    0.70    0.88
 -30   2  29    0.87    0.86
 -30  -2  28   11.88    0.88
 -30   2  28   14.14    1.15
 -30   2  28   10.84    1.01
 -30  -2  27    0.60    0.81
 -30   2  27    2.28    0.87
 -30   2  27    0.67    0.89
 -30  -2  26   23.05    1.23
 -30   2  26   22.63    1.28
 -30   2  26   23.11    1.30
 -30  -2  25   11.08    1.02
 -30   2  25   11.50    1.06
 -30   2  25   11.94    1.07
 -30  -2  24    6.88    0.98
 -30   2  24    7.11    0.97
 -30   2  24    6.66    0.91
 -30  -2  23    2.95    0.85
 -30   2  23    1.78    0.92
 -30  -2  22   11.29    1.08
 -30   2  22   11.72    1.13
 -30  -2  21    5.13    1.01
 -30   2  21    5.09    0.96
 -30  -2  20   26.98    1.55
 -30   2  20   26.64    1.42
 -30  -2  19   47.98    2.03
 -30   2  19   48.39    2.08
 -30  -2  18   16.97    1.21
 -30   2  18   14.22    1.17
 -30  -2  17   15.11    1.10
 -30   2  17   17.07    1.24
 -30  -2  16   12.20    1.07
 -30   2  16   12.14    1.12
 -30  -2  15    0.84    0.92
 -30   2  15    1.21    0.92
 -30  -2  14  277.80    9.36
 -30   2  14  264.40    8.90
 -30  -2  13   44.28    1.96
 -30   2  13   43.70    1.95
 -30  -2  12   19.56    1.26
 -30   2  12   17.56    1.23
 -30  -2  11    8.50    1.06
 -30   2  11    8.92    1.03
 -30  -2  10  111.10    3.93
 -30  -2  10  118.90    4.18
 -30   2  10  113.80    4.10
 -30  -2   9   84.04    3.03
 -30  -2   9   83.94    3.13
 -30   2   9   76.49    2.90
 -30  -2   8    1.08    0.79
 -30  -2   8    0.60    0.80
 -30   2   8   -0.31    0.81
 -30  -2   7   38.38    1.68
 -30   2   7   37.32    1.73
 -30  -2   6  108.90    3.85
 -30   2   6  110.30    3.97
 -30  -2   5   22.94    1.27
 -30   2   5   24.50    1.36
 -30  -2   4   24.77    1.27
 -30   2   4   26.32    1.39
  30  -2  -3   59.49    2.27
 -30  -2   3   58.48    2.24
 -30   2   3   63.19    2.48
  30  -2  -2    0.94    0.68
 -30  -2   2    1.30    0.74
 -30   2   2    1.22    0.81
  30  -2  -1   20.54    1.10
 -30  -2   1   19.90    1.08
 -30   2   1   20.14    1.21
  30  -2   0   11.55    0.86
 -30  -2   0   10.72    0.77
 -30   2   0   10.14    0.93
  30  -2   1   30.80    1.40
 -30  -2  -1   33.08    1.41
 -30   2  -1   31.22    1.45
  30  -2   2  250.70    8.41
 -30  -2  -2  253.40    8.43
 -30   2  -2  255.50    8.55
  30  -2   3    1.32    0.67
 -30  -2  -3   -0.65    0.53
 -30   2  -3   -0.51    0.68
  30  -2   4   34.08    1.50
 -30  -2  -4   33.08    1.34
 -30   2  -4   34.01    1.52
  30  -2   5   13.89    0.92
 -30  -2  -5   11.14    0.75
 -30   2  -5   14.36    1.06
  30  -2   6   18.21    1.04
 -30  -2  -6   17.21    0.87
 -30   2  -6   17.27    1.11
  30  -2   7   19.64    1.06
 -30  -2  -7   18.62    0.92
 -30   2  -7   16.31    1.08
  30  -2   8   39.67    1.66
 -30  -2  -8   39.77    1.53
 -30   2  -8   41.37    1.76
  30  -2   9  138.10    4.79
 -30  -2  -9  143.90    4.84
 -30   2  -9  137.60    4.78
  30  -2  10    6.83    0.77
 -30  -2 -10    7.12    0.58
 -30   2 -10    7.20    0.90
  30  -2  11    6.78    0.77
 -30  -2 -11    5.86    0.56
 -30   2 -11    6.11    0.85
  30  -2  12    1.00    0.68
 -30  -2 -12    1.83    0.53
 -30   2 -12    3.10    0.79
  30  -2  13    4.47    0.74
 -30  -2 -13    5.58    0.57
 -30   2 -13    7.25    0.87
  30  -2  14   10.84    0.80
 -30  -2 -14   10.92    0.64
 -30   2 -14    8.97    0.90
  30  -2  15    0.98    0.66
 -30   2 -15    1.44    0.78
  30  -2  16   15.07    0.98
 -30   2 -16   15.27    1.06
  30  -2  17    0.13    0.69
 -30   2 -17   -0.41    0.78
  30  -2  18    0.99    0.63
 -30   2 -18    1.35    0.80
  30  -2  19   11.19    0.93
 -30   2 -19    9.35    0.96
 -30   2 -20    0.60    0.80
 -30  -4  29    1.51    0.82
 -30   4  29    1.14    0.96
 -30  -4  28    2.83    0.88
 -30   4  28    1.92    0.92
 -30   4  28    1.80    0.95
 -30  -4  27    4.85    0.86
 -30   4  27    4.82    0.95
 -30   4  27    3.61    0.93
 -30  -4  26    5.53    0.91
 -30   4  26    4.36    0.98
 -30  -4  25   20.08    1.23
 -30   4  25   15.89    1.21
 -30  -4  24    1.85    0.83
 -30   4  24    2.83    0.97
 -30  -4  23   23.58    1.38
 -30   4  23   27.05    1.47
 -30  -4  22    0.71    0.89
 -30   4  22    1.04    0.91
 -30  -4  21   12.37    1.06
 -30   4  21   12.22    1.09
 -30  -4  20   43.72    1.86
 -30   4  20   47.63    2.01
 -30  -4  19    5.94    0.90
 -30   4  19    4.84    0.98
 -30  -4  18    0.35    0.90
 -30   4  18    1.41    0.91
 -30  -4  17    6.82    0.97
 -30   4  17    5.02    0.97
 -30  -4  16    1.99    0.88
 -30   4  16    2.38    0.91
 -30  -4  15    0.61    0.86
 -30   4  15    0.89    0.90
 -30  -4  14   13.64    1.10
 -30   4  14   13.05    1.11
 -30  -4  13    4.20    0.90
 -30   4  13    6.43    0.95
 -30  -4  12   -0.19    0.78
 -30   4  12   -1.63    0.88
 -30  -4  11  163.80    5.58
 -30   4  11  165.80    5.72
 -30  -4  10   26.83    1.32
 -30   4  10   26.69    1.48
 -30  -4   9    9.85    0.92
 -30   4   9    9.80    1.02
 -30  -4   8    0.83    0.75
 -30   4   8   -0.46    0.86
 -30  -4   7   56.48    2.26
 -30  -4   7   53.58    2.11
 -30   4   7   56.60    2.28
  30  -4  -6   15.12    0.94
 -30  -4   6   14.09    0.93
 -30  -4   6   12.69    0.94
 -30   4   6   13.50    1.05
  30  -4  -5    8.22    0.83
 -30  -4   5    8.05    0.87
 -30  -4   5    8.53    0.85
 -30   4   5    8.77    1.01
  30  -4  -4   11.18    0.88
 -30  -4   4   11.45    0.84
 -30  -4   4   10.77    0.88
 -30   4   4    9.27    0.96
  30  -4  -3   40.85    1.69
 -30  -4   3   40.29    1.57
 -30   4   3   43.22    1.86
  30  -4  -2    0.03    0.64
 -30  -4   2    0.30    0.48
 -30  -4   2    1.15    0.58
 -30   4   2    1.23    0.77
  30  -4  -1   43.09    1.73
 -30  -4   1   37.98    1.44
 -30  -4   1   41.16    1.53
 -30   4   1   38.94    1.70
  30  -4   0    1.11    0.62
 -30  -4   0    1.62    0.43
 -30  -4   0    1.43    0.40
 -30   4   0    2.78    0.77
  30  -4   1  124.30    4.34
 -30   4  -1  124.30    4.36
  30  -4   2   22.37    1.14
 -30   4  -2   23.10    1.22
  30  -4   3   12.57    0.87
 -30   4  -3   11.42    0.93
  30  -4   4    0.59    0.60
 -30   4  -4    0.90    0.72
  30  -4   5    2.34    0.68
 -30   4  -5    1.63    0.76
  30  -4   6    1.56    0.66
 -30   4  -6    1.21    0.69
  30  -4   7    4.73    0.65
 -30   4  -7    5.39    0.78
  30  -4   8    9.62    0.78
 -30   4  -8   11.51    0.90
  30  -4   9    0.51    0.58
 -30   4  -9    0.12    0.76
  30  -4  10    3.41    0.64
 -30   4 -10    4.49    0.76
  30  -4  11    0.50    0.56
 -30   4 -11    0.86    0.82
  30  -4  12   -0.25    0.62
 -30   4 -12   -0.98    0.79
  30  -4  13   35.11    1.54
 -30   4 -13   35.60    1.59
  30  -4  14   11.94    0.86
 -30   4 -14   12.93    1.01
  30  -4  15   14.56    0.95
 -30   4 -15   14.89    0.97
  30  -4  16    0.38    0.64
 -30   4 -16    0.74    0.83
  30  -4  17    7.55    0.82
 -30   4 -17    5.70    0.88
 -30  -6  24    5.87    0.91
 -30   6  24    6.59    1.01
 -30  -6  23    7.86    1.02
 -30   6  23    9.05    1.00
 -30  -6  22    5.60    0.86
 -30   6  22    5.38    0.95
 -30  -6  21    7.35    0.91
 -30   6  21    7.34    1.04
 -30  -6  20    4.25    0.93
 -30   6  20    4.00    0.97
 -30  -6  19   15.40    1.15
 -30   6  19   18.28    1.20
 -30  -6  18    6.93    0.99
 -30   6  18    7.92    0.99
 -30  -6  17   44.27    1.91
 -30   6  17   43.77    1.86
 -30  -6  16   27.22    1.41
 -30   6  16   24.63    1.36
 -30  -6  15    1.75    0.83
 -30   6  15    3.58    0.87
 -30  -6  14    3.85    0.88
 -30   6  14    3.23    0.83
 -30  -6  13    1.90    0.86
 -30   6  13    2.00    0.85
 -30  -6  12   57.87    2.26
 -30   6  12   56.37    2.20
 -30  -6  11    0.52    0.75
 -30   6  11    0.67    0.79
 -30  -6  10   25.51    1.28
 -30   6  10   24.37    1.30
 -30  -6   9    0.15    0.71
 -30   6   9    0.12    0.83
 -30  -6   8    6.62    0.79
 -30   6   8    7.52    0.89
  30  -6  -7   46.87    1.87
 -30  -6   7   43.98    1.75
 -30   6   7   41.02    1.76
  30  -6  -6    3.81    0.72
 -30  -6   6    5.79    0.64
 -30   6   6    7.11    0.87
  30  -6  -5    0.39    0.66
 -30  -6   5    3.05    0.76
 -30  -6   5    1.14    0.58
 -30   6   5    1.84    0.74
  30  -6  -4   51.90    2.02
 -30  -6   4   56.01    2.01
 -30  -6   4   55.98    2.12
 -30   6   4   53.20    2.09
  30  -6  -3   52.38    2.01
 -30  -6   3   55.09    1.95
 -30  -6   3   51.52    1.89
 -30   6   3   51.40    2.03
  30  -6  -2    0.43    0.57
 -30   6   2    0.11    0.78
  30  -6  -1    2.88    0.67
 -30   6   1    2.34    0.73
  30  -6   0   26.29    1.25
 -30   6   0   26.02    1.30
  30  -6   1   15.96    0.96
 -30   6  -1   17.27    1.09
  30  -6   2    1.16    0.66
 -30   6  -2    1.73    0.76
  30  -6   3   -0.08    0.60
 -30   6  -3    0.72    0.75
  30  -6   4    2.65    0.67
 -30   6  -4    4.34    0.83
  30  -6   5   15.45    0.94
 -30   6  -5   14.73    1.02
  30  -6   6    2.64    0.68
 -30   6  -6    0.66    0.78
  30  -6   7    2.41    0.64
 -30   6  -7    1.80    0.76
  30  -6   8   55.75    2.13
 -30   6  -8   52.75    2.06
  30  -6   9   25.40    1.20
 -30   6  -9   23.05    1.24
  30  -6  10    1.10    0.61
 -30   6 -10    0.14    0.70
  30  -6  11    2.71    0.63
 -30   6 -11    1.44    0.75
  30  -6  12    2.50    0.63
 -30   6 -12    1.45    0.77
 -30  -8  14    0.71    0.97
 -30  -8  13    3.17    0.91
 -30   8  13    5.58    0.83
 -30  -8  12    0.45    0.89
 -30   8  12    1.54    0.73
 -30  -8  11   -1.65    0.87
 -30   8  11   -0.27    0.71
 -30  -8  10    5.37    0.90
 -30   8  10    7.72    0.83
 -30  -8   9    0.91    0.78
 -30   8   9    0.58    0.69
 -30  -8   8    0.17    0.93
 -30   8   8   -0.28    0.77
  30  -8  -7   13.94    0.85
 -30  -8   7   12.34    1.06
 -30   8   7   15.65    1.06
  30  -8  -6   76.21    2.70
 -30  -8   6   75.45    2.77
 -30   8   6   70.76    2.61
  30  -8  -5    0.46    0.55
 -30  -8   5    0.06    0.69
 -30  -8   5    1.58    0.73
 -30   8   5    0.14    0.72
  30  -8  -4    7.78    0.70
 -30   8   4    8.53    0.85
  30  -8  -3   -0.26    0.60
 -30   8   3   -0.05    0.72
  30  -8  -2   -0.63    0.67
 -30   8   2   -0.45    0.68
  30  -8  -1   11.03    0.78
 -30   8   1   10.60    0.88
  30  -8   0    0.16    0.62
 -30   8   0   -0.29    0.66
  30  -8   1    5.59    0.69
 -30   8  -1    5.33    0.74
  30  -8   2    4.23    0.66
 -30   8  -2    4.30    0.83
 -31  -1  31    2.44    0.78
 -31   1  31    1.89    0.75
 -31   1  31    1.86    0.85
 -31  -1  30    0.22    0.72
 -31   1  30    0.68    0.67
 -31   1  30   -0.11    0.76
 -31  -1  29    9.42    0.91
 -31   1  29    8.99    0.89
 -31   1  29   11.76    0.90
 -31  -1  28   13.04    1.04
 -31   1  28   14.29    1.08
 -31   1  28   13.35    1.05
 -31  -1  27    6.95    0.83
 -31   1  27    4.13    0.90
 -31   1  27    4.95    0.94
 -31  -1  26    1.94    0.83
 -31   1  26    2.06    0.90
 -31   1  26    3.33    0.86
 -31  -1  25   -0.71    0.74
 -31   1  25   -0.63    0.83
 -31   1  25   -1.29    0.87
 -31  -1  24    3.35    0.86
 -31   1  24    2.70    0.84
 -31   1  24    2.31    0.90
 -31  -1  23    1.06    0.89
 -31   1  23   -0.24    0.93
 -31   1  23    0.73    0.84
 -31  -1  22  126.30    4.46
 -31  -1  21   67.69    2.59
 -31   1  21   72.23    2.73
 -31   1  21   67.55    2.62
 -31  -1  20   15.32    1.19
 -31   1  20   14.88    1.11
 -31  -1  19    0.29    0.93
 -31   1  19    0.89    0.92
 -31  -1  18   10.25    1.14
 -31   1  18   12.75    1.13
 -31  -1  17   64.44    2.59
 -31   1  17   57.54    2.35
 -31  -1  16   41.12    1.81
 -31   1  16   43.33    1.93
 -31  -1  15    7.71    0.99
 -31   1  15    7.32    1.03
 -31  -1  14   38.65    1.72
 -31  -1  14   40.23    1.79
 -31   1  14   39.16    1.79
 -31  -1  13    1.42    0.89
 -31   1  13    0.36    0.90
 -31  -1  12   47.28    1.97
 -31   1  12   44.19    1.93
 -31  -1  11   11.01    1.02
 -31   1  11    9.04    1.01
 -31  -1  10   37.95    1.77
 -31   1  10   38.91    1.80
 -31  -1   9    0.29    0.85
 -31   1   9   -0.59    0.87
 -31  -1   8   79.03    2.92
 -31   1   8   80.05    3.02
 -31  -1   7   23.69    1.29
 -31   1   7   21.64    1.30
 -31  -1   6   14.41    1.13
 -31   1   6   16.04    1.13
 -31  -1   5    9.50    0.95
 -31   1   5    8.50    0.93
 -31  -1   4    4.50    0.84
 -31   1   4    5.38    0.88
 -31  -1   3   94.80    3.41
 -31   1   3   94.22    3.45
 -31  -1   2   12.99    0.98
 -31   1   2   13.78    1.14
 -31  -1   1   31.71    1.45
 -31   1   1   36.96    1.66
  31  -1   0   93.50    3.35
 -31  -1   0   92.47    3.29
 -31   1   0   97.30    3.49
  31  -1   1    3.75    0.72
 -31  -1  -1    3.76    0.72
 -31   1  -1    2.17    0.73
  31  -1   2   13.16    0.92
 -31  -1  -2   13.29    0.95
 -31   1  -2   13.43    0.99
  31  -1   3   44.34    1.79
 -31  -1  -3   45.88    1.83
 -31   1  -3   47.12    1.94
  31  -1   4   19.02    1.06
 -31  -1  -4   20.64    1.04
 -31   1  -4   20.32    1.17
  31  -1   5   96.75    3.46
 -31  -1  -5  100.00    3.51
 -31   1  -5  100.10    3.57
  31  -1   6    5.92    0.71
 -31  -1  -6    6.97    0.76
 -31   1  -6    6.19    0.78
  31  -1   7   50.44    1.99
 -31  -1  -7   51.51    1.96
 -31   1  -7   47.46    1.91
  31  -1   8   72.71    2.66
 -31  -1  -8   80.25    2.87
 -31   1  -8   79.22    2.90
  31  -1   9   16.56    0.98
 -31  -1  -9   17.92    1.00
 -31   1  -9   17.14    1.03
  31  -1  10    7.15    0.71
 -31  -1 -10    6.51    0.75
  31   1  10    6.29    0.63
 -31   1 -10    6.53    0.79
  31  -1  11   64.71    2.43
 -31  -1 -11   61.04    2.25
  31   1  11   58.45    2.17
 -31   1 -11   61.27    2.36
  31  -1  12    1.68    0.64
 -31  -1 -12    1.01    0.62
  31   1  12    0.15    0.59
 -31   1 -12    0.28    0.71
  31  -1  13    5.03    0.71
 -31  -1 -13    3.76    0.68
  31   1  13    3.75    0.73
 -31   1 -13    4.33    0.77
  31  -1  14   10.78    0.82
 -31  -1 -14    9.47    0.85
  31   1  14    9.52    0.85
 -31   1 -14    9.70    0.90
  31  -1  15   24.80    1.20
 -31  -1 -15   24.19    1.22
  31   1  15   24.38    1.26
 -31   1 -15   23.53    1.29
  31  -1  16    4.72    0.75
 -31  -1 -16    4.12    0.82
  31   1  16    4.06    0.90
 -31   1 -16    4.73    0.90
  31  -1  17   15.73    1.03
 -31  -1 -17   16.13    1.11
  31   1  17   14.74    1.10
 -31   1 -17   13.63    1.11
  31  -1  18   29.56    1.40
 -31  -1 -18   32.52    1.53
  31   1  18   32.91    1.68
 -31   1 -18   29.12    1.52
  31  -1  19   24.32    1.26
 -31  -1 -19   22.16    1.34
  31   1  19   24.23    1.54
 -31   1 -19   21.67    1.32
 -31  -3  30   -0.45    0.72
 -31   3  30    0.11    0.86
 -31   3  30    0.88    1.04
 -31  -3  29   12.71    1.00
 -31   3  29   11.55    1.10
 -31   3  29    9.99    0.99
 -31  -3  28   43.05    1.80
 -31   3  28   44.73    1.88
 -31   3  28   44.80    1.88
 -31  -3  27    1.28    0.83
 -31   3  27    0.66    0.88
 -31   3  27    0.83    0.87
 -31  -3  26    6.60    0.94
 -31   3  26    6.14    0.97
 -31   3  26    6.29    0.99
 -31  -3  25   10.39    0.98
 -31   3  25    9.31    1.03
 -31  -3  24    0.57    0.84
 -31   3  24   -0.04    0.87
 -31  -3  23   21.70    1.31
 -31   3  23   23.64    1.34
 -31  -3  22    1.01    0.83
 -31   3  22    0.77    0.93
 -31  -3  21    2.51    0.86
 -31   3  21    5.47    1.01
 -31  -3  20    7.70    0.99
 -31   3  20    5.79    1.00
 -31  -3  19   12.47    1.12
 -31   3  19   14.37    1.13
 -31  -3  18    0.07    0.85
 -31   3  18    2.68    0.96
 -31  -3  17   17.56    1.16
 -31   3  17   22.34    1.32
 -31  -3  16   27.19    1.43
 -31   3  16   27.02    1.48
 -31  -3  15    4.69    0.83
 -31   3  15    5.12    0.97
 -31  -3  14   38.20    1.70
 -31   3  14   38.96    1.84
 -31  -3  13    3.93    0.95
 -31   3  13    3.00    0.93
 -31  -3  12   64.48    2.51
 -31   3  12   66.91    2.64
 -31  -3  11    2.20    0.89
 -31   3  11    2.59    0.90
 -31  -3  10   28.09    1.49
 -31   3  10   27.04    1.48
 -31  -3   9   13.46    1.06
 -31  -3   9   12.31    0.97
 -31   3   9   14.31    1.16
 -31  -3   8    0.62    0.80
 -31  -3   8   -0.67    0.80
 -31   3   8    1.59    0.86
 -31  -3   7   26.05    1.27
 -31  -3   7   27.53    1.32
 -31   3   7   24.78    1.38
 -31  -3   6    2.96    0.83
 -31  -3   6    4.28    0.75
 -31   3   6    4.37    0.91
 -31  -3   5   10.78    0.90
 -31  -3   5   11.70    0.97
 -31   3   5    8.61    0.96
  31  -3  -4   10.54    0.89
 -31  -3   4   10.53    0.84
 -31  -3   4   10.71    0.90
 -31   3   4   11.24    1.02
  31  -3  -3    4.99    0.80
 -31  -3   3    7.21    0.82
 -31  -3   3    6.80    0.79
 -31   3   3    5.78    0.90
  31  -3  -2   89.23    3.22
 -31  -3   2   92.31    3.29
 -31  -3   2   88.02    3.12
 -31   3   2   93.22    3.40
  31  -3  -1   87.80    3.15
 -31  -3   1   88.53    3.12
 -31  -3   1   93.97    3.28
 -31   3   1   86.96    3.19
  31  -3   0   33.41    1.48
 -31  -3   0   30.71    1.28
 -31   3   0   33.06    1.56
  31  -3   1   12.03    0.88
 -31  -3  -1    9.54    0.69
 -31  -3  -1   10.15    0.67
 -31   3  -1   12.70    0.99
  31  -3   2   24.52    1.21
 -31  -3  -2   21.16    0.92
 -31  -3  -2   21.73    0.94
 -31   3  -2   24.59    1.31
  31  -3   3    2.37    0.62
 -31  -3  -3    1.94    0.45
 -31  -3  -3    2.12    0.40
 -31   3  -3    1.76    0.78
  31  -3   4    7.10    0.73
 -31   3  -4    6.45    0.79
  31  -3   5   12.23    0.84
 -31   3  -5   11.04    0.91
  31  -3   6   24.12    1.21
 -31   3  -6   24.77    1.31
  31  -3   7    2.61    0.67
 -31   3  -7    1.99    0.77
  31  -3   8   57.77    2.22
 -31   3  -8   58.22    2.25
  31  -3   9    8.99    0.79
 -31   3  -9    5.98    0.80
  31  -3  10    3.18    0.69
 -31   3 -10    3.69    0.82
  31  -3  11   73.43    2.68
 -31   3 -11   71.15    2.69
  31  -3  12   36.41    1.55
 -31   3 -12   33.36    1.49
  31  -3  13    8.66    0.83
 -31   3 -13    8.64    0.94
  31  -3  14   50.40    2.02
 -31   3 -14   51.44    2.11
  31  -3  15   16.16    1.02
 -31   3 -15   15.47    1.04
  31  -3  16   27.90    1.33
 -31   3 -16   27.41    1.40
  31  -3  17   -0.74    0.68
 -31   3 -17   -0.75    0.82
  31  -3  18    2.29    0.77
 -31   3 -18    2.39    0.83
 -31  -5  26   22.00    1.20
 -31   5  26   21.30    1.35
 -31  -5  25    6.38    0.83
 -31   5  25    6.69    0.96
 -31  -5  24    0.92    0.87
 -31   5  24    0.37    0.91
 -31  -5  23   -0.45    0.77
 -31   5  23   -0.88    0.94
 -31  -5  22    9.88    0.99
 -31   5  22   10.42    1.09
 -31  -5  21    1.31    0.83
 -31   5  21    0.79    0.93
 -31  -5  20    0.96    0.89
 -31   5  20    0.77    0.95
 -31  -5  19    1.30    0.83
 -31   5  19   -0.21    0.91
 -31  -5  18    0.45    0.87
 -31   5  18    0.09    0.90
 -31  -5  17    6.40    0.98
 -31   5  17    6.46    0.92
 -31  -5  16    7.67    0.96
 -31   5  16    8.95    1.01
 -31  -5  15    9.68    0.99
 -31   5  15    9.90    1.00
 -31  -5  14   37.24    1.69
 -31   5  14   35.23    1.68
 -31  -5  13   77.90    2.88
 -31   5  13   77.74    2.91
 -31  -5  12   12.51    1.01
 -31   5  12   11.37    1.01
 -31  -5  11   19.67    1.17
 -31   5  11   18.24    1.18
 -31  -5  10   26.76    1.37
 -31   5  10   28.05    1.40
 -31  -5   9   21.26    1.22
 -31   5   9   22.30    1.27
 -31  -5   8   20.46    1.18
 -31   5   8   22.54    1.27
 -31  -5   7   12.05    0.91
 -31   5   7   15.51    1.11
  31  -5  -6   12.02    0.88
 -31  -5   6   11.85    0.89
 -31  -5   6    8.82    0.88
 -31   5   6   12.31    1.01
  31  -5  -5   19.53    1.07
 -31  -5   5   20.60    1.12
 -31  -5   5   19.68    1.01
 -31   5   5   19.96    1.15
  31  -5  -4   -0.22    0.62
 -31  -5   4    0.06    0.57
 -31  -5   4    1.21    0.64
 -31   5   4    0.04    0.71
  31  -5  -3   15.69    0.98
 -31  -5   3   14.01    0.86
 -31  -5   3   16.28    0.84
 -31   5   3   16.30    1.01
  31  -5  -2    4.27    0.77
 -31  -5   2    3.63    0.43
 -31   5   2    4.71    0.74
  31  -5  -1   30.22    1.36
 -31   5   1   30.85    1.42
  31  -5   0   14.13    0.87
 -31   5   0   16.17    1.03
  31  -5   1    9.18    0.81
 -31   5  -1    7.49    0.81
  31  -5   2   27.03    1.28
 -31   5  -2   25.84    1.31
  31  -5   3    6.37    0.72
 -31   5  -3    5.90    0.82
  31  -5   4   21.12    1.07
 -31   5  -4   21.37    1.20
  31  -5   5   20.92    1.12
 -31   5  -5   20.29    1.13
  31  -5   6   -0.06    0.57
 -31   5  -6    0.29    0.70
  31  -5   7    8.10    0.74
 -31   5  -7    7.74    0.85
  31  -5   8   16.23    0.96
 -31   5  -8   16.45    1.02
  31  -5   9    2.18    0.61
 -31   5  -9    2.88    0.73
  31  -5  10   28.14    1.31
 -31   5 -10   26.54    1.29
  31  -5  11   36.31    1.55
 -31   5 -11   32.99    1.48
  31  -5  12   19.07    1.05
 -31   5 -12   19.07    1.11
  31  -5  13    1.25    0.69
 -31   5 -13    1.06    0.80
  31  -5  14    8.56    0.77
 -31   5 -14    7.71    0.82
 -31  -7  19    7.21    1.01
 -31   7  19    4.90    0.92
 -31  -7  18   -0.25    0.87
 -31   7  18   -1.47    0.81
 -31  -7  17    1.42    0.86
 -31   7  17    0.65    0.78
 -31  -7  16    1.80    0.88
 -31   7  16    2.00    0.80
 -31  -7  15   -0.13    0.78
 -31   7  15   -0.55    0.78
 -31  -7  14    4.10    0.93
 -31   7  14    4.32    0.89
 -31  -7  13   -1.10    0.86
 -31   7  13    0.29    0.79
 -31  -7  12    0.75    0.85
 -31   7  12    0.70    0.78
 -31  -7  11    0.75    0.76
 -31   7  11   -0.05    0.76
 -31  -7  10    4.04    0.78
 -31   7  10    4.67    0.79
 -31  -7   9   45.61    1.85
 -31   7   9   43.53    1.81
 -31  -7   8    1.80    0.69
 -31   7   8    1.48    0.79
  31  -7  -7   19.79    1.04
 -31  -7   7   22.41    1.20
 -31   7   7   20.40    1.12
  31  -7  -6   14.27    0.93
 -31  -7   6   14.29    1.12
 -31  -7   6   11.79    0.90
 -31   7   6   12.08    0.94
  31  -7  -5   14.18    0.86
 -31  -7   5   12.90    1.07
 -31  -7   5   13.06    0.86
 -31   7   5   11.65    0.91
  31  -7  -4    3.95    0.65
 -31   7   4    3.69    0.77
  31  -7  -3   -0.22    0.61
 -31   7   3   -0.24    0.65
  31  -7  -2   -0.18    0.69
 -31   7   2    0.14    0.65
  31  -7  -1    0.75    0.58
 -31   7   1    0.31    0.74
  31  -7   0    8.29    0.72
 -31   7   0    7.71    0.85
  31  -7   1    3.57    0.63
 -31   7  -1    2.52    0.70
  31  -7   2    0.92    0.57
 -31   7  -2    0.62    0.69
  31  -7   3    2.48    0.62
 -31   7  -3    2.24    0.74
  31  -7   4   13.76    0.86
 -31   7  -4   13.29    0.97
  31  -7   5   30.98    1.33
 -31   7  -5   31.46    1.39
  31  -7   6   12.27    0.86
 -31   7  -6   12.07    0.88
  31  -7   7    4.99    0.67
 -31   7  -7    4.04    0.70
 -32   0  31    0.74    0.86
 -32   0  30    0.64    0.73
 -32   0  29    0.65    0.75
 -32   0  28    6.73    0.91
 -32   0  27   -0.08    0.79
 -32   0  26   16.00    1.02
 -32   0  25    0.23    0.83
 -32   0  24   26.29    1.43
 -32   0  23   -0.33    0.84
 -32   0  22   57.41    2.28
 -32   0  21   -0.44    0.88
 -32   0  20    1.67    0.88
 -32   0  20    0.33    0.78
 -32   0  19    0.22    0.86
 -32   0  19    0.30    0.88
 -32   0  18    4.58    0.94
 -32   0  17    0.01    0.91
 -32   0  16   27.25    1.45
 -32   0  15    0.69    0.88
 -32   0  14    0.32    0.89
 -32   0  13   -0.11    0.88
 -32   0  12   76.81    2.94
 -32   0  11    0.52    0.89
 -32   0  10   88.58    3.27
 -32   0   9    0.22    0.90
 -32   0   8   42.16    1.86
 -32   0   7   -0.58    0.91
 -32   0   6   22.40    1.33
 -32   0   5    0.75    0.82
 -32   0   4    5.29    0.84
 -32   0   3    0.30    0.85
 -32   0   2  144.90    5.05
 -32   0   1   -0.22    0.75
 -32   0   0  390.90   12.91
 -32   0  -1   -0.06    0.71
 -32   0  -2    1.42    0.69
 -32   0  -3   -0.44    0.66
 -32   0  -4    4.90    0.77
  32   0   5    0.50    0.58
 -32   0  -5    0.54    0.64
  32   0   6    7.62    0.75
 -32   0  -6   10.14    0.85
  32   0   7    0.16    0.60
 -32   0  -7    0.17    0.66
  32   0   8   21.94    1.09
 -32   0  -8   21.30    1.11
  32   0   9    0.27    0.57
 -32   0  -9    0.28    0.62
  32   0  10   13.28    0.84
 -32   0 -10   13.73    0.94
  32   0  11    0.39    0.59
 -32   0 -11    0.78    0.65
  32   0  12   19.45    1.05
 -32   0 -12   15.81    0.99
  32   0  13    0.33    0.68
 -32   0 -13    0.32    0.70
  32   0  14   24.00    1.24
 -32   0 -14   24.32    1.25
  32   0  15    0.56    0.72
 -32   0 -15    0.31    0.74
  32   0  16   20.19    1.18
 -32   0 -16   19.85    1.14
  32   0  17   -0.67    0.80
 -32   0 -17   -0.12    0.81
  32   0  18    1.38    0.86
 -32   0 -18    0.84    0.80
  32   0  19    0.21    0.97
 -32   0 -19    1.64    0.86
 -32  -2  30   10.83    0.96
 -32   2  30    7.66    0.89
 -32   2  30    7.83    0.99
 -32  -2  29    0.84    0.87
 -32   2  29    1.34    0.79
 -32   2  29   -0.38    0.85
 -32  -2  28   10.74    0.89
 -32   2  28    8.70    0.96
 -32   2  28   10.70    1.01
 -32  -2  27    1.82    0.82
 -32   2  27    3.40    0.92
 -32   2  27    2.92    0.91
 -32  -2  26   -0.31    0.76
 -32   2  26    1.32    0.83
 -32   2  26    0.27    0.88
 -32  -2  25   24.62    1.35
 -32   2  25   24.18    1.34
 -32   2  25   20.10    1.27
 -32  -2  24    0.18    0.80
 -32   2  24    0.85    0.81
 -32   2  24    0.67    0.88
 -32  -2  23    3.55    0.85
 -32   2  23    4.26    0.92
 -32  -2  22   30.25    1.57
 -32   2  22   28.08    1.48
 -32  -2  21    1.24    1.01
 -32   2  21    0.56    0.95
 -32  -2  20    1.47    0.88
 -32   2  20    0.52    0.89
 -32  -2  19   33.63    1.59
 -32   2  19   33.08    1.60
 -32  -2  18   45.29    1.93
 -32   2  18   43.91    1.96
 -32  -2  17    6.80    1.04
 -32   2  17    7.16    0.99
 -32  -2  16   95.91    3.56
 -32   2  16   91.15    3.38
 -32  -2  15   31.70    1.61
 -32   2  15   26.82    1.46
 -32  -2  14   85.93    3.23
 -32   2  14   78.21    2.98
 -32  -2  13   41.57    1.89
 -32   2  13   44.17    1.96
 -32  -2  12   14.97    1.11
 -32  -2  12   11.61    1.05
 -32   2  12   16.20    1.20
 -32   2  11   44.29    1.97
 -32  -2  10    1.63    0.83
 -32  -2  10    1.88    0.79
 -32   2  10    0.30    0.87
 -32  -2   9   19.57    1.26
 -32  -2   9   20.67    1.25
 -32   2   9   21.45    1.32
 -32  -2   8    0.62    0.82
 -32  -2   8   -1.09    0.77
 -32   2   8    0.51    0.90
 -32  -2   7    1.04    0.84
 -32   2   7   -0.40    0.91
 -32  -2   6   44.16    1.87
 -32   2   6   45.47    2.00
 -32  -2   5   24.53    1.33
 -32   2   5   23.11    1.34
 -32  -2   4  134.00    4.64
 -32   2   4  127.40    4.49
 -32  -2   3   12.98    0.97
 -32   2   3   14.32    1.09
  32  -2  -2    2.37    0.67
 -32  -2   2    1.66    0.74
 -32   2   2    2.84    0.83
 -32   2   1   35.48    1.66
  32  -2   0   66.37    2.50
 -32  -2   0   66.58    2.45
 -32   2   0   67.50    2.59
  32  -2   1   25.48    1.26
 -32  -2  -1   25.40    1.22
 -32   2  -1   24.50    1.30
 -32   2  -2   21.55    1.25
  32  -2   3   54.31    2.12
 -32  -2  -3   55.02    2.06
 -32   2  -3   54.60    2.22
  32  -2   4    0.79    0.63
 -32  -2  -4   -0.60    0.56
 -32   2  -4    0.17    0.71
  32  -2   5    2.53    0.63
 -32  -2  -5    2.81    0.60
 -32   2  -5    3.43    0.76
  32  -2   6    1.97    0.62
 -32  -2  -6    0.21    0.61
 -32   2  -6    0.25    0.67
  32  -2   7    2.95    0.71
 -32  -2  -7    1.51    0.61
 -32   2  -7    0.67    0.76
  32  -2   8   45.04    1.80
 -32  -2  -8   47.77    1.78
 -32   2  -8   46.18    1.93
  32  -2   9    3.90    0.71
 -32  -2  -9    4.15    0.61
 -32   2  -9    4.41    0.83
  32  -2  10   32.70    1.49
 -32  -2 -10   35.57    1.42
 -32   2 -10   33.43    1.57
  32  -2  11    1.15    0.66
 -32  -2 -11    0.11    0.54
 -32   2 -11    2.02    0.79
  32  -2  12   14.22    0.89
 -32  -2 -12   16.12    0.82
 -32   2 -12   15.85    1.08
  32  -2  13   16.85    0.99
 -32  -2 -13   16.20    0.76
 -32   2 -13   14.36    1.04
  32  -2  14   13.23    0.92
 -32   2 -14   12.35    1.02
  32  -2  15    7.85    0.81
 -32   2 -15    6.58    0.91
  32  -2  16    0.70    0.71
 -32   2 -16    1.13    0.82
  32  -2  17   25.00    1.28
 -32   2 -17   27.04    1.41
  32  -2  18   -0.23    0.81
 -32   2 -18   -0.04    0.79
 -32  -4  28    2.13    0.77
 -32   4  28    1.20    0.98
 -32   4  28    1.10    0.92
 -32  -4  27    0.15    0.81
 -32   4  27    0.59    0.88
 -32   4  27    0.66    0.87
 -32  -4  26    6.67    0.94
 -32   4  26    5.77    0.96
 -32  -4  25   -0.59    0.84
 -32   4  25    1.64    0.88
 -32  -4  24    1.57    0.88
 -32   4  24    2.70    0.94
 -32  -4  23    2.46    0.88
 -32   4  23    3.39    0.96
 -32  -4  22    3.98    0.90
 -32   4  22    4.18    0.91
 -32  -4  21    4.64    0.87
 -32   4  21    4.14    0.90
 -32  -4  20   -1.20    0.88
 -32   4  20   -0.08    0.88
 -32  -4  19   43.42    1.94
 -32   4  19   44.94    1.95
 -32  -4  18    6.26    0.91
 -32   4  18    5.91    0.97
 -32  -4  17    7.44    0.98
 -32   4  17    6.78    0.98
 -32  -4  16   13.83    1.05
 -32   4  16   13.18    1.13
 -32  -4  15   -0.14    0.81
 -32   4  15    0.79    0.87
 -32  -4  14   46.45    1.93
 -32   4  14   48.42    2.04
 -32  -4  13   58.53    2.29
 -32   4  13   53.95    2.21
 -32  -4  12   37.60    1.67
 -32   4  12   38.93    1.74
 -32  -4  11   76.85    2.89
 -32   4  11   82.64    3.09
 -32  -4  10    0.04    0.84
 -32   4  10   -0.53    0.83
 -32  -4   9    1.74    0.81
 -32   4   9    0.25    0.88
 -32  -4   8    1.96    0.80
 -32  -4   8    2.78    0.77
 -32   4   8    2.90    0.87
 -32  -4   7   95.59    3.41
 -32  -4   7   93.18    3.33
 -32   4   7   97.93    3.55
 -32  -4   6   39.26    1.70
 -32  -4   6   39.49    1.64
 -32   4   6   38.81    1.74
  32  -4  -5   45.23    1.84
 -32  -4   5   43.59    1.72
 -32  -4   5   48.86    1.94
 -32   4   5   49.17    2.05
  32  -4  -4    2.39    0.66
 -32  -4   4    3.71    0.79
 -32  -4   4    2.37    0.66
 -32   4   4    2.47    0.83
  32  -4  -3   17.49    1.01
 -32  -4   3   15.58    0.93
 -32  -4   3   15.36    0.95
 -32   4   3   19.20    1.18
  32  -4  -2   10.45    0.87
 -32  -4   2    7.45    0.71
 -32  -4   2    7.60    0.72
 -32   4   2    8.64    0.92
  32  -4  -1    3.31    0.71
 -32  -4   1    1.85    0.51
 -32  -4   1    2.29    0.53
 -32   4   1    2.42    0.77
  32  -4   0   23.37    1.17
 -32  -4   0   21.78    0.92
 -32  -4   0   23.38    0.96
 -32   4   0   24.29    1.23
  32  -4   1    1.38    0.61
 -32   4  -1    0.24    0.74
  32  -4   2    0.45    0.60
 -32   4  -2   -1.15    0.74
  32  -4   3    5.44    0.75
 -32   4  -3    3.35    0.75
  32  -4   4    5.24    0.68
 -32   4  -4    4.86    0.81
  32  -4   5    5.66    0.71
 -32   4  -5    2.73    0.71
  32  -4   6   27.95    1.30
 -32   4  -6   23.33    1.24
  32  -4   7   44.50    1.81
 -32   4  -7   40.30    1.74
  32  -4   8   10.48    0.85
 -32   4  -8   10.41    0.96
  32  -4   9   14.98    0.94
 -32   4  -9   15.80    1.10
  32  -4  10   21.74    1.13
 -32   4 -10   22.88    1.25
  32  -4  11    6.57    0.71
 -32   4 -11    8.23    0.92
  32  -4  12    9.14    0.84
 -32   4 -12   10.08    0.89
  32  -4  13   13.82    0.94
 -32   4 -13   11.65    1.00
  32  -4  14    1.02    0.67
 -32   4 -14   -0.23    0.82
  32  -4  15   10.24    0.92
 -32   4 -15   10.82    0.92
  32  -4  16    8.42    0.84
 -32   4 -16    7.25    1.02
 -32  -6  23    7.14    1.03
 -32   6  23    5.57    0.99
 -32  -6  22    2.43    0.89
 -32   6  22    2.62    0.85
 -32  -6  21    2.37    0.87
 -32   6  21    1.99    0.89
 -32  -6  20    5.84    0.90
 -32   6  20    6.02    0.95
 -32  -6  19    2.08    0.82
 -32   6  19    3.81    0.94
 -32  -6  18   14.66    1.14
 -32   6  18   16.51    1.18
 -32  -6  17    8.13    1.00
 -32   6  17    8.86    1.00
 -32  -6  16   -0.25    0.84
 -32   6  16   -0.18    0.79
 -32  -6  15    5.63    0.92
 -32   6  15    4.09    0.87
 -32  -6  14    1.34    0.83
 -32   6  14   -0.19    0.77
 -32  -6  13   24.36    1.32
 -32   6  13   24.83    1.29
 -32  -6  12   56.84    2.25
 -32   6  12   55.06    2.15
 -32  -6  11    3.57    0.88
 -32   6  11    4.88    0.84
 -32  -6  10    0.06    0.79
 -32   6  10   -0.36    0.76
 -32  -6   9   79.63    2.92
 -32   6   9   77.27    2.85
 -32  -6   8    7.72    0.84
 -32   6   8    7.85    0.90
 -32  -6   7   17.11    1.09
 -32  -6   7   15.96    0.94
 -32   6   7   15.73    1.04
  32  -6  -6    1.45    0.62
 -32  -6   6    2.02    0.68
 -32  -6   6    0.86    0.75
 -32   6   6    0.49    0.73
  32  -6  -5    1.19    0.63
 -32  -6   5   -0.08    0.81
 -32  -6   5    1.21    0.63
 -32   6   5    2.11    0.79
  32  -6  -4    4.46    0.71
 -32  -6   4    4.21    0.56
 -32  -6   4    3.88    0.72
 -32   6   4    5.06    0.81
  32  -6  -3   17.31    1.05
 -32   6   3   16.67    1.04
  32  -6  -2   10.00    0.81
 -32   6   2    8.67    0.88
  32  -6  -1    2.88    0.69
 -32   6   1    2.50    0.73
  32  -6   0   45.51    1.80
 -32   6   0   46.89    1.88
  32  -6   1    9.52    0.81
 -32   6  -1    8.60    0.85
  32  -6   2    6.35    0.71
 -32   6  -2    5.41    0.85
  32  -6   3   13.57    0.87
 -32   6  -3   12.61    0.99
  32  -6   4    2.73    0.67
 -32   6  -4    1.47    0.75
  32  -6   5   20.40    1.08
 -32   6  -5   22.14    1.20
  32  -6   6    1.28    0.67
 -32   6  -6    0.41    0.71
  32  -6   7    0.73    0.63
 -32   6  -7   -0.34    0.69
  32  -6   8   12.09    0.84
 -32   6  -8   11.11    0.91
  32  -6   9    0.07    0.60
 -32   6  -9   -0.68    0.75
  32  -6  10    6.09    0.71
 -32   6 -10    4.83    0.84
  32  -6  11   -0.39    0.75
 -32  -8  10    3.53    0.97
 -32  -8   9   -0.19    1.09
 -32   8   9    3.14    0.76
 -32  -8   8    0.90    1.06
 -32   8   8    0.66    0.74
 -32  -8   7   -0.72    1.11
 -32  -8   7    1.09    1.02
 -32   8   7    1.15    0.67
  32  -8  -6    0.85    0.62
 -32  -8   6    0.20    0.95
 -32  -8   6    0.36    0.87
 -32   8   6   -0.13    0.68
  32  -8  -5    3.93    0.63
 -32   8   5    4.42    0.70
  32  -8  -4    5.13    0.63
 -32   8   4    4.95    0.76
  32  -8  -3    4.39    0.64
 -32   8   3    3.06    0.80
  32  -8  -2    2.53    0.65
 -33  -1  31   -0.16    0.77
 -33   1  31   -0.14    0.82
 -33  -1  30   50.75    1.97
 -33  -1  29    6.62    0.89
 -33   1  29    7.34    0.86
 -33   1  29    8.75    0.97
 -33  -1  28    0.29    0.80
 -33   1  28    0.63    0.82
 -33   1  28    0.38    0.76
 -33  -1  27    6.80    0.82
 -33   1  27    4.24    0.88
 -33   1  27    6.08    0.93
 -33  -1  26   12.21    1.04
 -33   1  26   10.32    1.02
 -33   1  26    9.10    0.90
 -33  -1  25   -0.44    0.80
 -33   1  25   -0.46    0.77
 -33   1  25   -0.38    0.86
 -33  -1  24   10.33    0.99
 -33   1  24    7.14    0.97
 -33   1  24    9.18    0.93
 -33  -1  23    2.15    0.92
 -33   1  23    2.09    0.86
 -33   1  23    2.76    0.92
 -33  -1  22    7.95    0.99
 -33   1  22    6.20    0.95
 -33   1  22    6.25    1.01
 -33  -1  21    8.10    1.04
 -33   1  21    9.13    1.05
 -33  -1  20    8.26    1.10
 -33   1  20    8.74    0.99
 -33  -1  19    1.02    0.99
 -33   1  19   -0.60    0.85
 -33  -1  18   39.94    1.81
 -33   1  18   37.58    1.74
 -33  -1  17    2.01    0.87
 -33   1  17    2.56    0.94
 -33  -1  16   42.20    1.87
 -33  -1  16   38.23    1.73
 -33   1  16   35.31    1.69
 -33  -1  15   21.99    1.29
 -33  -1  15   18.29    1.16
 -33   1  15   19.93    1.29
 -33   1  14   70.89    2.74
 -33  -1  13   43.46    1.92
 -33   1  13   42.73    1.93
 -33  -1  12    5.16    0.93
 -33   1  12    6.73    1.02
 -33  -1  11   18.38    1.19
 -33   1  11   18.61    1.29
 -33  -1  10    0.43    0.93
 -33   1  10    0.76    0.93
 -33  -1   9   72.95    2.78
 -33   1   9   70.77    2.75
 -33  -1   8   19.15    1.17
 -33   1   8   18.88    1.26
 -33  -1   7    4.19    0.94
 -33   1   7    4.28    0.92
 -33  -1   6   -0.31    0.82
 -33   1   6    0.00    0.87
 -33  -1   5   53.64    2.15
 -33   1   5   53.61    2.17
 -33  -1   4    0.67    0.81
 -33   1   4    0.67    0.80
 -33  -1   3  166.20    5.70
 -33   1   3  161.40    5.58
 -33  -1   2   30.78    1.47
 -33   1   2   31.75    1.55
 -33  -1   1   50.56    2.00
 -33   1   1   49.97    2.06
 -33  -1   0   49.80    1.98
 -33   1   0   57.56    2.25
  33  -1   1   12.06    0.86
 -33  -1  -1   11.57    0.94
 -33   1  -1   11.94    0.99
 -33   1  -2    1.09    0.81
  33  -1   3    9.93    0.83
 -33  -1  -3    8.72    0.77
 -33   1  -3   11.48    0.94
  33  -1   4    4.37    0.73
 -33  -1  -4    4.60    0.73
 -33   1  -4    4.76    0.82
  33  -1   5   22.56    1.15
 -33  -1  -5   21.72    1.12
 -33   1  -5   21.01    1.15
  33  -1   6    9.69    0.81
 -33  -1  -6    9.75    0.80
 -33   1  -6   10.52    0.90
  33  -1   7    2.12    0.65
 -33  -1  -7    3.05    0.66
 -33   1  -7    3.45    0.75
  33  -1   8    1.59    0.64
 -33  -1  -8    1.69    0.65
 -33   1  -8    1.88    0.74
  33  -1   9   25.18    1.22
 -33  -1  -9   24.47    1.17
 -33   1  -9   23.65    1.26
  33  -1  10    5.56    0.72
 -33  -1 -10    6.09    0.71
 -33   1 -10    5.21    0.82
  33  -1  11   50.05    1.95
 -33  -1 -11   49.62    1.92
 -33   1 -11   53.17    2.09
  33  -1  12   48.08    1.90
 -33  -1 -12   49.61    1.90
 -33   1 -12   48.28    1.99
  33  -1  13   14.86    0.98
 -33  -1 -13   17.28    1.07
  33   1  13   14.28    1.00
 -33   1 -13   15.88    1.11
  33  -1  14    1.66    0.71
 -33  -1 -14    0.49    0.81
  33   1  14    2.65    0.76
 -33   1 -14    2.00    0.81
  33  -1  15    2.74    0.75
 -33  -1 -15    3.34    0.85
  33   1  15    3.34    0.90
 -33   1 -15    2.85    0.86
  33  -1  16    4.16    0.80
 -33  -1 -16    3.38    0.94
  33   1  16    4.25    0.99
 -33   1 -16    2.90    0.89
  33  -1  17    1.34    0.78
 -33  -1 -17    1.41    0.94
  33   1  17    1.43    1.02
 -33   1 -17    2.37    0.93
  33  -1  18   17.30    1.14
 -33  -1 -18   18.25    1.23
  33   1  18   16.13    1.41
 -33   1 -18   16.80    1.17
 -33  -3  29    4.16    0.87
 -33   3  29    1.72    0.88
 -33   3  29    1.58    0.97
 -33  -3  28   14.56    1.10
 -33   3  28   14.26    1.16
 -33   3  28   14.87    1.07
 -33  -3  27    0.93    0.77
 -33   3  27    1.20    0.91
 -33   3  27    1.57    0.82
 -33  -3  26    0.95    0.88
 -33   3  26    0.73    0.86
 -33   3  26    2.03    0.88
 -33  -3  25    1.09    0.84
 -33   3  25    0.18    0.96
 -33  -3  24    0.39    0.85
 -33   3  24   -0.72    0.87
 -33  -3  23   20.72    1.27
 -33   3  23   19.32    1.25
 -33  -3  22    1.77    0.91
 -33   3  22    4.23    0.97
 -33  -3  21    3.76    0.94
 -33   3  21    3.64    0.94
 -33  -3  20   31.43    1.57
 -33   3  20   31.15    1.57
 -33  -3  19    2.97    0.87
 -33   3  19    2.43    0.92
 -33  -3  18    5.15    0.91
 -33   3  18    4.24    0.98
 -33  -3  17    9.00    0.96
 -33   3  17   10.55    1.06
 -33  -3  16   44.51    1.96
 -33   3  16   49.46    2.09
 -33  -3  15    2.81    1.03
 -33   3  15    4.87    0.99
 -33  -3  14    9.56    1.08
 -33   3  14    9.69    1.05
 -33  -3  13    0.74    0.89
 -33   3  13    2.04    0.90
 -33  -3  12   13.26    1.07
 -33   3  12   10.99    1.11
 -33  -3  11   14.10    1.01
 -33  -3  11   13.35    1.09
 -33   3  11   14.26    1.15
 -33  -3  10   86.88    3.15
 -33  -3  10   76.68    2.88
 -33   3  10   88.80    3.27
 -33  -3   9   49.00    1.98
 -33  -3   9   53.40    2.15
 -33   3   9   51.38    2.13
 -33  -3   8   16.79    1.09
 -33  -3   8   13.43    0.98
 -33   3   8   15.41    1.15
 -33  -3   7   55.86    2.23
 -33  -3   7   57.83    2.29
 -33   3   7   57.86    2.32
 -33  -3   6   11.51    0.98
 -33  -3   6   11.80    1.05
 -33   3   6   11.14    1.03
 -33  -3   5    4.42    0.87
 -33  -3   5    4.31    0.75
 -33   3   5    4.21    0.88
 -33  -3   4    3.33    0.82
 -33  -3   4    4.68    0.82
 -33   3   4    5.03    0.86
  33  -3  -3    1.56    0.66
 -33  -3   3    1.36    0.74
 -33  -3   3    0.70    0.74
 -33   3   3    0.74    0.80
  33  -3  -2   12.97    0.93
 -33  -3   2   13.34    0.92
 -33  -3   2   14.16    0.92
 -33   3   2   14.37    1.03
  33  -3  -1    3.27    0.70
 -33  -3   1    2.35    0.59
 -33  -3   1    3.95    0.71
 -33   3   1    5.01    0.86
  33  -3   0    0.03    0.58
 -33  -3   0    0.05    0.56
 -33  -3   0   -0.03    0.54
 -33   3   0   -0.36    0.75
  33  -3   1   17.81    1.01
 -33  -3  -1   16.30    0.87
 -33  -3  -1   15.84    0.89
 -33   3  -1   19.23    1.14
  33  -3   2    9.88    0.79
 -33  -3  -2    8.54    0.61
 -33  -3  -2    7.52    0.61
 -33   3  -2   11.57    0.98
  33  -3   3   58.17    2.22
 -33  -3  -3   56.82    2.02
 -33  -3  -3   54.29    1.94
 -33   3  -3   59.24    2.27
  33  -3   4   17.45    1.01
 -33   3  -4   15.97    1.02
  33  -3   5   23.28    1.19
 -33   3  -5   22.58    1.25
  33  -3   6   48.11    1.92
 -33   3  -6   49.96    2.04
  33  -3   7   35.18    1.52
 -33   3  -7   39.13    1.68
  33  -3   8    2.07    0.62
 -33   3  -8    0.43    0.74
  33  -3   9    6.32    0.69
 -33   3  -9    6.63    0.89
  33  -3  10   17.81    1.03
 -33   3 -10   17.73    1.08
  33  -3  11    0.95    0.67
 -33   3 -11   -0.09    0.79
  33  -3  12    2.58    0.71
 -33   3 -12    2.82    0.87
  33  -3  13    9.96    0.82
 -33   3 -13   10.56    0.91
  33  -3  14   -0.09    0.69
 -33   3 -14    1.43    0.82
  33  -3  15    6.94    0.85
 -33   3 -15    7.12    0.86
  33  -3  16    6.16    0.81
 -33   3 -16    6.89    0.93
 -33  -5  25    0.61    0.86
 -33   5  25    0.53    0.89
 -33  -5  24    6.23    0.98
 -33   5  24    5.64    0.93
 -33  -5  23   10.02    0.96
 -33   5  23   10.25    1.01
 -33  -5  22    4.51    0.92
 -33   5  22    5.75    0.92
 -33  -5  21   38.43    1.71
 -33   5  21   35.79    1.66
 -33  -5  20    8.36    1.05
 -33   5  20    8.63    1.04
 -33  -5  19    2.38    0.95
 -33   5  19    2.12    0.90
 -33  -5  18   22.02    1.30
 -33   5  18   23.36    1.29
 -33  -5  17    0.15    0.92
 -33   5  17    0.17    0.84
 -33  -5  16    8.53    1.03
 -33   5  16   12.56    1.06
 -33  -5  15    1.62    0.90
 -33   5  15    4.16    0.91
 -33  -5  14   39.39    1.78
 -33   5  14   38.83    1.73
 -33  -5  13    3.94    0.90
 -33   5  13    3.31    0.87
 -33  -5  12    1.50    0.84
 -33   5  12    2.15    0.85
 -33  -5  11    1.06    0.82
 -33   5  11   -0.06    0.80
 -33  -5  10   24.59    1.27
 -33   5  10   24.45    1.28
 -33  -5   9   14.14    1.04
 -33   5   9   13.01    1.07
 -33  -5   8   23.29    1.24
 -33  -5   8   27.00    1.38
 -33   5   8   22.39    1.26
 -33  -5   7   27.11    1.38
 -33  -5   7   30.57    1.40
 -33   5   7   28.87    1.44
  33  -5  -6   10.02    0.74
 -33  -5   6    9.97    0.94
 -33  -5   6    8.03    0.81
 -33   5   6   11.38    1.00
  33  -5  -5    0.46    0.66
 -33  -5   5    1.22    0.67
 -33  -5   5    0.82    0.71
 -33   5   5    0.41    0.74
  33  -5  -4   10.44    0.82
 -33  -5   4   10.20    0.80
 -33  -5   4    8.66    0.88
 -33   5   4    9.91    0.84
  33  -5  -3    3.55    0.68
 -33  -5   3    1.46    0.62
 -33  -5   3    2.40    0.54
 -33   5   3    2.42    0.68
  33  -5  -2   10.17    0.79
 -33  -5   2    9.69    0.55
 -33   5   2    9.50    0.83
  33  -5  -1    5.28    0.73
 -33   5   1    5.31    0.79
  33  -5   0    7.55    0.77
 -33   5   0    6.32    0.83
  33  -5   1    1.22    0.61
 -33   5  -1    1.25    0.69
  33  -5   2   -0.18    0.57
 -33   5  -2    0.01    0.69
  33  -5   3   24.65    1.22
 -33   5  -3   22.79    1.20
  33  -5   4   57.49    2.18
 -33   5  -4   59.28    2.26
  33  -5   5    6.00    0.75
 -33   5  -5    6.88    0.88
  33  -5   6    0.33    0.63
 -33   5  -6   -0.92    0.68
  33  -5   7   17.16    1.01
 -33   5  -7   14.54    1.03
  33  -5   8    0.34    0.66
 -33   5  -8   -0.40    0.68
  33  -5   9    3.79    0.74
 -33   5  -9    3.97    0.76
  33  -5  10    3.83    0.67
 -33   5 -10    2.56    0.77
  33  -5  11    0.96    0.62
 -33   5 -11    1.11    0.82
  33  -5  12   49.43    1.94
 -33   5 -12   50.74    2.05
  33  -5  13    0.52    0.69
 -33   5 -13    0.34    0.84
 -33  -7  18    1.32    0.97
 -33  -7  17    8.96    1.08
 -33   7  17    8.31    0.94
 -33  -7  16    3.93    0.93
 -33   7  16    3.93    0.86
 -33  -7  15   29.84    1.45
 -33   7  15   28.97    1.38
 -33  -7  14    1.20    0.85
 -33   7  14    0.63    0.79
 -33  -7  13   22.42    1.27
 -33   7  13   23.46    1.26
 -33  -7  12   -0.16    0.86
 -33   7  12   -0.78    0.81
 -33  -7  11    1.34    0.81
 -33   7  11    1.06    0.79
 -33  -7  10    0.95    0.81
 -33   7  10   -0.63    0.70
 -33  -7   9    0.77    0.75
 -33   7   9    0.94    0.70
 -33  -7   8    4.38    0.87
 -33   7   8    6.28    0.74
 -33  -7   7   -0.73    0.96
 -33  -7   7   -0.18    0.75
 -33   7   7    0.13    0.70
  33  -7  -6   -0.69    0.62
 -33  -7   6   -0.77    0.71
 -33  -7   6    0.88    0.91
 -33   7   6    0.61    0.67
  33  -7  -5    0.68    0.65
 -33  -7   5    0.82    0.60
 -33  -7   5    1.70    0.68
 -33   7   5    0.62    0.73
  33  -7  -4   28.03    1.24
 -33   7   4   27.84    1.29
  33  -7  -3   31.40    1.32
 -33   7   3   32.47    1.44
  33  -7  -2    0.04    0.59
 -33   7   2   -0.51    0.71
  33  -7  -1   17.27    0.93
 -33   7   1   18.65    1.07
  33  -7   0    0.97    0.60
 -33   7   0    1.60    0.77
  33  -7   1   -0.69    0.57
 -33   7  -1   -0.25    0.76
  33  -7   2    0.63    0.57
 -33   7  -2   -0.36    0.72
  33  -7   3   13.96    0.91
 -33   7  -3   12.24    0.94
  33  -7   4    0.80    0.65
 -33   7  -4    1.19    0.69
  33  -7   5    1.06    0.60
 -33   7  -5    0.91    0.77
 -34   0  30   25.90    1.27
 -34   0  29   -0.32    0.69
 -34   0  28    0.23    0.78
 -34   0  27   -0.13    0.83
 -34   0  26    1.49    0.76
 -34   0  25   -0.16    0.80
 -34   0  24    0.99    0.90
 -34   0  24    0.31    0.71
 -34   0  23    0.79    0.81
 -34   0  23    0.75    0.82
 -34   0  22   -0.50    0.89
 -34   0  22    0.57    0.89
 -34   0  21   -0.06    0.85
 -34   0  21   -0.19    0.87
 -34   0  19    0.85    0.84
 -34   0  19    1.52    0.88
 -34   0  18  169.10    5.82
 -34   0  17   -0.37    0.87
 -34   0  16    9.05    1.01
 -34   0  15    0.36    0.88
 -34   0  14    2.41    0.92
 -34   0  13    0.09    0.90
 -34   0  12   84.26    3.14
 -34   0  11   -0.05    0.88
 -34   0  10   81.53    3.09
 -34   0   9   -0.39    0.87
 -34   0   8    9.76    1.04
 -34   0   7   -0.02    0.92
 -34   0   6  265.30    8.91
 -34   0   5    1.53    0.81
 -34   0   4   27.29    1.43
 -34   0   3   -0.84    0.79
 -34   0   2  224.40    7.57
 -34   0   1    0.56    0.72
 -34   0   0   46.54    1.91
 -34   0  -1    0.26    0.76
 -34   0  -2  112.70    3.97
 -34   0  -3   -0.30    0.70
 -34   0  -4    8.71    0.84
 -34   0  -5    0.66    0.68
  34   0   6   48.05    1.93
 -34   0  -6   47.03    1.87
  34   0   7   -0.20    0.64
 -34   0  -7   -0.72    0.66
  34   0   9   -0.72    0.63
 -34   0  -9   -1.21    0.73
  34   0  10    9.61    0.80
 -34   0 -10    9.37    0.90
  34   0  11   -0.33    0.66
 -34   0 -11   -0.34    0.75
  34   0  12    1.66    0.73
 -34   0 -12    1.61    0.80
  34   0  13   -0.13    0.77
 -34   0 -13    0.11    0.82
  34   0  14    6.81    0.85
 -34   0 -14    4.37    0.86
  34   0  15   -0.73    0.77
 -34   0 -15    0.46    0.78
  34   0  16    7.07    1.00
 -34   0 -16    6.02    0.94
  34   0  17    0.38    0.91
 -34   0 -17   -0.39    0.84
 -34  -2  30    0.04    0.78
 -34  -2  29    3.14    0.87
 -34   2  29    1.41    0.92
 -34   2  29    2.94    0.76
 -34  -2  28   12.14    0.90
 -34   2  28   10.17    0.97
 -34   2  28   11.05    0.98
 -34  -2  27    1.41    0.83
 -34   2  27    0.29    0.83
 -34   2  27    0.30    0.82
 -34  -2  26   12.16    0.97
 -34   2  26   10.51    1.05
 -34   2  26   11.15    1.04
 -34  -2  25   30.26    1.51
 -34   2  25   34.02    1.58
 -34   2  25   30.09    1.47
 -34  -2  24   33.92    1.56
 -34   2  24   33.98    1.60
 -34   2  24   34.22    1.54
 -34  -2  23    5.24    0.88
 -34   2  23    6.17    0.97
 -34  -2  22    9.60    1.04
 -34   2  22    9.42    1.04
 -34  -2  21    3.56    0.91
 -34   2  21    1.33    0.94
 -34  -2  20   42.70    1.85
 -34   2  20   41.89    1.89
 -34  -2  19    9.32    1.04
 -34   2  19    8.64    1.06
 -34  -2  18    2.80    1.03
 -34   2  18    3.01    0.92
 -34  -2  17   39.09    1.84
 -34   2  17   38.86    1.76
 -34  -2  16    6.50    1.02
 -34   2  16    5.74    0.95
 -34  -2  15   61.19    2.42
 -34   2  15   54.48    2.23
 -34  -2  14    2.55    0.88
 -34  -2  14    3.93    0.90
 -34   2  14    3.19    0.92
 -34  -2  13    0.26    0.77
 -34  -2  13    0.88    0.94
 -34   2  13    0.74    0.91
 -34  -2  12   93.91    3.42
 -34  -2  12   87.63    3.22
 -34   2  12   92.66    3.42
 -34  -2  11   40.20    1.82
 -34  -2  11   38.89    1.78
 -34   2  11   37.60    1.76
 -34  -2  10   46.49    2.00
 -34  -2  10   46.16    2.00
 -34   2  10   49.79    2.12
 -34  -2   9   86.72    3.22
 -34  -2   9   80.82    3.00
 -34   2   9   79.88    3.01
 -34  -2   8   83.06    3.06
 -34  -2   8   82.55    3.06
 -34   2   8   82.15    3.07
 -34  -2   7   16.92    1.14
 -34   2   7   16.90    1.19
 -34  -2   6   13.12    1.06
 -34   2   6   13.00    1.09
 -34  -2   5   53.24    2.11
 -34   2   5   53.40    2.18
 -34  -2   4  140.60    4.88
 -34   2   4  133.20    4.66
 -34  -2   3  126.40    4.40
 -34   2   3  113.00    4.02
 -34  -2   2    7.83    0.79
 -34   2   2    8.78    0.99
  34  -2  -1   16.81    0.98
 -34  -2   1   17.18    1.03
 -34   2   1   18.81    1.16
  34  -2   0   11.75    0.91
 -34  -2   0   11.89    0.91
 -34   2   0   10.71    0.94
  34  -2   1    3.79    0.68
 -34  -2  -1    4.50    0.70
 -34   2  -1    3.48    0.78
  34  -2   2   68.59    2.56
 -34  -2  -2   73.78    2.68
 -34   2  -2   70.89    2.69
  34  -2   3    0.83    0.63
 -34  -2  -3    0.08    0.62
 -34   2  -3    1.69    0.81
  34  -2   4  119.90    4.18
 -34  -2  -4  120.00    4.13
 -34   2  -4  121.70    4.28
  34  -2   5    0.38    0.68
 -34  -2  -5    0.59    0.61
 -34   2  -5    1.15    0.75
  34  -2   6   32.63    1.45
 -34  -2  -6   33.58    1.41
 -34   2  -6   32.37    1.53
  34  -2   7   51.45    2.04
 -34  -2  -7   58.92    2.20
 -34   2  -7   53.05    2.14
  34  -2   8   13.61    0.91
 -34  -2  -8   12.75    0.90
 -34   2  -8   12.48    1.02
 -34   2  -9   31.95    1.50
  34  -2  10   10.01    0.79
 -34  -2 -10    9.84    0.77
 -34   2 -10    9.73    0.95
  34  -2  11   53.93    2.10
 -34  -2 -11   57.19    2.05
 -34   2 -11   57.54    2.26
  34  -2  12    3.35    0.71
 -34  -2 -12    1.25    0.46
 -34   2 -12    1.63    0.83
  34  -2  13    6.07    0.80
 -34   2 -13    6.57    0.93
  34  -2  14    9.58    0.88
 -34   2 -14   12.28    1.03
  34  -2  15   -0.26    0.73
 -34   2 -15   -0.86    0.82
  34  -2  16   13.15    1.01
 -34   2 -16   10.53    0.99
  34  -2  17    0.05    0.93
 -34   2 -17    0.50    0.86
 -34  -4  27   11.99    0.96
 -34   4  27   10.35    1.12
 -34   4  27   12.11    0.99
 -34  -4  26    1.35    0.81
 -34   4  26    3.39    0.96
 -34  -4  25   35.59    1.64
 -34   4  25   33.71    1.58
 -34  -4  24   -0.47    0.90
 -34   4  24   -1.00    0.85
 -34  -4  23    6.74    1.00
 -34   4  23    5.90    0.97
 -34  -4  22    2.70    0.84
 -34   4  22    2.97    0.90
 -34  -4  21    7.25    1.00
 -34   4  21    6.53    0.93
 -34  -4  20    2.95    0.93
 -34   4  20    0.76    0.90
 -34  -4  19    1.13    0.87
 -34   4  19    0.05    0.91
 -34  -4  18    3.66    0.98
 -34   4  18    4.61    0.95
 -34  -4  17    4.99    1.00
 -34   4  17    5.48    0.91
 -34  -4  16    1.82    0.88
 -34   4  16    1.33    0.88
 -34  -4  15    6.36    1.05
 -34   4  15    7.19    0.97
 -34  -4  14    4.50    0.91
 -34   4  14    4.30    0.94
 -34  -4  13   46.71    2.01
 -34   4  13   47.48    2.00
 -34  -4  12   24.89    1.35
 -34   4  12   23.56    1.35
 -34  -4  11   41.44    1.78
 -34   4  11   39.30    1.76
 -34  -4  10   36.33    1.58
 -34  -4  10   33.41    1.60
 -34   4  10   38.46    1.72
 -34  -4   9   57.57    2.23
 -34  -4   9   57.48    2.25
 -34   4   9   56.73    2.25
 -34  -4   8   13.00    1.00
 -34  -4   8   12.46    0.98
 -34   4   8   14.54    1.07
 -34  -4   7   14.26    1.07
 -34  -4   7   15.38    1.06
 -34   4   7   14.24    1.07
 -34  -4   6    0.34    0.73
 -34  -4   6    0.05    0.77
 -34   4   6    0.37    0.83
 -34  -4   5    3.49    0.85
 -34  -4   5    5.43    0.79
 -34   4   5    3.80    0.83
  34  -4  -4    0.46    0.64
 -34  -4   4    0.46    0.66
 -34  -4   4    0.62    0.78
 -34   4   4   -0.19    0.75
  34  -4  -3   13.09    0.92
 -34  -4   3   11.31    0.84
 -34  -4   3   12.45    0.82
 -34   4   3   12.61    0.97
  34  -4  -2   48.06    1.92
 -34  -4   2   44.56    1.73
 -34  -4   2   45.14    1.73
 -34   4   2   46.22    1.87
 -34  -4   1   11.52    0.72
 -34  -4   1   11.73    0.72
 -34   4   1   13.53    0.94
  34  -4   0    3.03    0.66
 -34  -4   0    2.06    0.44
 -34  -4   0    2.54    0.45
 -34   4   0    2.34    0.68
  34  -4   1   98.90    3.49
 -34   4  -1  101.90    3.61
  34  -4   2   23.67    1.16
 -34   4  -2   21.47    1.16
  34  -4   3   28.67    1.31
 -34   4  -3   27.45    1.34
  34  -4   4   13.91    0.93
 -34   4  -4   13.96    0.97
  34  -4   5    1.57    0.68
 -34   4  -5    2.75    0.80
  34  -4   6    0.27    0.64
 -34   4  -6    0.50    0.73
  34  -4   7    8.23    0.75
 -34   4  -7    8.98    0.92
  34  -4   8    3.01    0.64
 -34   4  -8    1.96    0.84
  34  -4   9   39.01    1.63
 -34   4  -9   43.89    1.85
  34  -4  10    1.04    0.68
 -34   4 -10   -0.18    0.79
  34  -4  11   39.85    1.70
 -34   4 -11   41.59    1.77
  34  -4  12    0.03    0.66
 -34   4 -12    0.08    0.85
  34  -4  13    9.96    0.91
 -34   4 -13    8.96    0.98
  34  -4  14    2.15    0.69
 -34   4 -14    2.16    0.76
 -34  -6  21    1.80    0.94
 -34   6  21    0.69    0.80
 -34  -6  20    2.71    0.91
 -34   6  20    5.23    0.91
 -34  -6  19   12.46    1.09
 -34   6  19   12.30    1.01
 -34  -6  18   24.59    1.36
 -34   6  18   22.35    1.25
 -34  -6  17   25.40    1.40
 -34   6  17   23.65    1.32
 -34  -6  16   -0.98    0.91
 -34   6  16    0.20    0.83
 -34  -6  15   10.07    1.06
 -34   6  15   12.74    1.00
 -34  -6  14    1.75    0.92
 -34   6  14    3.59    0.82
 -34  -6  13   11.71    1.08
 -34   6  13   12.61    0.98
 -34  -6  12    0.70    0.89
 -34   6  12    1.30    0.81
 -34  -6  11    6.27    0.96
 -34   6  11    6.00    0.83
 -34  -6  10   47.63    1.99
 -34   6  10   50.45    2.01
 -34  -6   9   14.99    1.07
 -34   6   9   15.13    1.03
 -34  -6   8   20.31    1.30
 -34  -6   8   24.74    1.25
 -34   6   8   22.50    1.18
 -34  -6   7    1.55    0.79
 -34  -6   7    1.76    0.91
 -34   6   7    2.36    0.72
  34  -6  -6    0.98    0.57
 -34  -6   6    0.02    0.86
 -34  -6   6    1.58    0.75
 -34   6   6    0.61    0.70
  34  -6  -5   52.04    1.98
 -34  -6   5   45.19    1.91
 -34  -6   5   47.65    1.84
 -34   6   5   43.92    1.79
  34  -6  -4    2.58    0.61
 -34  -6   4    3.04    0.56
 -34  -6   4    2.83    0.66
 -34   6   4    2.42    0.69
  34  -6  -3   10.45    0.81
 -34   6   3   11.24    0.88
  34  -6  -2    2.42    0.74
 -34   6   2    3.48    0.78
  34  -6  -1   -0.03    0.62
 -34   6   1   -0.13    0.63
  34  -6   0    0.84    0.64
 -34   6   0    0.41    0.71
  34  -6   1    1.94    0.71
 -34   6  -1   -0.33    0.72
  34  -6   2    8.58    0.75
 -34   6  -2    9.90    0.85
  34  -6   3    0.10    0.61
 -34   6  -3    0.50    0.71
  34  -6   4    0.63    0.62
 -34   6  -4   -0.26    0.69
  34  -6   5    1.36    0.59
 -34   6  -5    0.91    0.69
  34  -6   6    2.17    0.63
 -34   6  -6    1.13    0.71
  34  -6   7   43.59    1.72
 -34   6  -7   45.84    1.85
  34  -6   8    1.37    0.65
 -34   6  -8    0.26    0.68
 -35  -1  30    0.38    0.71
 -35   1  30    1.86    0.88
 -35   1  30    0.61    0.91
 -35  -1  29   13.75    1.01
 -35   1  29   13.05    1.01
 -35   1  29   11.77    0.90
 -35  -1  28    7.57    0.89
 -35   1  28    7.78    0.83
 -35   1  28   10.09    0.96
 -35  -1  27    4.12    0.78
 -35   1  27    3.82    0.86
 -35   1  27    4.16    0.89
 -35  -1  26   11.37    1.03
 -35   1  26   12.20    0.98
 -35   1  26   13.25    1.07
 -35  -1  25    1.32    0.80
 -35   1  25    1.66    0.85
 -35   1  25    1.61    0.84
 -35  -1  24    3.58    0.90
 -35   1  24    2.81    0.81
 -35   1  24    4.16    0.87
 -35  -1  23    3.85    0.92
 -35   1  23    5.55    0.90
 -35   1  23    5.87    0.92
 -35  -1  22   19.34    1.18
 -35   1  22   17.91    1.18
 -35   1  22   17.07    1.19
 -35  -1  21   24.86    1.41
 -35   1  21   22.82    1.31
 -35  -1  20   49.49    2.14
 -35   1  20   45.48    1.96
 -35  -1  19    2.49    0.76
 -35  -1  19    2.27    0.91
 -35   1  19    4.30    0.94
 -35  -1  18    2.95    0.88
 -35  -1  18    1.84    0.90
 -35   1  18    2.32    0.92
 -35  -1  17    4.56    0.93
 -35  -1  17    3.32    0.93
 -35   1  17    4.29    0.96
 -35  -1  16    0.96    0.87
 -35  -1  16    2.10    0.91
 -35   1  16    0.85    0.92
 -35  -1  15    1.48    0.86
 -35  -1  15   -1.48    0.97
 -35   1  15    1.04    0.87
 -35  -1  14    1.81    0.83
 -35   1  14    2.42    0.92
 -35  -1  13   11.84    1.08
 -35   1  13   10.66    1.08
 -35  -1  12   24.95    1.42
 -35   1  12   23.29    1.35
 -35  -1  11    8.36    1.10
 -35   1  11    7.76    1.00
 -35  -1  10    4.61    0.99
 -35   1  10    4.32    0.94
 -35  -1   9   57.09    2.31
 -35   1   9   54.96    2.24
 -35  -1   8    4.07    0.93
 -35   1   8    4.05    0.93
 -35  -1   7   79.89    3.01
 -35   1   7   77.59    2.94
 -35  -1   6   81.22    3.01
 -35   1   6   74.26    2.82
 -35  -1   5   12.13    1.01
 -35   1   5   11.95    1.05
 -35  -1   4   12.77    1.06
 -35   1   4   15.46    1.12
 -35  -1   3    4.84    0.82
 -35   1   3    4.21    0.87
 -35  -1   2    7.02    0.81
 -35   1   2    9.64    0.95
 -35  -1   1   13.68    0.99
 -35   1   1   13.78    1.08
 -35  -1   0   11.04    0.93
 -35   1   0   12.58    1.03
 -35  -1  -1   12.94    0.92
 -35   1  -1   13.13    1.07
 -35  -1  -2    0.28    0.65
 -35   1  -2    1.30    0.80
  35  -1   3   28.57    1.36
 -35  -1  -3   29.31    1.35
 -35   1  -3   29.22    1.40
 -35   1  -4   55.59    2.18
  35  -1   5   44.57    1.81
 -35  -1  -5   48.24    1.91
 -35   1  -5   45.15    1.88
  35  -1   6   11.44    0.87
 -35  -1  -6   11.41    0.89
 -35   1  -6   12.19    0.96
  35  -1   7   22.79    1.15
 -35  -1  -7   20.70    1.11
 -35   1  -7   20.92    1.15
  35  -1   8    5.10    0.68
 -35  -1  -8    4.40    0.74
 -35   1  -8    3.18    0.81
  35  -1   9   -0.37    0.65
 -35  -1  -9   -0.01    0.66
 -35   1  -9   -0.33    0.77
  35  -1  10   29.61    1.37
 -35  -1 -10   29.89    1.38
 -35   1 -10   31.68    1.51
  35  -1  11    5.23    0.75
 -35  -1 -11    4.64    0.74
 -35   1 -11    4.98    0.86
  35  -1  12   -0.51    0.65
 -35  -1 -12    0.46    0.84
 -35   1 -12    0.81    0.83
  35  -1  13   -0.68    0.76
 -35  -1 -13   -0.33    0.83
 -35   1 -13   -0.48    0.83
  35  -1  14    0.28    0.74
 -35  -1 -14    0.23    0.91
 -35   1 -14    1.45    0.84
  35  -1  15    0.04    0.74
 -35  -1 -15    0.59    0.91
 -35   1 -15    1.46    1.01
  35  -1  16   27.84    1.40
 -35  -1 -16   24.75    1.44
 -35   1 -16   28.59    1.55
 -35  -3  28    1.46    0.79
 -35   3  28    3.64    0.84
 -35   3  28    1.83    0.94
 -35  -3  27    9.77    0.94
 -35   3  27    8.48    0.98
 -35   3  27    7.42    0.91
 -35  -3  26   36.32    1.67
 -35   3  26   35.40    1.59
 -35   3  26   34.77    1.58
 -35  -3  25    0.25    0.88
 -35   3  25   -0.02    0.84
 -35  -3  24   -0.04    0.85
 -35   3  24   -0.51    0.92
 -35  -3  23    0.02    0.83
 -35   3  23    0.42    0.88
 -35  -3  22    4.20    0.92
 -35   3  22    3.90    0.93
 -35  -3  21    1.97    0.83
 -35   3  21    2.04    0.91
 -35  -3  20    2.69    0.86
 -35   3  20    3.66    0.93
 -35  -3  19    2.61    0.93
 -35   3  19    4.73    0.93
 -35  -3  18    1.50    0.93
 -35   3  18    1.76    0.91
 -35  -3  17   31.34    1.61
 -35   3  17   31.64    1.59
 -35  -3  16   57.93    2.33
 -35   3  16   53.20    2.20
 -35  -3  15    8.01    0.95
 -35   3  15    8.89    1.04
 -35  -3  14   61.57    2.40
 -35   3  14   65.00    2.52
 -35  -3  13    6.76    0.85
 -35  -3  13    4.55    0.90
 -35   3  13    5.68    0.96
 -35  -3  12   -1.01    0.88
 -35  -3  12    1.65    0.85
 -35   3  12   -0.31    0.87
 -35  -3  11   32.68    1.55
 -35  -3  11   31.28    1.53
 -35   3  11   32.91    1.58
 -35  -3  10   15.75    1.17
 -35  -3  10   17.76    1.14
 -35   3  10   15.24    1.13
 -35  -3   9    2.05    0.89
 -35  -3   9    1.68    0.87
 -35   3   9    1.00    0.84
 -35  -3   8    7.54    0.99
 -35  -3   8    6.92    0.99
 -35   3   8    6.79    0.91
 -35  -3   7    1.29    0.83
 -35  -3   7    0.08    0.80
 -35   3   7    0.55    0.80
 -35  -3   6   -0.49    0.78
 -35  -3   6    0.51    0.78
 -35   3   6    0.93    0.79
 -35  -3   5    0.38    0.79
 -35  -3   5    0.51    0.75
 -35   3   5    1.00    0.81
 -35  -3   4    0.37    0.77
 -35  -3   4   -0.02    0.80
 -35   3   4    0.11    0.81
 -35  -3   3   44.39    1.86
 -35  -3   3   45.53    1.83
 -35   3   3   46.11    1.95
  35  -3  -2   78.27    2.87
 -35  -3   2   83.45    2.99
 -35  -3   2   82.56    3.00
 -35   3   2   82.27    3.06
 -35   3   1   59.02    2.33
  35  -3   0   65.54    2.45
 -35  -3   0   62.37    2.30
 -35   3   0   61.74    2.42
  35  -3   1   21.64    1.14
 -35  -3  -1   19.43    0.97
 -35  -3  -1   18.38    0.94
 -35   3  -1   24.80    1.27
  35  -3   2    5.86    0.71
 -35  -3  -2    3.42    0.57
 -35  -3  -2    4.13    0.60
 -35   3  -2    5.79    0.86
  35  -3   3   20.21    1.07
 -35  -3  -3   20.25    0.94
 -35   3  -3   18.96    1.10
  35  -3   4    1.90    0.66
 -35   3  -4    1.74    0.77
  35  -3   5    1.00    0.64
 -35   3  -5    0.42    0.75
  35  -3   6    5.05    0.68
 -35   3  -6    5.69    0.83
  35  -3   7   21.27    1.09
 -35   3  -7   22.61    1.23
  35  -3   8    5.01    0.70
 -35   3  -8    3.36    0.89
  35  -3   9    1.29    0.65
 -35   3  -9    1.31    0.72
  35  -3  10   69.47    2.58
 -35   3 -10   71.81    2.71
  35  -3  11    8.83    0.83
 -35   3 -11    8.19    1.00
  35  -3  12    6.07    0.79
 -35   3 -12    6.10    0.94
  35  -3  13    7.99    0.83
 -35   3 -13   10.18    1.00
  35  -3  14    2.58    0.77
 -35   3 -14    1.21    0.78
  35  -3  15    0.57    0.74
 -35   3 -15    1.77    0.93
 -35  -5  24    2.39    0.86
 -35   5  24    1.96    0.91
 -35  -5  23   18.33    1.22
 -35   5  23   16.43    1.14
 -35  -5  22   31.22    1.50
 -35   5  22   30.41    1.50
 -35  -5  21    0.32    0.96
 -35   5  21   -0.92    0.84
 -35  -5  20    8.25    1.00
 -35   5  20    7.22    0.94
 -35  -5  19    2.56    0.97
 -35   5  19    1.83    0.88
 -35  -5  18    7.12    1.02
 -35   5  18    7.02    0.98
 -35  -5  17    8.93    1.05
 -35   5  17    7.73    0.96
 -35  -5  16    0.47    0.91
 -35   5  16   -0.42    0.87
 -35  -5  15    5.25    0.98
 -35   5  15    2.71    0.84
 -35  -5  14    6.50    0.99
 -35   5  14    6.66    0.93
 -35  -5  13   56.27    2.27
 -35   5  13   53.69    2.14
 -35  -5  12   -0.50    0.88
 -35   5  12    1.71    0.86
 -35  -5  11   13.43    1.08
 -35   5  11   12.29    1.04
 -35  -5  10   14.59    1.11
 -35  -5  10   14.59    1.09
 -35   5  10   17.01    1.11
 -35  -5   9    2.48    0.86
 -35  -5   9    1.75    0.77
 -35   5   9    1.40    0.86
 -35  -5   8    1.10    0.89
 -35  -5   8    0.42    0.78
 -35   5   8   -0.06    0.78
 -35  -5   7    6.71    0.85
 -35  -5   7    6.97    0.95
 -35   5   7    7.11    0.88
 -35  -5   6   38.29    1.63
 -35  -5   6   40.96    1.78
 -35   5   6   35.41    1.57
  35  -5  -5   12.51    0.82
 -35  -5   5   10.93    1.03
 -35  -5   5   10.48    0.89
 -35   5   5   13.80    0.93
  35  -5  -4    9.75    0.80
 -35  -5   4    7.64    0.72
 -35  -5   4    7.02    0.86
 -35   5   4    6.99    0.80
  35  -5  -3   19.73    1.06
 -35  -5   3   16.76    0.94
 -35  -5   3   19.12    0.91
 -35   5   3   17.63    1.05
  35  -5  -2   16.53    0.96
 -35   5   2   16.73    1.00
  35  -5  -1   16.59    0.92
 -35   5   1   17.96    1.10
  35  -5   0   12.39    0.87
 -35   5   0   13.60    1.00
  35  -5   1   24.46    1.22
 -35   5  -1   23.83    1.25
  35  -5   2    0.21    0.58
 -35   5  -2    0.53    0.73
  35  -5   3    0.19    0.64
 -35   5  -3    2.77    0.78
  35  -5   4   37.05    1.58
 -35   5  -4   34.93    1.53
  35  -5   5   13.86    0.94
 -35   5  -5   13.83    0.96
  35  -5   6   11.96    0.86
 -35   5  -6   12.04    0.92
  35  -5   7    6.52    0.73
 -35   5  -7    6.04    0.80
  35  -5   8    2.20    0.65
 -35   5  -8    1.08    0.72
  35  -5   9    2.46    0.66
 -35   5  -9    3.63    0.81
  35  -5  10    2.45    0.72
 -35   5 -10    3.58    0.77
  35  -5  11    6.58    0.86
 -35   5 -11    6.55    0.93
 -35  -7  15    0.89    0.96
 -35   7  15    1.11    0.77
 -35  -7  14   -1.06    0.96
 -35   7  14   -0.05    0.76
 -35  -7  13    1.62    0.96
 -35   7  13    1.89    0.74
 -35  -7  12    0.87    1.02
 -35   7  12    2.12    0.74
 -35  -7  11    3.51    1.01
 -35   7  11    4.27    0.77
 -35  -7  10    2.37    0.97
 -35   7  10    2.71    0.72
 -35  -7   9   20.21    1.22
 -35  -7   9   18.31    1.45
 -35   7   9   19.68    1.05
 -35  -7   8    5.92    1.19
 -35  -7   8    5.83    0.98
 -35   7   8    5.43    0.70
 -35  -7   7    9.00    0.96
 -35  -7   7    8.07    1.16
 -35   7   7    8.38    0.75
 -35  -7   6    1.66    0.86
 -35  -7   6    0.08    0.72
 -35   7   6    0.59    0.70
  35  -7  -5   -1.06    0.61
 -35   7   5    0.34    0.68
  35  -7  -4    3.70    0.59
 -35   7   4    5.63    0.78
  35  -7  -3    1.07    0.58
 -35   7   3    0.82    0.66
  35  -7  -2    2.86    0.61
 -35   7   2    2.96    0.72
  35  -7  -1    1.72    0.58
 -35   7   1    0.59    0.75
  35  -7   0    2.98    0.66
 -35   7   0    2.77    0.70
  35  -7   1   -0.17    0.66
 -35   7  -1   -0.01    0.72
  35  -7   2    0.54    0.58
 -35   7  -2    0.31    0.87
 -36   0  29   -0.46    0.75
 -36   0  29    0.20    0.82
 -36   0  28    3.50    0.77
 -36   0  28    3.38    0.85
 -36   0  27    0.71    0.77
 -36   0  27   -1.27    0.91
 -36   0  26   52.51    2.05
 -36   0  26   50.96    2.07
 -36   0  25   -0.54    0.83
 -36   0  25    0.06    0.81
 -36   0  24   24.08    1.28
 -36   0  24   22.57    1.26
 -36   0  23   -0.44    0.74
 -36   0  23   -0.44    0.85
 -36   0  22    2.02    0.91
 -36   0  22    0.45    0.85
 -36   0  21    1.30    0.90
 -36   0  21    0.01    0.80
 -36   0  20    9.32    0.98
 -36   0  20    9.00    1.00
 -36   0  19   -0.39    0.91
 -36   0  19    0.57    0.90
 -36   0  18    1.97    0.89
 -36   0  17    0.96    0.90
 -36   0  16    3.58    0.94
 -36   0  15    1.16    0.91
 -36   0  14   39.41    1.80
 -36   0  13   -0.88    0.90
 -36   0  12   24.16    1.34
 -36   0  11   -0.84    0.90
 -36   0  10   97.32    3.55
 -36   0   9    0.63    0.86
 -36   0   8   -0.24    0.93
 -36   0   7   -0.88    0.83
 -36   0   6   66.52    2.59
 -36   0   5    0.40    0.83
 -36   0   4    6.85    0.96
 -36   0   3   -1.20    0.80
 -36   0   2   33.00    1.55
 -36   0   1   -0.35    0.74
 -36   0   0   79.96    2.95
 -36   0  -1    1.19    0.73
 -36   0  -2   45.42    1.89
 -36   0  -3   -0.54    0.72
 -36   0  -4    7.21    0.84
 -36   0  -5   -0.72    0.69
 -36   0  -6    2.21    0.72
 -36   0  -7   -0.12    0.70
 -36   0  -8    1.84    0.82
  36   0   9    0.16    0.59
 -36   0  -9    0.24    0.77
  36   0  10   -0.27    0.70
 -36   0 -10    1.39    0.82
  36   0  11   -1.70    0.71
 -36   0 -11   -0.20    0.87
  36   0  12    5.30    0.84
 -36   0 -12    5.54    0.88
  36   0  13   -1.39    0.85
 -36   0 -13   -0.90    0.88
  36   0  14   79.79    2.98
 -36   0 -14   89.41    3.29
  36   0  15    0.22    0.90
 -36   0 -15    0.04    0.90
  36   0  16   11.64    1.15
 -36   0 -16   10.76    1.02
 -36  -2  29   -0.07    0.75
 -36   2  29    0.49    0.74
 -36   2  29    0.36    0.98
 -36  -2  28    2.09    0.78
 -36   2  28    3.81    0.93
 -36   2  28    3.91    0.89
 -36  -2  27   -0.08    0.83
 -36   2  27    0.74    0.87
 -36   2  27    0.64    0.77
 -36  -2  26   -0.61    0.77
 -36   2  26   -0.04    0.81
 -36   2  26   -0.33    0.81
 -36  -2  25    9.87    1.04
 -36   2  25    9.99    1.00
 -36   2  25    9.14    0.99
 -36  -2  24    9.65    0.97
 -36   2  24   12.52    0.87
 -36   2  24    9.69    0.99
 -36  -2  23   22.25    1.29
 -36   2  23   22.13    1.26
 -36  -2  22    3.39    0.91
 -36   2  22    2.81    0.90
 -36  -2  21   29.38    1.50
 -36   2  21   25.96    1.40
 -36  -2  20   24.15    1.43
 -36   2  20   23.72    1.36
 -36  -2  19    7.74    1.06
 -36   2  19    8.15    1.05
 -36  -2  18   43.51    1.89
 -36   2  18   41.46    1.82
 -36  -2  17    1.09    0.89
 -36   2  17    1.44    0.92
 -36  -2  16   32.01    1.59
 -36  -2  16   35.78    1.69
 -36   2  16   32.08    1.59
 -36  -2  15    0.04    0.88
 -36  -2  15    0.13    0.95
 -36   2  15    0.80    0.94
 -36  -2  14   56.12    2.29
 -36  -2  14   60.04    2.45
 -36   2  14   55.92    2.28
 -36  -2  13   75.08    2.92
 -36  -2  13   73.35    2.79
 -36   2  13   76.17    2.90
 -36  -2  12   26.31    1.41
 -36  -2  12   29.34    1.52
 -36   2  12   27.14    1.43
 -36  -2  11   56.05    2.26
 -36  -2  11   57.43    2.32
 -36   2  11   55.67    2.25
 -36  -2  10    8.66    1.02
 -36  -2  10    6.77    0.92
 -36   2  10    7.92    0.98
 -36  -2   9   11.41    0.98
 -36  -2   9    9.71    0.99
 -36   2   9    9.79    0.99
 -36  -2   8   46.07    1.88
 -36  -2   8   46.18    1.93
 -36   2   8   45.96    1.94
 -36  -2   7    0.56    0.79
 -36   2   7    0.17    0.86
 -36  -2   6   15.60    1.13
 -36   2   6   13.89    1.10
 -36  -2   5    0.43    0.84
 -36   2   5    0.92    0.81
 -36  -2   4   42.15    1.78
 -36   2   4   41.17    1.78
 -36  -2   3    0.15    0.72
 -36   2   3    0.11    0.79
 -36  -2   2   10.09    0.92
 -36   2   2   12.38    1.02
 -36  -2   1    2.36    0.75
 -36   2   1    2.68    0.85
  36  -2   0   41.16    1.68
 -36  -2   0   38.54    1.63
 -36   2   0   42.27    1.81
  36  -2   1   20.56    1.10
 -36  -2  -1   18.53    1.03
 -36   2  -1   19.51    1.14
  36  -2   2   36.45    1.57
 -36  -2  -2   34.99    1.48
 -36   2  -2   37.26    1.67
  36  -2   3   18.80    1.13
 -36  -2  -3   20.20    1.08
 -36   2  -3   19.40    1.12
  36  -2   4    0.61    0.63
 -36  -2  -4    0.10    0.66
 -36   2  -4   -0.47    0.78
  36  -2   5    4.73    0.78
 -36  -2  -5    3.21    0.81
 -36   2  -5    3.73    0.81
  36  -2   6    3.20    0.71
 -36  -2  -6    3.24    0.77
 -36   2  -6    4.10    0.83
  36  -2   7    0.17    0.59
 -36  -2  -7    1.24    0.75
 -36   2  -7    0.53    0.78
  36  -2   8   34.40    1.49
 -36  -2  -8   38.65    1.62
 -36   2  -8   32.01    1.56
  36  -2   9    8.45    0.79
 -36  -2  -9    7.66    0.82
 -36   2  -9    7.16    0.91
  36  -2  10   19.20    1.10
 -36  -2 -10   19.09    0.96
 -36   2 -10   21.85    1.24
  36  -2  11    3.00    0.74
 -36  -2 -11    2.32    0.51
 -36   2 -11    3.06    0.89
  36  -2  12   -0.08    0.74
 -36  -2 -12    0.87    0.42
 -36   2 -12    0.67    0.84
  36  -2  13    2.76    0.74
 -36   2 -13    2.47    0.87
  36  -2  14    0.04    0.77
 -36   2 -14    0.32    0.96
  36  -2  15    5.46    0.87
 -36   2 -15    4.14    0.91
 -36  -4  26    8.46    0.99
 -36   4  26    4.65    0.97
 -36  -4  25    1.51    0.90
 -36   4  25   -0.20    0.92
 -36  -4  24    1.34    0.85
 -36   4  24    2.46    0.89
 -36  -4  23    0.14    0.86
 -36   4  23   -0.94    0.85
 -36  -4  22    0.88    0.92
 -36   4  22    0.66    0.88
 -36  -4  21    6.03    0.96
 -36   4  21    6.88    0.97
 -36  -4  20    9.88    0.98
 -36   4  20   10.23    1.04
 -36  -4  19   14.41    1.19
 -36   4  19   16.70    1.17
 -36  -4  18    1.12    0.88
 -36   4  18   -0.18    0.84
 -36  -4  17   61.89    2.43
 -36   4  17   63.83    2.48
 -36  -4  16    2.05    0.97
 -36   4  16    1.32    0.85
 -36  -4  15   -0.27    0.86
 -36   4  15    0.53    0.84
 -36  -4  14   18.75    1.29
 -36   4  14   22.93    1.33
 -36  -4  13   -0.47    0.84
 -36   4  13    0.05    0.87
 -36  -4  12   -0.58    0.82
 -36  -4  12   -0.53    0.84
 -36   4  12    0.32    0.86
 -36  -4  11    0.83    0.90
 -36  -4  11    1.29    0.91
 -36   4  11    2.85    0.85
 -36  -4  10    2.01    0.89
 -36  -4  10    1.92    0.82
 -36   4  10    2.69    0.78
 -36  -4   9    5.62    0.90
 -36  -4   9    6.50    0.96
 -36   4   9    6.21    0.89
 -36  -4   8   20.39    1.20
 -36  -4   8   21.60    1.30
 -36   4   8   21.52    1.26
 -36  -4   7   42.57    1.81
 -36  -4   7   45.50    1.94
 -36   4   7   43.32    1.84
 -36  -4   6    7.25    0.88
 -36  -4   6    6.18    0.96
 -36   4   6    8.24    0.89
 -36  -4   5   38.96    1.73
 -36  -4   5   37.54    1.62
 -36   4   5   37.92    1.65
 -36  -4   4    3.86    0.82
 -36  -4   4    1.81    0.72
 -36   4   4    3.31    0.75
  36  -4  -3    9.20    0.79
 -36  -4   3    8.76    0.78
 -36  -4   3    7.82    0.83
 -36   4   3   10.93    0.87
  36  -4  -2   15.64    0.96
 -36  -4   2   17.35    1.01
 -36  -4   2   17.86    0.94
 -36   4   2   19.99    1.09
  36  -4  -1    6.84    0.74
 -36  -4   1    4.49    0.59
 -36  -4   1    4.33    0.64
 -36   4   1    5.28    0.75
  36  -4   0    4.28    0.67
 -36  -4   0    3.20    0.49
 -36  -4   0    3.27    0.48
 -36   4   0    4.52    0.78
  36  -4   1    0.48    0.65
 -36   4  -1    1.12    0.69
  36  -4   2   30.96    1.38
 -36   4  -2   28.87    1.38
  36  -4   3    0.16    0.59
 -36   4  -3    0.91    0.77
  36  -4   4    2.63    0.64
 -36   4  -4    2.41    0.74
  36  -4   5   26.83    1.29
 -36   4  -5   27.77    1.42
  36  -4   6   11.48    0.89
 -36   4  -6   10.08    0.96
  36  -4   7   30.02    1.38
 -36   4  -7   31.05    1.45
  36  -4   8   11.26    0.89
 -36   4  -8   11.79    1.04
  36  -4   9   26.86    1.29
 -36   4  -9   25.28    1.37
  36  -4  10    2.38    0.70
 -36   4 -10    2.30    0.76
  36  -4  11    0.88    0.74
 -36   4 -11    2.30    0.89
  36  -4  12    2.78    0.71
 -36   4 -12    3.13    0.80
 -36  -6  20    1.26    0.95
 -36   6  20    0.83    0.96
 -36  -6  19    1.59    1.00
 -36   6  19    3.31    0.83
 -36  -6  18    5.75    1.05
 -36   6  18    6.44    0.90
 -36  -6  17    0.23    0.96
 -36   6  17    1.06    0.77
 -36  -6  16    2.98    0.93
 -36   6  16    0.65    0.79
 -36  -6  15    0.31    0.91
 -36   6  15    1.43    0.73
 -36  -6  14    2.29    0.99
 -36   6  14    2.15    0.77
 -36  -6  13   10.22    1.11
 -36   6  13    9.39    0.89
 -36  -6  12    1.50    0.95
 -36   6  12    1.18    0.81
 -36  -6  11   51.61    2.18
 -36   6  11   48.43    1.93
 -36  -6  10   23.09    1.47
 -36  -6  10   21.51    1.34
 -36   6  10   18.71    1.11
 -36  -6   9    0.56    0.84
 -36  -6   9    0.35    1.01
 -36   6   9    0.05    0.75
 -36  -6   8    1.36    0.84
 -36  -6   8   -0.01    1.02
 -36   6   8    0.98    0.68
 -36  -6   7    1.17    0.93
 -36  -6   7    1.58    0.84
 -36   6   7    1.54    0.70
 -36  -6   6    7.94    0.86
 -36  -6   6    6.62    1.02
 -36   6   6    9.40    0.86
 -36  -6   5    5.26    0.90
 -36  -6   5    6.30    0.72
 -36   6   5    7.27    0.81
  36  -6  -4    0.83    0.61
 -36   6   4    0.93    0.67
  36  -6  -3   -0.29    0.62
 -36   6   3   -0.02    0.71
  36  -6  -2    0.65    0.66
 -36   6   2    0.46    0.73
  36  -6  -1   10.71    0.79
 -36   6   1   10.57    0.86
  36  -6   0    3.50    0.68
 -36   6   0    1.07    0.72
  36  -6   1    7.68    0.75
 -36   6  -1    8.62    0.82
  36  -6   2    4.27    0.66
 -36   6  -2    2.81    0.76
  36  -6   3    3.36    0.66
 -36   6  -3    3.99    0.82
  36  -6   4    1.47    0.61
 -36   6  -4    2.23    0.81
  36  -6   5   22.10    1.11
 -36   6  -5   20.29    1.16
  36  -6   6    1.18    0.67
 -36   6  -6    0.62    0.79
 -37  -1  29    3.78    0.78
 -37   1  29    3.43    0.79
 -37   1  29    3.71    0.90
 -37  -1  28   49.81    2.01
 -37   1  28   48.10    1.91
 -37   1  28   48.22    1.92
 -37  -1  27    3.07    0.71
 -37   1  27    0.15    0.84
 -37   1  27    1.72    0.79
 -37  -1  26   -0.31    0.83
 -37   1  26    0.72    0.72
 -37   1  26    1.35    0.84
 -37  -1  25    1.47    0.78
 -37   1  25    1.21    0.87
 -37   1  25    1.78    0.87
 -37  -1  24    0.83    0.87
 -37   1  24    2.86    0.87
 -37   1  24    2.52    0.80
 -37  -1  23    2.73    0.89
 -37   1  23    1.09    0.85
 -37   1  23    0.76    0.80
 -37  -1  22    3.23    0.85
 -37  -1  22    3.28    0.93
 -37   1  22    1.69    0.90
 -37   1  22    3.28    0.90
 -37  -1  21    1.33    0.92
 -37  -1  21    0.92    0.81
 -37   1  21    1.03    0.86
 -37  -1  20    3.11    0.93
 -37  -1  20    4.05    0.90
 -37   1  20    3.18    0.95
 -37  -1  19    0.20    0.84
 -37  -1  19    0.56    0.91
 -37   1  19    0.49    0.92
 -37  -1  18    1.47    0.85
 -37  -1  18    0.52    0.90
 -37   1  18    1.05    0.84
 -37  -1  17   14.76    1.12
 -37  -1  17   17.20    1.27
 -37   1  17   15.96    1.22
 -37  -1  16   12.97    1.16
 -37  -1  16   14.86    1.13
 -37   1  16   15.59    1.16
 -37  -1  15  122.60    4.32
 -37  -1  15  121.50    4.28
 -37   1  15  118.30    4.21
 -37  -1  14    4.03    0.95
 -37   1  14    2.91    0.91
 -37  -1  13   82.68    3.09
 -37   1  13   81.72    3.08
 -37  -1  12   48.09    2.06
 -37   1  12   46.02    2.00
 -37  -1  11    7.84    1.05
 -37   1  11   10.20    1.07
 -37  -1  10    2.19    0.87
 -37   1  10    2.24    0.91
 -37  -1   9   21.72    1.32
 -37   1   9   21.26    1.26
 -37  -1   8    9.90    1.05
 -37   1   8   11.00    1.01
 -37  -1   7    0.55    0.85
 -37   1   7    0.78    0.87
 -37  -1   6    0.82    0.81
 -37   1   6    0.45    0.81
 -37  -1   5    5.64    0.90
 -37   1   5    6.25    0.90
 -37  -1   4   48.96    2.02
 -37   1   4   50.22    2.09
 -37  -1   3   38.09    1.68
 -37   1   3   41.55    1.82
 -37  -1   2   30.90    1.49
 -37   1   2   29.71    1.49
 -37  -1   1   30.86    1.48
 -37   1   1   33.62    1.60
 -37  -1   0   18.02    1.09
 -37   1   0   18.50    1.13
 -37  -1  -1   12.59    0.93
 -37   1  -1   15.64    1.09
 -37  -1  -2   10.84    0.89
 -37   1  -2    9.34    0.92
 -37  -1  -3    0.31    0.72
 -37   1  -3    0.54    0.77
  37  -1   4    9.41    0.82
 -37  -1  -4   11.31    0.91
 -37   1  -4    8.04    0.87
  37  -1   5    1.03    0.68
 -37  -1  -5    1.27    0.71
 -37   1  -5    0.89    0.77
  37  -1   6   -0.13    0.61
 -37  -1  -6    0.85    0.73
 -37   1  -6    1.27    0.82
  37  -1   7    7.81    0.79
 -37  -1  -7    7.92    0.93
 -37   1  -7    8.34    0.90
  37  -1   8   33.71    1.48
 -37  -1  -8   30.61    1.43
 -37   1  -8   32.44    1.53
  37  -1   9    1.87    0.66
 -37  -1  -9    2.44    0.74
 -37   1  -9    1.54    0.87
  37  -1  10    2.20    0.73
 -37  -1 -10    1.16    0.82
 -37   1 -10    0.61    0.86
  37  -1  11   14.38    1.00
 -37  -1 -11   13.53    1.15
 -37   1 -11   14.75    1.18
  37  -1  12    0.73    0.75
 -37  -1 -12    2.67    1.03
 -37   1 -12    1.41    0.85
  37  -1  13   -0.89    0.78
 -37  -1 -13    1.25    1.05
 -37   1 -13    0.50    0.92
  37  -1  14   28.70    1.42
 -37  -1 -14   31.68    1.62
 -37   1 -14   28.15    1.53
  37  -1  15    0.99    0.94
 -37  -1 -15    0.65    1.12
 -37   1 -15    0.41    0.92
 -37  -3  27    0.90    0.75
 -37   3  27    0.25    0.91
 -37   3  27   -0.15    0.75
 -37  -3  26   -0.17    0.84
 -37   3  26    1.01    0.70
 -37   3  26    1.01    0.85
 -37  -3  25   10.10    1.03
 -37   3  25    9.44    1.02
 -37  -3  24    0.23    0.86
 -37   3  24    0.16    0.81
 -37  -3  23    0.59    0.84
 -37   3  23    1.85    0.89
 -37  -3  22   40.97    1.79
 -37   3  22   38.24    1.70
 -37  -3  21   31.22    1.53
 -37   3  21   29.46    1.48
 -37  -3  20   20.49    1.25
 -37   3  20   20.76    1.21
 -37  -3  19   16.97    1.18
 -37   3  19   16.52    1.12
 -37  -3  18    2.05    0.88
 -37   3  18    0.84    0.92
 -37  -3  17   10.66    1.03
 -37   3  17   11.96    1.07
 -37  -3  16    2.43    1.00
 -37   3  16    3.00    0.90
 -37  -3  15   -1.45    0.84
 -37  -3  15    0.30    0.93
 -37   3  15   -0.50    0.83
 -37  -3  14   11.71    1.05
 -37  -3  14   10.83    1.14
 -37   3  14    8.53    0.99
 -37  -3  13    0.35    0.88
 -37  -3  13    2.66    0.88
 -37   3  13    2.46    0.89
 -37  -3  12    0.47    0.83
 -37  -3  12   -1.29    0.90
 -37   3  12    1.20    0.84
 -37  -3  11   13.57    1.17
 -37  -3  11   15.84    1.15
 -37   3  11   15.79    1.15
 -37  -3  10   21.36    1.26
 -37  -3  10   19.50    1.23
 -37   3  10   20.64    1.25
 -37  -3   9   51.24    2.08
 -37  -3   9   52.87    2.17
 -37   3   9   49.88    2.09
 -37  -3   8   81.11    3.03
 -37  -3   8   82.47    3.05
 -37   3   8   83.12    3.08
 -37  -3   7   61.57    2.43
 -37  -3   7   65.90    2.54
 -37   3   7   61.20    2.39
 -37  -3   6    1.86    0.90
 -37  -3   6    0.09    0.85
 -37   3   6    0.77    0.80
 -37  -3   5   11.38    1.00
 -37  -3   5   10.35    1.03
 -37   3   5    8.33    0.95
 -37  -3   4    2.53    0.83
 -37  -3   4    2.46    0.84
 -37   3   4    3.81    0.80
 -37  -3   3    8.62    0.92
 -37  -3   3    8.58    0.90
 -37   3   3    9.21    0.90
 -37  -3   2    2.15    0.78
 -37  -3   2    1.33    0.73
 -37   3   2    2.22    0.75
  37  -3  -1    7.84    0.78
 -37  -3   1    7.78    0.76
 -37   3   1    8.32    0.85
  37  -3   0    0.99    0.65
 -37  -3   0    1.01    0.68
 -37  -3   0    1.69    0.64
 -37   3   0    1.73    0.77
  37  -3   1    3.90    0.65
 -37  -3  -1    3.30    0.68
 -37  -3  -1    2.76    0.62
 -37   3  -1    3.44    0.76
  37  -3   2    3.32    0.67
 -37  -3  -2    3.34    0.69
 -37  -3  -2    1.97    0.60
 -37   3  -2    3.62    0.85
  37  -3   3   -0.17    0.56
 -37  -3  -3   -0.08    0.49
 -37  -3  -3    0.34    0.61
 -37   3  -3   -0.36    0.70
  37  -3   4   33.96    1.48
 -37   3  -4   36.64    1.63
  37  -3   5   40.85    1.69
 -37   3  -5   41.96    1.78
  37  -3   6    3.84    0.74
 -37   3  -6    3.70    0.88
  37  -3   7    1.69    0.69
 -37   3  -7   -0.65    0.80
  37  -3   8    8.29    0.83
 -37   3  -8    9.42    0.93
  37  -3   9   11.76    0.91
 -37   3  -9   11.78    1.05
  37  -3  10   -0.18    0.65
 -37   3 -10   -0.23    0.86
  37  -3  11   16.69    1.07
 -37   3 -11   16.43    1.17
  37  -3  12   17.99    1.09
 -37   3 -12   18.71    1.25
  37  -3  13    1.20    0.74
 -37   3 -13   -0.26    0.79
 -37  -5  23    2.11    0.92
 -37  -5  22    3.93    0.98
 -37   5  22    3.15    0.90
 -37  -5  21   12.31    1.06
 -37   5  21   13.20    1.03
 -37  -5  20   13.06    1.15
 -37   5  20   12.20    1.02
 -37  -5  19   -0.12    0.94
 -37   5  19    0.55    0.80
 -37  -5  18    1.54    0.99
 -37   5  18    0.63    0.86
 -37  -5  17   -0.68    0.98
 -37   5  17    0.57    0.86
 -37  -5  16    5.17    1.08
 -37   5  16    7.03    0.93
 -37  -5  15    1.06    0.98
 -37   5  15    1.01    0.82
 -37  -5  14   15.30    1.24
 -37   5  14   15.43    1.05
 -37  -5  13    2.80    0.99
 -37   5  13    2.46    0.83
 -37  -5  12    0.18    0.92
 -37  -5  12    1.16    0.95
 -37   5  12    2.14    0.75
 -37  -5  11   17.40    1.25
 -37  -5  11   17.05    1.21
 -37   5  11   18.79    1.15
 -37  -5  10   13.76    1.13
 -37  -5  10   12.66    1.09
 -37   5  10   13.91    0.99
 -37  -5   9    2.65    1.02
 -37  -5   9    1.50    0.85
 -37   5   9    1.91    0.72
 -37  -5   8   14.49    1.27
 -37  -5   8   14.96    1.14
 -37   5   8   15.15    1.01
 -37  -5   7    9.84    1.07
 -37  -5   7   10.07    0.94
 -37   5   7    8.35    0.87
 -37  -5   6    4.28    0.89
 -37  -5   6    4.71    0.86
 -37   5   6    5.21    0.83
 -37  -5   5   10.64    1.03
 -37  -5   5   10.46    0.94
 -37   5   5   12.89    0.94
  37  -5  -4   11.86    0.81
 -37  -5   4    9.32    0.84
 -37  -5   4   11.31    1.01
 -37   5   4   11.17    0.93
  37  -5  -3    6.02    0.74
 -37  -5   3    3.78    0.67
 -37  -5   3    3.57    0.59
 -37   5   3    4.17    0.76
  37  -5  -2   41.28    1.68
 -37   5   2   41.58    1.73
  37  -5  -1    3.86    0.70
 -37   5   1    3.89    0.78
  37  -5   0    2.61    0.66
 -37   5   0    2.99    0.68
  37  -5   1    0.26    0.67
 -37   5  -1    0.56    0.69
  37  -5   2   -0.13    0.73
 -37   5  -2   -0.44    0.72
  37  -5   3    0.72    0.65
 -37   5  -3    0.72    0.78
  37  -5   4   -0.47    0.59
 -37   5  -4   -0.08    0.78
  37  -5   5   25.65    1.21
 -37   5  -5   25.02    1.27
  37  -5   6    7.55    0.78
 -37   5  -6    5.53    0.82
  37  -5   7    0.50    0.65
 -37   5  -7    1.22    0.73
  37  -5   8    3.62    0.77
 -37   5  -8    3.00    0.77
 -37  -7  11   -0.04    1.31
 -37  -7  11    0.30    1.06
 -37  -7  10    3.47    1.11
 -37  -7  10    3.79    1.43
 -37   7  10    3.47    0.73
 -37  -7   9    1.56    1.12
 -37  -7   9    2.22    1.25
 -37   7   9    2.47    0.70
 -37  -7   8   -1.79    1.06
 -37  -7   8    1.84    1.18
 -37   7   8   -0.26    0.63
 -37  -7   7    0.22    1.12
 -37  -7   7   -1.20    0.90
 -37   7   7   -0.23    0.68
 -37   7   6    5.20    0.71
 -37   7   5    2.17    0.73
  37  -7  -4   -0.45    0.62
 -37   7   4    1.14    0.67
 -38   0  28    6.05    0.86
 -38   0  28    5.92    0.99
 -38   0  27   -0.01    0.72
 -38   0  27   -0.17    0.74
 -38   0  26    3.69    0.80
 -38   0  26    4.22    0.90
 -38   0  25    0.80    0.73
 -38   0  25    0.21    0.90
 -38   0  24   38.42    1.72
 -38   0  24   39.26    1.74
 -38   0  23    1.38    0.78
 -38   0  23   -0.10    0.77
 -38   0  22   28.82    1.50
 -38   0  22   27.14    1.43
 -38   0  21    0.06    0.85
 -38   0  21   -0.73    0.85
 -38   0  20   38.58    1.69
 -38   0  20   35.13    1.63
 -38   0  19    0.48    0.91
 -38   0  19    1.21    0.89
 -38   0  18   -0.27    0.88
 -38   0  17   -1.10    0.89
 -38   0  16   92.35    3.38
 -38   0  15   -0.30    0.88
 -38   0  14    0.99    0.94
 -38   0  13    1.21    0.86
 -38   0  12    9.65    1.07
 -38   0  11   -0.18    0.92
 -38   0  10   -0.05    0.86
 -38   0   9    0.57    0.88
 -38   0   8    7.39    0.98
 -38   0   7    0.74    0.86
 -38   0   6   74.29    2.80
 -38   0   5    1.27    0.83
 -38   0   4   90.81    3.33
 -38   0   3    0.10    0.83
 -38   0   2    3.37    0.86
 -38   0   1   -0.13    0.76
 -38   0   0    0.35    0.75
 -38   0  -1   -0.17    0.77
 -38   0  -2    6.65    0.86
 -38   0  -3   -0.17    0.70
 -38   0  -4    1.66    0.78
 -38   0  -5    1.61    0.78
 -38   0  -6   74.68    2.78
 -38   0  -7    0.09    0.78
 -38   0  -8   64.88    2.50
 -38   0  -9   -1.04    0.89
 -38   0 -10   18.52    1.27
 -38   0 -11    0.20    0.91
 -38   0 -12   14.99    1.21
  38   0  13    0.52    0.83
 -38   0 -13   -0.50    0.93
  38   0  14    0.55    0.96
 -38   0 -14    0.88    0.92
 -38  -2  27    2.02    0.82
 -38   2  27    0.97    0.82
 -38   2  27    0.28    0.73
 -38  -2  26    7.43    0.89
 -38   2  26    7.04    0.85
 -38   2  26    7.90    0.99
 -38  -2  25    2.90    0.88
 -38   2  25    3.21    0.80
 -38   2  25    1.78    0.83
 -38  -2  24    4.92    0.91
 -38   2  24    3.43    0.89
 -38  -2  23    4.76    0.92
 -38   2  23    3.70    0.90
 -38  -2  22   65.14    2.52
 -38   2  22   68.04    2.58
 -38  -2  21    0.03    0.85
 -38   2  21    0.74    0.88
 -38  -2  20    4.19    0.88
 -38   2  20    4.69    0.95
 -38  -2  19   63.63    2.45
 -38  -2  19   65.76    2.53
 -38   2  19   66.02    2.55
 -38  -2  18   18.57    1.27
 -38  -2  18   19.68    1.21
 -38   2  18   18.18    1.16
 -38   2  17   48.29    2.04
 -38  -2  16   15.85    1.22
 -38  -2  16   17.12    1.28
 -38   2  16   16.04    1.20
 -38  -2  15    1.90    0.93
 -38  -2  15   -0.28    0.85
 -38   2  15    1.44    0.89
 -38  -2  14    0.83    0.95
 -38  -2  14    1.03    0.88
 -38   2  14    0.43    0.88
 -38  -2  13    4.69    0.92
 -38  -2  13    4.17    0.90
 -38   2  13    5.62    0.92
 -38  -2  12   14.00    1.17
 -38  -2  12   16.19    1.08
 -38   2  12   16.99    1.15
 -38  -2  11    2.29    1.00
 -38  -2  11    0.66    0.93
 -38   2  11    1.23    0.84
 -38  -2  10  105.40    3.79
 -38  -2  10   96.71    3.53
 -38   2  10   98.97    3.59
 -38  -2   9    1.05    0.93
 -38  -2   9    1.75    0.92
 -38   2   9    1.64    0.84
 -38  -2   8    7.04    0.94
 -38  -2   8    7.41    0.93
 -38   2   8    5.95    0.90
 -38  -2   7    1.32    0.88
 -38   2   7    1.03    0.86
 -38  -2   6    1.31    0.88
 -38   2   6    2.41    0.86
 -38  -2   5   39.12    1.72
 -38   2   5   42.20    1.81
 -38  -2   4   10.81    0.96
 -38   2   4   11.86    1.04
 -38  -2   3   54.74    2.16
 -38   2   3   58.71    2.32
 -38  -2   2    6.08    0.88
 -38   2   2    7.35    0.92
 -38  -2   1    3.18    0.82
 -38   2   1    3.28    0.77
 -38  -2   0   47.51    1.91
 -38   2   0   49.16    1.98
 -38  -2  -1    2.29    0.74
 -38   2  -1    0.18    0.81
  38  -2   2   28.79    1.30
 -38  -2  -2   26.57    1.26
 -38   2  -2   26.97    1.38
  38  -2   3    0.44    0.68
 -38  -2  -3    0.38    0.71
 -38   2  -3    0.93    0.69
  38  -2   4    2.68    0.67
 -38  -2  -4    2.02    0.81
 -38   2  -4    0.08    0.75
  38  -2   5   -0.64    0.60
 -38  -2  -5    1.22    0.83
 -38   2  -5    1.17    0.81
  38  -2   6    7.59    0.74
 -38  -2  -6    5.69    0.94
 -38   2  -6    6.50    0.95
  38  -2   7   15.46    1.00
 -38  -2  -7   16.61    1.21
 -38   2  -7   15.20    1.11
  38  -2   8    3.63    0.72
 -38  -2  -8    4.61    0.90
 -38   2  -8    3.57    0.89
  38  -2   9   28.89    1.34
 -38  -2  -9   28.92    1.27
 -38   2  -9   28.35    1.44
  38  -2  10    3.07    0.73
 -38  -2 -10    4.05    0.61
 -38   2 -10    1.92    0.90
  38  -2  11   -0.10    0.77
 -38   2 -11   -0.46    0.88
  38  -2  12   17.67    1.12
 -38   2 -12   16.94    1.18
  38  -2  13    0.40    0.82
 -38   2 -13    1.14    0.91
 -38  -4  24    1.87    0.92
 -38   4  24    1.07    0.87
 -38  -4  23    5.31    0.98
 -38   4  23    4.31    0.88
 -38  -4  22    3.52    0.88
 -38   4  22    0.99    0.86
 -38  -4  21   -0.98    0.84
 -38   4  21   -0.62    0.80
 -38  -4  20    0.52    1.00
 -38   4  20    1.75    0.86
 -38  -4  19   -0.73    0.90
 -38   4  19    0.41    0.84
 -38  -4  18    0.63    0.94
 -38   4  18    0.08    0.87
 -38  -4  17    0.76    0.93
 -38   4  17    0.31    0.85
 -38  -4  16    6.89    1.02
 -38   4  16    8.62    0.97
 -38  -4  15    8.14    1.06
 -38   4  15    9.01    0.96
 -38  -4  14   -0.15    0.95
 -38  -4  14    0.67    0.88
 -38   4  14   -0.60    0.89
 -38  -4  13   23.35    1.32
 -38  -4  13   24.25    1.37
 -38   4  13   22.79    1.24
 -38  -4  12    0.52    0.97
 -38  -4  12    0.28    0.92
 -38   4  12    0.46    0.86
 -38  -4  11   12.43    1.11
 -38  -4  11   12.16    1.13
 -38   4  11   15.32    1.08
 -38  -4  10   27.27    1.45
 -38  -4  10   26.05    1.40
 -38   4  10   24.97    1.28
 -38  -4   9   23.12    1.37
 -38  -4   9   20.88    1.27
 -38   4   9   22.14    1.27
 -38  -4   8   13.57    1.08
 -38  -4   8   11.15    1.05
 -38   4   8   12.63    1.06
 -38  -4   7    8.97    1.08
 -38  -4   7   11.04    1.02
 -38   4   7    9.95    0.96
 -38  -4   6    1.89    0.93
 -38  -4   6    4.06    0.87
 -38   4   6    4.64    0.84
 -38  -4   5    4.32    0.91
 -38  -4   5    3.95    0.93
 -38   4   5    4.27    0.80
 -38  -4   4   14.79    0.99
 -38  -4   4   16.19    1.07
 -38   4   4   20.33    1.12
 -38  -4   3    4.49    0.74
 -38  -4   3    4.08    0.79
 -38   4   3    3.93    0.72
  38  -4  -2   19.52    1.03
 -38  -4   2   19.99    1.04
 -38  -4   2   20.67    1.14
 -38   4   2   19.12    1.08
  38  -4  -1   24.12    1.18
 -38  -4   1   23.78    1.12
 -38  -4   1   21.95    1.02
 -38   4   1   27.66    1.33
  38  -4   0    8.15    0.75
 -38   4   0   10.47    0.96
  38  -4   1   53.40    2.04
 -38   4  -1   47.72    1.93
  38  -4   2   13.28    0.89
 -38   4  -2   14.86    1.02
  38  -4   3   29.68    1.35
 -38   4  -3   30.51    1.47
  38  -4   4    1.43    0.66
 -38   4  -4    1.41    0.82
  38  -4   5    0.79    0.61
 -38   4  -5    1.12    0.75
  38  -4   6   21.46    1.08
 -38   4  -6   22.14    1.25
  38  -4   7   18.43    1.09
 -38   4  -7   21.59    1.25
  38  -4   8    0.94    0.75
 -38   4  -8    0.89    0.77
  38  -4   9    0.57    0.74
 -38   4  -9    0.39    0.84
  38  -4  10    5.89    0.77
 -38   4 -10    4.58    0.92
 -38  -6  17    4.81    1.11
 -38   6  17    4.07    0.84
 -38  -6  16   10.43    1.15
 -38   6  16   11.12    0.91
 -38  -6  15    0.78    0.94
 -38   6  15    1.05    0.75
 -38  -6  14   -0.29    0.95
 -38   6  14    0.75    0.73
 -38  -6  13   -0.52    0.98
 -38   6  13    0.78    0.74
 -38  -6  12   16.16    1.33
 -38  -6  12   19.32    1.44
 -38   6  12   17.52    1.11
 -38  -6  11    1.15    1.06
 -38  -6  11   -0.12    1.17
 -38   6  11    0.08    0.80
 -38  -6  10   -0.39    1.08
 -38  -6  10   -0.20    0.97
 -38   6  10    0.71    0.74
 -38  -6   9   -0.81    0.92
 -38  -6   9   -0.19    1.15
 -38   6   9    0.91    0.72
 -38  -6   8    6.46    0.98
 -38  -6   8    5.43    1.10
 -38   6   8    7.59    0.78
 -38  -6   7   14.98    1.11
 -38  -6   7   12.28    1.21
 -38   6   7   16.77    0.98
 -38  -6   6    1.09    0.94
 -38  -6   6    2.50    0.77
 -38   6   6    2.84    0.70
 -38  -6   5   -0.10    0.72
 -38  -6   5    0.15    0.65
 -38   6   5    1.26    0.64
  38  -6  -4    2.76    0.58
 -38   6   4    2.86    0.77
  38  -6  -3   32.60    1.36
 -38   6   3   29.22    1.36
  38  -6  -2   -0.26    0.57
 -38   6   2    0.29    0.71
  38  -6  -1    1.08    0.56
 -38   6   1    0.02    0.71
  38  -6   0   -0.17    0.56
 -38   6   0    0.66    0.82
  38  -6   1   34.36    1.42
 -38   6  -1   32.71    1.46
  38  -6   2    3.83    0.64
 -38   6  -2    4.28    0.86
  38  -6   3    1.05    0.70
 -38   6  -3    0.96    0.90
 -39  -1  28    1.54    0.78
 -39  -1  28    1.12    0.91
 -39   1  28    0.78    0.79
 -39  -1  27   -0.18    0.77
 -39  -1  27   -1.05    0.91
 -39   1  27    0.20    0.73
 -39   1  27   -0.61    0.90
 -39  -1  26   18.71    1.13
 -39  -1  26   19.43    1.12
 -39   1  26   19.66    1.25
 -39   1  26   19.90    1.12
 -39  -1  25    0.87    0.79
 -39  -1  25    0.36    0.88
 -39   1  25    0.60    0.87
 -39   1  25    2.41    0.84
 -39  -1  24    8.10    1.00
 -39  -1  24    5.75    0.90
 -39   1  24    6.49    0.89
 -39   1  24    7.47    0.99
 -39  -1  23    9.95    1.04
 -39  -1  23    9.04    1.04
 -39   1  23   10.64    1.05
 -39   1  23   10.45    0.99
 -39  -1  22    4.90    0.94
 -39  -1  22    4.31    0.90
 -39   1  22    3.97    0.88
 -39   1  22    3.09    0.94
 -39  -1  21   38.08    1.70
 -39  -1  21   41.98    1.86
 -39   1  21   38.40    1.79
 -39  -1  20    1.95    0.90
 -39  -1  20   -0.18    0.87
 -39   1  20   -0.38    0.95
 -39  -1  19    6.16    0.98
 -39  -1  19    5.74    0.98
 -39   1  19    6.79    1.02
 -39  -1  18   34.27    1.65
 -39  -1  18   35.04    1.66
 -39   1  18   32.37    1.55
 -39  -1  17    0.52    0.82
 -39  -1  17    1.00    0.89
 -39   1  17    0.09    0.90
 -39  -1  16    1.68    0.89
 -39  -1  16    1.43    0.84
 -39   1  16   -0.42    0.88
 -39  -1  15    1.38    0.92
 -39  -1  15    2.30    0.92
 -39   1  15    1.33    0.88
 -39  -1  14    5.06    0.97
 -39   1  14    5.00    0.95
 -39  -1  13   12.99    1.16
 -39   1  13   13.14    1.11
 -39  -1  12    0.05    0.90
 -39   1  12    0.05    0.84
 -39  -1  11    0.85    0.88
 -39   1  11   -0.92    0.90
 -39  -1  10    7.07    0.99
 -39   1  10    7.07    1.00
 -39  -1   9    7.59    1.07
 -39   1   9    6.84    0.91
 -39  -1   8   27.51    1.43
 -39   1   8   29.10    1.48
 -39  -1   7   35.16    1.64
 -39   1   7   32.94    1.58
 -39  -1   6   14.61    1.07
 -39   1   6   12.59    1.08
 -39  -1   5   28.64    1.42
 -39   1   5   26.79    1.46
 -39  -1   4   38.37    1.69
 -39   1   4   40.65    1.80
 -39  -1   3    2.19    0.84
 -39   1   3    3.21    0.84
 -39  -1   2    9.52    0.95
 -39   1   2    7.30    0.92
 -39  -1   1   16.24    1.08
 -39   1   1   17.15    1.12
 -39  -1   0    0.30    0.74
 -39   1   0    2.62    0.79
 -39  -1  -1    5.66    0.81
 -39   1  -1    6.09    0.85
 -39  -1  -2   20.18    1.14
 -39   1  -2   16.63    1.12
 -39  -1  -3    6.44    0.87
 -39   1  -3    6.51    0.86
 -39  -1  -4   -0.77    0.77
 -39   1  -4    0.60    0.80
 -39  -1  -5   11.47    1.02
 -39   1  -5   10.23    1.00
 -39  -1  -6   24.97    1.34
 -39   1  -6   22.82    1.32
  39  -1   7    0.49    0.66
 -39  -1  -7   -0.08    0.83
 -39   1  -7    0.04    0.81
  39  -1   8   16.14    1.04
 -39  -1  -8   13.31    1.11
 -39   1  -8   11.17    1.04
  39  -1   9    0.01    0.75
 -39  -1  -9    1.76    0.82
 -39   1  -9    1.93    0.88
  39  -1  10   11.57    0.95
 -39  -1 -10   13.19    1.24
 -39   1 -10   11.38    1.12
  39  -1  11    9.35    0.92
 -39  -1 -11    7.28    1.18
 -39   1 -11    6.95    1.14
  39  -1  12   19.96    1.16
 -39  -1 -12   19.44    1.40
 -39   1 -12   18.53    1.42
  39  -1  13    0.06    0.89
 -39  -1 -13    0.46    1.16
 -39   1 -13    0.74    0.96
 -39  -3  26    1.49    0.91
 -39   3  26    0.28    0.71
 -39  -3  25    1.52    0.86
 -39   3  25   -0.32    0.85
 -39  -3  24   15.31    1.07
 -39   3  24   13.84    1.05
 -39  -3  23   -0.25    0.87
 -39   3  23    0.18    0.81
 -39  -3  22   10.26    1.02
 -39   3  22    7.63    0.89
 -39  -3  21   -1.56    0.86
 -39   3  21    0.75    0.86
 -39  -3  20    1.46    0.92
 -39   3  20    2.08    0.90
 -39  -3  19    6.49    0.96
 -39   3  19    6.77    0.94
 -39  -3  18    9.07    0.94
 -39  -3  18    6.01    0.96
 -39   3  18    8.42    0.98
 -39  -3  17    4.27    0.90
 -39  -3  17    4.13    0.99
 -39   3  17    4.20    0.93
 -39  -3  16    5.50    0.96
 -39  -3  16    3.20    0.97
 -39   3  16    4.03    0.87
 -39  -3  15   15.86    1.21
 -39  -3  15   13.92    1.12
 -39   3  15   18.31    1.17
 -39  -3  14   33.62    1.56
 -39  -3  14   37.33    1.74
 -39   3  14   34.01    1.58
 -39  -3  13   12.13    1.12
 -39  -3  13   14.28    1.17
 -39   3  13   11.47    1.05
 -39  -3  12   16.25    1.22
 -39  -3  12   19.95    1.30
 -39   3  12   18.87    1.18
 -39  -3  11   28.25    1.47
 -39  -3  11   28.02    1.53
 -39   3  11   29.88    1.49
 -39  -3  10    0.93    0.97
 -39  -3  10   -0.66    0.87
 -39   3  10    0.73    0.84
 -39  -3   9   16.98    1.15
 -39  -3   9   16.02    1.20
 -39   3   9   18.10    1.16
 -39  -3   8    3.26    0.97
 -39  -3   8    2.77    0.92
 -39   3   8    3.81    0.83
 -39  -3   7    1.07    0.92
 -39  -3   7    0.52    0.91
 -39   3   7    0.50    0.77
 -39  -3   6    3.02    0.97
 -39  -3   6    2.90    0.90
 -39   3   6    2.91    0.81
 -39  -3   5    2.02    0.89
 -39  -3   5    0.51    0.84
 -39   3   5    0.14    0.77
 -39  -3   4   30.10    1.47
 -39  -3   4   30.47    1.51
 -39   3   4   29.95    1.46
 -39  -3   3    2.22    0.87
 -39  -3   3    3.39    0.82
 -39   3   3    2.35    0.80
 -39  -3   2    5.91    0.94
 -39  -3   2    5.44    0.87
 -39   3   2    5.04    0.80
 -39  -3   1    9.81    0.89
 -39  -3   1   12.24    0.95
 -39   3   1   16.33    1.12
  39  -3   0   37.56    1.55
 -39  -3   0   31.68    1.38
 -39  -3   0   32.35    1.46
 -39   3   0   38.90    1.70
  39  -3   1    4.46    0.67
 -39  -3  -1    2.38    0.69
 -39  -3  -1    1.72    0.78
 -39   3  -1    4.41    0.80
  39  -3   2   16.32    0.98
 -39  -3  -2   14.84    1.02
 -39   3  -2   16.69    1.09
  39  -3   3    1.52    0.68
 -39  -3  -3    0.72    0.62
 -39  -3  -3   -0.48    0.52
 -39   3  -3    0.51    0.75
  39  -3   4    7.93    0.75
 -39   3  -4    7.44    0.93
  39  -3   5    4.07    0.74
 -39   3  -5    3.75    0.80
  39  -3   6    0.47    0.70
 -39   3  -6   -1.52    0.83
  39  -3   7   -0.85    0.66
 -39   3  -7    0.90    0.86
  39  -3   8    1.21    0.71
 -39   3  -8    0.78    0.85
  39  -3   9    5.11    0.82
 -39   3  -9    4.16    0.91
  39  -3  10    1.23    0.74
 -39   3 -10    1.15    0.79
  39  -3  11    6.65    0.91
 -39   3 -11    4.76    1.00
 -39  -5  21    1.07    1.04
 -39   5  21    0.33    0.83
 -39  -5  20    2.13    0.96
 -39   5  20    2.20    0.84
 -39  -5  19    0.68    0.98
 -39   5  19    0.75    0.78
 -39  -5  18   -0.42    1.05
 -39   5  18   -0.24    0.80
 -39  -5  17    3.67    1.09
 -39   5  17    4.86    0.89
 -39  -5  16    2.44    1.02
 -39   5  16    2.42    0.86
 -39  -5  15   16.33    1.25
 -39   5  15   17.17    1.13
 -39  -5  14    6.60    1.19
 -39  -5  14    6.02    1.04
 -39   5  14    8.70    0.92
 -39  -5  13   19.58    1.43
 -39  -5  13   21.36    1.42
 -39   5  13   21.54    1.23
 -39  -5  12    1.04    1.08
 -39  -5  12    0.81    0.97
 -39   5  12    0.62    0.74
 -39  -5  11    1.63    0.99
 -39  -5  11    0.90    0.99
 -39   5  11    1.72    0.77
 -39  -5  10    7.18    1.04
 -39  -5  10    5.34    1.12
 -39   5  10    5.01    0.79
 -39  -5   9   -0.54    0.97
 -39  -5   9    1.70    1.11
 -39   5   9    0.23    0.79
 -39  -5   8   16.34    1.25
 -39  -5   8   12.79    1.28
 -39   5   8   15.05    1.02
 -39  -5   7    5.31    0.98
 -39  -5   7    7.83    1.19
 -39   5   7    6.71    0.83
 -39  -5   6    7.03    1.04
 -39  -5   6    9.06    1.06
 -39   5   6    9.36    0.88
 -39  -5   5   -1.05    0.83
 -39  -5   5    1.43    0.93
 -39   5   5   -0.59    0.66
 -39  -5   4    6.83    0.81
 -39  -5   4    7.39    0.92
 -39   5   4   10.50    0.90
  39  -5  -3    5.12    0.68
 -39  -5   3    3.36    0.58
 -39  -5   3    4.69    0.63
 -39   5   3    3.31    0.73
  39  -5  -2   26.34    1.24
 -39   5   2   25.52    1.27
  39  -5  -1   14.62    0.93
 -39   5   1   18.17    1.04
  39  -5   0    0.42    0.71
 -39   5   0    0.08    0.71
  39  -5   1    9.15    0.78
 -39   5  -1    7.78    0.83
  39  -5   2    1.95    0.71
 -39   5  -2    1.36    0.76
  39  -5   3    1.28    0.74
 -39   5  -3    1.95    0.75
  39  -5   4    0.23    0.77
 -39   5  -4   -0.60    0.70
  39  -5   5    1.04    0.75
 -39   5  -5    1.24    0.80
  39  -5   6    9.64    0.88
 -39   5  -6   10.23    1.03
 -40   0  27    0.74    0.71
 -40   0  27    2.01    0.86
 -40   0  26    0.25    0.78
 -40   0  26    0.44    0.88
 -40   0  25    0.12    0.77
 -40   0  25   -0.76    0.87
 -40   0  24   51.48    2.06
 -40   0  24   56.59    2.24
 -40   0  23   -0.30    0.90
 -40   0  23   -1.18    0.79
 -40   0  22    1.35    0.85
 -40   0  22    1.22    0.92
 -40   0  21    1.37    0.86
 -40   0  21    1.47    0.85
 -40   0  20    4.55    0.93
 -40   0  20    3.71    0.97
 -40   0  19    0.80    0.88
 -40   0  19   -0.53    0.90
 -40   0  18   -0.81    0.92
 -40   0  17    0.23    0.85
 -40   0  16   -0.67    0.91
 -40   0  15    1.10    0.89
 -40   0  14    1.17    0.90
 -40   0  13    0.42    0.87
 -40   0  12  132.60    4.68
 -40   0  11    0.23    0.87
 -40   0  10    2.89    0.91
 -40   0   9   -0.93    0.90
 -40   0   8    0.29    0.87
 -40   0   7    0.76    0.87
 -40   0   6    0.84    0.88
 -40   0   5   -1.12    0.85
 -40   0   4    3.57    0.91
 -40   0   3    1.51    0.82
 -40   0   2    0.56    0.77
 -40   0   1    0.10    0.76
 -40   0   0   92.04    3.32
 -40   0  -1   -0.28    0.75
 -40   0  -2    1.12    0.82
 -40   0  -3    0.05    0.81
 -40   0  -4   58.81    2.31
 -40   0  -5    1.30    0.82
 -40   0  -6   -0.64    0.86
 -40   0  -7   -0.13    0.94
 -40   0  -8    0.81    0.86
 -40   0  -9   -0.62    0.92
 -40   0 -10    1.72    1.02
 -40   0 -11    0.20    0.98
 -40   0 -12    7.24    1.05
 -40  -2  26    0.60    0.79
 -40   2  26    1.22    0.81
 -40   2  26    1.66    0.87
 -40  -2  25   11.25    0.98
 -40   2  25   12.27    1.01
 -40   2  25   13.21    0.96
 -40  -2  24    4.08    0.89
 -40   2  24    2.76    0.89
 -40  -2  23    7.73    0.95
 -40  -2  23    7.06    0.94
 -40   2  23    7.38    0.96
 -40  -2  22    0.23    0.84
 -40  -2  22    1.51    0.90
 -40   2  22    1.86    0.85
 -40  -2  21    8.69    1.00
 -40  -2  21   10.00    1.05
 -40   2  21    9.06    0.99
 -40  -2  20   -0.42    0.89
 -40  -2  20   -0.95    0.87
 -40   2  20   -0.16    0.89
 -40  -2  19    3.80    0.92
 -40  -2  19    4.25    0.97
 -40   2  19    3.18    0.91
 -40  -2  18   52.91    2.20
 -40  -2  18   52.24    2.14
 -40   2  18   49.08    2.03
 -40  -2  17    1.30    0.93
 -40  -2  17    0.28    0.90
 -40   2  17    0.75    0.89
 -40  -2  16    4.44    0.95
 -40  -2  16    4.92    0.98
 -40   2  16    4.45    0.96
 -40  -2  15    1.37    0.92
 -40  -2  15    2.06    0.91
 -40   2  15    2.32    0.86
 -40  -2  14    3.24    0.99
 -40  -2  14    2.17    0.94
 -40   2  14    3.34    0.90
 -40  -2  13    6.62    1.03
 -40  -2  13    5.73    1.00
 -40   2  13    6.72    0.93
 -40  -2  12    8.70    1.02
 -40  -2  12   12.20    1.16
 -40   2  12   10.74    0.99
 -40  -2  11   20.59    1.26
 -40  -2  11   18.81    1.27
 -40   2  11   19.06    1.22
 -40  -2  10   10.13    1.00
 -40  -2  10   11.49    1.13
 -40   2  10   10.30    1.00
 -40  -2   9   10.02    1.03
 -40  -2   9    9.71    1.05
 -40   2   9    8.80    0.96
 -40  -2   8   33.08    1.63
 -40  -2   8   32.41    1.59
 -40   2   8   30.71    1.49
 -40  -2   7    6.52    0.90
 -40  -2   7    8.10    1.04
 -40   2   7    7.56    0.95
 -40  -2   6   28.05    1.44
 -40   2   6   29.67    1.46
 -40  -2   5    0.09    0.88
 -40   2   5   -0.25    0.75
 -40  -2   4    0.15    0.81
 -40   2   4   -0.42    0.75
 -40  -2   3    2.54    0.83
 -40   2   3    2.56    0.83
 -40  -2   2    8.77    0.91
 -40   2   2   10.20    0.91
 -40  -2   1    3.65    0.86
 -40   2   1    3.17    0.81
 -40  -2   0   26.29    1.33
 -40   2   0   26.64    1.35
 -40  -2  -1    7.12    0.94
 -40   2  -1    8.69    0.96
 -40  -2  -2    4.38    0.79
 -40   2  -2    4.65    0.95
 -40  -2  -3   -0.13    0.79
 -40   2  -3   -0.35    0.82
  40  -2   4   15.90    1.00
 -40  -2  -4   15.75    1.12
 -40   2  -4   15.24    1.14
  40  -2   5   -0.82    0.68
 -40  -2  -5    0.51    0.91
 -40   2  -5   -0.69    0.75
  40  -2   6    1.84    0.69
 -40  -2  -6    0.97    0.97
 -40   2  -6    0.00    0.84
  40  -2   7    1.26    0.71
 -40  -2  -7    3.31    0.91
 -40   2  -7    1.50    0.83
  40  -2   8   20.85    1.16
 -40  -2  -8   22.38    1.20
 -40   2  -8   23.76    1.33
  40  -2   9    3.01    0.71
 -40  -2  -9    3.41    0.71
 -40   2  -9    4.00    0.93
  40  -2  10    6.55    0.87
 -40   2 -10    6.03    0.99
  40  -2  11   -0.96    0.88
 -40   2 -11   -0.15    0.93
 -40  -4  23    1.59    0.97
 -40   4  23    1.09    0.92
 -40  -4  22    0.14    0.91
 -40   4  22    0.08    0.78
 -40  -4  21    8.63    1.00
 -40   4  21    9.75    0.94
 -40  -4  20   -0.17    1.00
 -40   4  20    1.40    0.83
 -40  -4  19    4.83    1.10
 -40   4  19    6.52    0.88
 -40  -4  18   25.84    1.46
 -40   4  18   23.61    1.27
 -40  -4  17   18.83    1.32
 -40  -4  17   22.19    1.33
 -40   4  17   21.74    1.24
 -40  -4  16    1.22    0.93
 -40  -4  16    0.77    0.94
 -40   4  16    0.93    0.87
 -40  -4  15    2.17    1.00
 -40  -4  15    3.32    1.04
 -40   4  15    3.75    0.86
 -40  -4  14    1.13    0.89
 -40  -4  14    1.46    0.91
 -40   4  14    0.35    0.79
 -40  -4  13    3.14    0.97
 -40  -4  13    2.22    0.97
 -40   4  13    0.78    0.87
 -40  -4  12   17.83    1.31
 -40  -4  12   22.11    1.44
 -40   4  12   22.77    1.24
 -40  -4  11    3.08    1.02
 -40  -4  11    4.15    1.06
 -40   4  11    3.04    0.85
 -40  -4  10    2.04    0.98
 -40  -4  10   -1.10    1.02
 -40   4  10    2.67    0.86
 -40  -4   9    2.97    0.99
 -40  -4   9    3.53    1.08
 -40   4   9    2.55    0.81
 -40  -4   8    2.28    0.97
 -40  -4   8    1.09    1.05
 -40   4   8    2.81    0.77
 -40  -4   7   13.54    1.24
 -40  -4   7   11.79    1.11
 -40   4   7   13.00    0.97
 -40   4   6   35.60    1.58
 -40  -4   5   59.69    2.36
 -40  -4   5   57.41    2.29
 -40   4   5   51.80    2.05
 -40  -4   4    2.81    0.85
 -40  -4   4    2.08    0.82
 -40   4   4    2.21    0.74
 -40  -4   3    2.35    0.86
 -40  -4   3    3.27    0.85
 -40   4   3    3.72    0.75
 -40   4   2   10.22    0.89
  40  -4  -1    3.38    0.67
 -40  -4   1    2.62    0.64
 -40  -4   1    1.38    0.66
 -40   4   1    3.57    0.77
  40  -4   0   11.29    0.84
 -40   4   0    8.99    0.93
  40  -4   1    7.96    0.76
 -40   4  -1   10.09    0.87
  40  -4   2    4.42    0.73
 -40   4  -2    4.04    0.82
  40  -4   3    2.86    0.72
 -40   4  -3    2.39    0.82
  40  -4   4   -0.04    0.66
 -40   4  -4   -0.67    0.81
  40  -4   5    0.52    0.72
 -40   4  -5   -0.22    0.77
  40  -4   6    1.30    0.73
 -40   4  -6    1.94    0.89
  40  -4   7   12.78    0.96
 -40   4  -7   10.13    1.00
 -40  -6  14    2.11    1.33
 -40  -6  14    2.32    1.18
 -40   6  14    0.70    0.77
 -40  -6  13    1.98    1.16
 -40  -6  13    0.34    1.29
 -40   6  13    2.63    0.72
 -40  -6  12   17.75    1.44
 -40  -6  12   16.34    1.50
 -40   6  12   17.18    1.07
 -40  -6  11   16.98    1.46
 -40  -6  11   13.79    1.42
 -40   6  11   15.99    0.95
 -40  -6  10   -0.04    1.08
 -40  -6  10    1.05    1.35
 -40   6  10    0.50    0.66
 -40  -6   9    6.28    1.41
 -40  -6   9    3.49    1.03
 -40   6   9    6.85    0.80
 -40  -6   8    4.99    1.25
 -40  -6   8    4.03    1.06
 -40   6   8    3.63    0.72
 -40  -6   7    1.67    1.03
 -40  -6   7    1.94    1.11
 -40   6   7    2.29    0.74
 -40  -6   6    0.77    0.92
 -40  -6   6    0.52    0.87
 -40   6   6    1.66    0.66
 -40   6   5    1.34    0.69
 -40   6   4   19.15    1.04
  40  -6  -3    0.33    0.60
 -40   6   3    0.49    0.67
  40  -6  -2   -0.62    0.67
 -40   6   2   -0.20    0.68
  40  -6  -1    1.14    0.66
 -40   6   1    1.47    0.90
 -41   1  26   21.18    1.26
 -41   1  26   19.29    1.12
 -41  -1  25    3.77    0.79
 -41  -1  25    4.05    0.94
 -41   1  25    2.92    0.80
 -41   1  25    2.63    0.96
 -41  -1  24    3.39    0.86
 -41  -1  24    4.15    0.89
 -41   1  24    3.84    0.83
 -41   1  24    3.83    0.91
 -41  -1  23    3.02    0.87
 -41  -1  23    3.55    0.96
 -41   1  23    3.45    0.91
 -41   1  23    4.14    0.85
 -41  -1  22    1.04    0.91
 -41  -1  22    1.60    0.85
 -41   1  22    0.34    0.84
 -41   1  22    0.89    0.90
 -41  -1  21   18.32    1.19
 -41  -1  21   18.51    1.23
 -41   1  21   17.07    1.17
 -41  -1  20   41.14    1.86
 -41  -1  20   43.09    1.84
 -41   1  20   42.69    1.86
 -41  -1  19    0.42    0.86
 -41  -1  19   -0.08    0.90
 -41   1  19    1.06    0.88
 -41  -1  18    0.49    0.82
 -41  -1  18   -0.27    0.91
 -41   1  18    0.01    0.90
 -41  -1  17    4.10    0.96
 -41  -1  17    3.52    0.97
 -41   1  17    4.25    0.98
 -41  -1  16   14.02    1.13
 -41  -1  16   12.78    1.17
 -41   1  16   15.11    1.14
 -41  -1  15   16.04    1.20
 -41  -1  15   16.75    1.20
 -41   1  15   17.11    1.21
 -41  -1  14   21.26    1.23
 -41  -1  14   21.05    1.28
 -41   1  14   20.96    1.29
 -41  -1  13   19.83    1.26
 -41   1  13   20.91    1.30
 -41  -1  12    9.00    1.02
 -41   1  12   11.35    1.03
 -41  -1  11   -0.31    0.90
 -41   1  11    0.74    0.83
 -41  -1  10    1.26    0.90
 -41   1  10    0.34    0.84
 -41  -1   9    8.18    1.04
 -41   1   9    9.00    0.97
 -41  -1   8    2.31    0.87
 -41   1   8    1.33    0.87
 -41  -1   7    0.69    0.87
 -41   1   7    1.32    0.86
 -41  -1   6    4.68    0.98
 -41   1   6    5.07    0.91
 -41  -1   5   -0.28    0.87
 -41   1   5    2.23    0.91
 -41  -1   4   -0.40    0.80
 -41   1   4   -0.20    0.76
 -41  -1   3   14.06    1.08
 -41   1   3   14.68    1.06
 -41  -1   2   28.12    1.42
 -41   1   2   24.92    1.34
 -41  -1   1    0.42    0.77
 -41   1   1    0.95    0.80
 -41  -1   0   22.23    1.22
 -41   1   0   20.28    1.20
 -41  -1  -1    4.51    0.84
 -41   1  -1    6.60    0.89
 -41  -1  -2    7.74    0.90
 -41   1  -2    7.36    0.95
 -41  -1  -3    5.79    0.97
 -41   1  -3    6.95    0.97
 -41  -1  -4    2.95    0.94
 -41   1  -4    4.29    0.90
 -41  -1  -5    4.69    0.93
 -41   1  -5    3.64    0.87
 -41  -1  -6    4.45    0.94
 -41   1  -6    4.46    0.96
 -41  -1  -7    0.04    0.96
 -41   1  -7    0.25    0.91
 -41  -1  -8    9.62    1.06
 -41   1  -8    9.41    1.08
 -41  -1  -9    1.83    1.20
 -41   1  -9    0.70    1.00
  41  -1  10   28.08    1.36
 -41  -1 -10   27.10    1.58
 -41   1 -10   28.83    1.63
  41  -1  11    4.22    0.95
 -41  -1 -11    3.87    1.25
 -41   1 -11    3.22    1.16
 -41  -3  24    0.39    0.86
 -41   3  24   -0.33    0.86
 -41  -3  23   11.17    1.04
 -41   3  23   11.96    1.00
 -41  -3  22    1.93    0.89
 -41   3  22    2.70    0.86
 -41  -3  21    1.42    0.96
 -41  -3  21    2.89    0.87
 -41   3  21    0.85    0.85
 -41  -3  20   20.48    1.31
 -41  -3  20   22.82    1.35
 -41   3  20   20.97    1.24
 -41   3  19   28.79    1.43
 -41  -3  18    0.21    0.95
 -41  -3  18   -1.04    1.01
 -41   3  18   -0.18    0.83
 -41  -3  17    8.66    1.02
 -41  -3  17    8.65    1.12
 -41   3  17    9.63    1.02
 -41  -3  16    1.30    0.95
 -41  -3  16    2.34    1.00
 -41   3  16    2.85    0.93
 -41  -3  15    1.90    0.98
 -41  -3  15    0.53    0.97
 -41   3  15    1.88    0.86
 -41  -3  14    3.58    1.08
 -41  -3  14    3.18    0.97
 -41   3  14    3.13    0.90
 -41  -3  13   -0.18    1.09
 -41  -3  13   -0.68    0.89
 -41   3  13    1.01    0.85
 -41  -3  12    0.40    0.90
 -41  -3  12    2.27    1.06
 -41   3  12    0.94    0.83
 -41  -3  11    2.41    1.06
 -41  -3  11    2.74    1.00
 -41   3  11    2.99    0.84
 -41  -3  10   15.24    1.23
 -41  -3  10   19.38    1.36
 -41   3  10   16.52    1.13
 -41  -3   9    2.16    0.99
 -41  -3   9    1.77    1.00
 -41   3   9    1.85    0.86
 -41  -3   8   23.85    1.39
 -41  -3   8   23.38    1.46
 -41   3   8   20.12    1.21
 -41  -3   7    3.89    0.96
 -41  -3   7    5.79    1.05
 -41   3   7    6.34    0.88
 -41  -3   6    8.73    1.15
 -41  -3   6    7.66    1.02
 -41   3   6    7.01    0.88
 -41  -3   5   -1.32    0.92
 -41  -3   5    0.46    0.97
 -41   3   5    0.37    0.78
 -41  -3   4   -0.42    0.87
 -41  -3   4    2.37    0.97
 -41   3   4    1.90    0.74
 -41  -3   3    5.72    1.05
 -41  -3   3    7.60    0.96
 -41   3   3    8.01    0.84
 -41  -3   2    1.80    0.85
 -41  -3   2    2.38    0.95
 -41   3   2    2.93    0.82
 -41  -3   1    4.13    0.89
 -41  -3   1    5.41    0.85
 -41   3   1    5.60    0.82
 -41  -3   0    1.56    0.82
 -41  -3   0    2.60    0.80
 -41   3   0    2.79    0.80
 -41   3  -1   15.95    1.08
  41  -3   2    0.60    0.63
 -41  -3  -2   -0.24    0.71
 -41  -3  -2    0.15    0.80
 -41   3  -2   -0.52    0.79
  41  -3   3    0.69    0.69
 -41  -3  -3   -0.42    0.59
 -41  -3  -3    1.17    0.65
 -41   3  -3    1.72    0.87
  41  -3   4   15.74    1.02
 -41   3  -4   18.31    1.15
  41  -3   5    0.11    0.71
 -41   3  -5    1.52    0.83
  41  -3   6   35.40    1.55
 -41   3  -6   35.64    1.63
  41  -3   7    0.09    0.64
 -41   3  -7    0.07    0.88
  41  -3   8    0.34    0.72
 -41   3  -8    1.07    0.91
 -41  -5  18    0.40    1.09
 -41   5  18    1.76    0.81
 -41  -5  17    1.38    1.03
 -41  -5  17    2.34    1.01
 -41   5  17    1.66    0.79
 -41  -5  16   -0.53    1.02
 -41  -5  16    0.22    1.03
 -41   5  16    0.36    0.77
 -41  -5  15    0.62    1.00
 -41  -5  15   -0.30    1.15
 -41   5  15   -1.30    0.76
 -41  -5  14   34.42    1.84
 -41  -5  14   31.23    1.62
 -41   5  14   35.16    1.55
 -41  -5  13    2.23    1.08
 -41  -5  13    0.27    1.21
 -41   5  13    0.79    0.76
 -41  -5  12    5.04    1.16
 -41  -5  12    2.38    1.22
 -41   5  12    6.22    0.92
 -41  -5  11    0.59    1.14
 -41  -5  11   -1.32    1.25
 -41   5  11   -0.32    0.74
 -41  -5  10    2.00    1.12
 -41  -5  10    1.77    1.24
 -41   5  10    1.29    0.85
 -41  -5   9    2.04    1.03
 -41  -5   9    2.35    1.14
 -41   5   9    3.80    0.79
 -41  -5   8    3.73    1.26
 -41  -5   8    1.79    0.98
 -41   5   8    1.67    0.73
 -41  -5   7   15.52    1.19
 -41  -5   7   13.22    1.25
 -41   5   7   13.88    0.94
 -41  -5   6    1.10    0.90
 -41  -5   6   -0.66    1.05
 -41   5   6    0.54    0.67
 -41  -5   5    2.65    0.87
 -41  -5   5    1.92    0.98
 -41   5   5    2.63    0.70
 -41  -5   4    4.19    0.80
 -41  -5   4    3.30    0.75
 -41   5   4    4.58    0.74
 -41   5   3    4.72    0.73
 -41   5   2    0.20    0.75
  41  -5  -1    7.55    0.73
 -41   5   1    5.90    0.79
  41  -5   0   17.46    0.99
 -41   5   0   11.99    0.94
  41  -5   1    5.92    0.77
 -41   5  -1    6.32    0.81
  41  -5   2   -0.67    0.65
 -41   5  -2    0.92    0.72
  41  -5   3    4.97    0.79
 -41   5  -3    3.75    0.85
 -42   0  26    4.56    0.82
 -42   0  26    4.28    1.03
 -42   0  25    0.12    0.74
 -42   0  25   -0.80    0.91
 -42   0  24    2.58    0.95
 -42   0  24    0.00    0.84
 -42   0  23   -0.19    0.80
 -42   0  23    0.83    0.93
 -42   0  22    0.72    0.87
 -42   0  22    1.47    0.92
 -42   0  21   -0.76    0.84
 -42   0  21   -0.57    0.88
 -42   0  20   53.87    2.17
 -42   0  20   56.02    2.25
 -42   0  19   -0.01    0.83
 -42   0  19   -0.34    0.90
 -42   0  18   13.90    1.12
 -42   0  17    1.03    0.97
 -42   0  16   11.52    1.10
 -42   0  15    1.80    0.91
 -42   0  14    9.98    1.08
 -42   0  13   -0.41    0.90
 -42   0  12    3.51    0.99
 -42   0  11   -0.85    0.93
 -42   0  10    4.93    0.94
 -42   0   9    0.92    0.86
 -42   0   8   39.30    1.77
 -42   0   7   -0.73    0.84
 -42   0   6    5.48    0.94
 -42   0   5    0.10    0.86
 -42   0   4  111.30    3.97
 -42   0   3   -1.13    0.82
 -42   0   2   94.40    3.45
 -42   0   1   -0.63    0.79
 -42   0   0   40.96    1.79
 -42   0  -1    0.55    0.81
 -42   0  -2    4.92    0.86
 -42   0  -3    0.55    0.85
 -42   0  -4    0.36    0.87
 -42   0  -5    0.26    0.92
 -42   0  -6   -0.81    0.91
 -42   0  -7    0.38    0.94
 -42   0  -8   44.58    2.00
 -42   0  -9    1.01    1.07
 -42   0 -10    6.68    1.06
 -42  -2  25    2.68    0.89
 -42  -2  25    2.20    1.01
 -42   2  25    0.20    1.06
 -42   2  25    1.54    0.75
 -42  -2  24   13.90    1.04
 -42  -2  24   13.66    1.12
 -42   2  24   15.64    1.16
 -42  -2  23    2.66    0.88
 -42  -2  23    2.70    0.78
 -42   2  23    4.75    0.91
 -42  -2  22    3.39    0.90
 -42  -2  22    5.49    0.88
 -42   2  22    3.32    0.90
 -42  -2  21   -0.32    0.94
 -42  -2  21    0.90    0.86
 -42   2  21    0.97    0.88
 -42  -2  20   19.17    1.22
 -42  -2  20   18.13    1.17
 -42   2  20   18.64    1.22
 -42  -2  19   19.48    1.27
 -42  -2  19   17.95    1.21
 -42   2  19   18.52    1.21
 -42  -2  18    7.19    1.03
 -42  -2  18    5.82    1.02
 -42   2  18    7.20    0.98
 -42  -2  17    2.20    0.97
 -42  -2  17    3.56    0.96
 -42   2  17    3.48    0.91
 -42  -2  16    3.55    1.00
 -42  -2  16    0.98    0.98
 -42   2  16    1.24    0.86
 -42  -2  15   10.10    1.16
 -42  -2  15    8.70    1.08
 -42   2  15    8.95    1.00
 -42  -2  14   43.40    1.93
 -42  -2  14   47.05    2.09
 -42   2  14   42.49    1.83
 -42  -2  13    0.03    0.92
 -42  -2  13    1.19    0.96
 -42   2  13    0.30    0.89
 -42  -2  12    3.51    1.00
 -42  -2  12    4.19    0.99
 -42   2  12    3.70    0.94
 -42  -2  11    6.23    1.02
 -42  -2  11    4.40    0.97
 -42   2  11    5.11    0.91
 -42  -2  10   16.61    1.32
 -42  -2  10   15.97    1.15
 -42   2  10   14.48    1.13
 -42  -2   9   -0.96    0.87
 -42  -2   9    0.29    0.90
 -42   2   9    0.95    0.85
 -42  -2   8   30.49    1.55
 -42  -2   8   30.14    1.60
 -42   2   8   28.41    1.40
 -42  -2   7   12.15    1.12
 -42  -2   7   11.20    1.12
 -42   2   7   12.62    1.02
 -42  -2   6    6.83    0.91
 -42  -2   6    9.18    1.05
 -42   2   6    9.46    0.97
 -42  -2   5    6.05    1.02
 -42   2   5    6.52    0.97
 -42  -2   4   -0.04    0.83
 -42   2   4    0.00    0.85
 -42  -2   3    7.92    0.96
 -42   2   3    8.32    0.91
 -42  -2   2    6.69    0.93
 -42   2   2    5.96    0.90
 -42  -2   1    9.48    1.02
 -42   2   1    6.66    0.86
 -42  -2   0   -0.24    0.89
 -42   2   0    1.16    0.82
 -42  -2  -1    0.16    0.83
 -42   2  -1    0.77    0.81
 -42  -2  -2   35.18    1.62
 -42   2  -2   36.03    1.60
 -42  -2  -3    6.43    0.97
 -42   2  -3    7.00    0.96
 -42  -2  -4   13.27    1.10
 -42   2  -4   18.59    1.20
 -42  -2  -5    3.82    1.07
 -42   2  -5    2.79    0.88
  42  -2   6    0.47    0.63
 -42  -2  -6   -0.07    1.00
 -42   2  -6    0.42    0.78
  42  -2   7    6.24    0.86
 -42  -2  -7    6.01    0.95
 -42   2  -7    7.61    0.99
  42  -2   8   -0.12    0.79
 -42  -2  -8    0.14    0.81
 -42   2  -8    0.73    0.93
  42  -2   9   10.40    1.09
 -42   2  -9   14.46    1.20
 -42  -4  21    1.17    0.93
 -42   4  21    0.57    0.86
 -42  -4  20   16.45    1.24
 -42  -4  20   17.02    1.21
 -42   4  20   15.19    1.03
 -42  -4  19    4.82    1.09
 -42  -4  19    5.01    1.05
 -42   4  19    4.53    0.84
 -42  -4  18    0.41    1.02
 -42  -4  18    0.00    0.96
 -42   4  18    0.72    0.86
 -42  -4  17    1.43    1.03
 -42  -4  17    0.42    0.93
 -42   4  17    1.07    0.88
 -42  -4  16    4.45    1.05
 -42  -4  16    3.89    1.06
 -42   4  16    4.06    0.90
 -42  -4  15    3.05    1.13
 -42  -4  15    4.78    1.06
 -42   4  15    2.44    0.90
 -42  -4  14   40.85    1.89
 -42  -4  14   44.30    1.96
 -42   4  14   42.89    1.81
 -42  -4  13    5.72    1.05
 -42  -4  13    5.95    1.09
 -42   4  13    4.29    0.91
 -42  -4  12    1.20    1.08
 -42  -4  12    1.99    1.14
 -42   4  12    2.22    0.83
 -42  -4  11   46.26    2.09
 -42  -4  11   40.27    1.87
 -42   4  11   42.28    1.78
 -42  -4  10    2.73    1.04
 -42  -4  10    4.43    1.22
 -42   4  10    3.55    0.82
 -42  -4   9    0.12    1.18
 -42  -4   9    0.11    1.02
 -42   4   9    1.78    0.81
 -42  -4   8   29.33    1.69
 -42  -4   8   29.61    1.58
 -42   4   8   30.24    1.40
 -42  -4   7   -0.34    1.00
 -42  -4   7    0.33    1.07
 -42   4   7    1.42    0.77
 -42  -4   6    4.14    1.08
 -42  -4   6    3.30    1.08
 -42   4   6    3.60    0.78
 -42  -4   5   14.04    1.22
 -42  -4   5   10.75    1.15
 -42   4   5   10.80    0.93
 -42  -4   4    0.08    0.86
 -42  -4   4    0.69    0.91
 -42   4   4    0.68    0.74
 -42  -4   3    3.27    0.93
 -42  -4   3    2.89    0.90
 -42   4   3    5.63    0.75
 -42  -4   2   -0.13    0.78
 -42  -4   2   -0.28    0.80
 -42   4   2   -0.23    0.74
 -42  -4   1    1.50    0.72
 -42  -4   1    1.70    0.67
 -42   4   1    2.60    0.74
 -42   4   0    4.08    0.78
  42  -4   1   25.21    1.19
 -42   4  -1   27.25    1.36
  42  -4   2    0.79    0.63
 -42   4  -2    1.14    0.85
  42  -4   3   13.86    0.91
 -42   4  -3   12.52    1.02
  42  -4   4    4.97    0.74
 -42   4  -4    4.89    0.92
  42  -4   5    7.53    0.87
 -42   4  -5    8.02    1.01
 -43  -1  25    1.05    1.02
 -43  -1  25    2.97    0.82
 -43   1  25    2.02    0.75
 -43   1  25    1.42    1.10
 -43  -1  24    2.13    0.94
 -43  -1  24    2.21    0.83
 -43   1  24    1.85    0.92
 -43   1  24    1.94    0.83
 -43  -1  23    0.98    0.93
 -43  -1  23   -0.07    0.78
 -43   1  23   -0.15    0.85
 -43   1  23   -1.03    0.74
 -43  -1  22   36.69    1.62
 -43  -1  22   38.97    1.78
 -43   1  22   41.40    1.79
 -43   1  22   36.95    1.65
 -43  -1  21   11.13    1.06
 -43  -1  21   10.58    1.01
 -43   1  21   11.19    1.05
 -43  -1  20   -0.62    0.87
 -43  -1  20    0.37    0.94
 -43   1  20   -0.73    0.84
 -43  -1  19    5.92    0.95
 -43  -1  19    5.97    1.05
 -43   1  19    5.60    0.96
 -43  -1  18    5.44    1.01
 -43  -1  18    3.82    0.97
 -43   1  18    3.71    0.92
 -43  -1  17    3.36    1.03
 -43  -1  17    2.17    0.99
 -43   1  17    1.13    0.91
 -43  -1  16    4.48    1.00
 -43  -1  16    1.41    0.95
 -43   1  16    1.39    0.93
 -43  -1  15    6.83    1.01
 -43  -1  15    5.88    0.97
 -43   1  15    5.69    0.96
 -43  -1  14   -1.42    0.99
 -43  -1  14   -0.39    0.90
 -43   1  14   -0.38    0.87
 -43  -1  13   15.49    1.14
 -43   1  13   13.42    1.11
 -43  -1  12    0.42    1.04
 -43   1  12    1.26    0.93
 -43  -1  11    0.11    0.92
 -43   1  11   -0.30    0.84
 -43  -1  10    4.04    0.96
 -43   1  10    4.48    0.97
 -43  -1   9    0.54    0.90
 -43   1   9    0.00    0.88
 -43  -1   8   11.94    1.06
 -43   1   8   13.05    1.10
 -43  -1   7    9.72    1.14
 -43   1   7   11.03    1.02
 -43  -1   6    7.72    1.05
 -43   1   6    6.46    0.93
 -43  -1   5    1.96    0.95
 -43   1   5    1.29    0.86
 -43  -1   4    2.91    0.94
 -43   1   4    2.96    0.95
 -43  -1   3    5.75    0.99
 -43   1   3    6.89    0.95
 -43  -1   2    2.19    0.87
 -43   1   2    1.45    0.91
 -43  -1   1    4.22    0.90
 -43   1   1    6.67    0.95
 -43  -1   0    8.11    1.01
 -43   1   0   11.35    1.05
 -43  -1  -1    1.49    0.93
 -43   1  -1    1.11    0.84
 -43  -1  -2   11.00    1.10
 -43   1  -2   11.31    0.99
 -43  -1  -3    4.22    0.96
 -43   1  -3    5.52    0.94
 -43  -1  -4    8.40    1.03
 -43   1  -4    8.62    0.99
 -43  -1  -5    9.64    1.14
 -43   1  -5    8.97    1.02
 -43  -1  -6    2.28    1.00
 -43   1  -6    4.40    1.03
 -43  -1  -7    5.82    1.19
 -43   1  -7    6.64    1.09
 -43  -1  -8   10.52    1.28
 -43   1  -8   10.89    1.16
 -43  -3  22    4.03    0.96
 -43  -3  22    3.92    1.07
 -43   3  22    3.24    0.94
 -43  -3  21   -0.07    0.90
 -43  -3  21    0.48    1.01
 -43   3  21    0.79    0.91
 -43  -3  20    7.02    1.05
 -43  -3  20    9.08    1.13
 -43   3  20    9.93    1.00
 -43  -3  19   -0.51    0.91
 -43  -3  19    1.38    0.93
 -43   3  19   -0.76    0.86
 -43  -3  18    0.74    0.93
 -43  -3  18    1.12    0.98
 -43   3  18    1.76    0.85
 -43  -3  17   -0.57    0.87
 -43  -3  17    0.19    0.93
 -43   3  17   -0.86    0.81
 -43  -3  16   13.78    1.20
 -43  -3  16   15.30    1.19
 -43   3  16   15.23    1.11
 -43  -3  15    0.13    1.03
 -43  -3  15   -0.11    0.99
 -43   3  15   -0.02    0.85
 -43  -3  14   25.68    1.49
 -43  -3  14   24.07    1.46
 -43   3  14   24.19    1.33
 -43  -3  13    4.92    1.05
 -43  -3  13    2.09    1.02
 -43   3  13    1.49    0.92
 -43  -3  12   14.95    1.24
 -43  -3  12   14.95    1.28
 -43   3  12   15.12    1.12
 -43  -3  11    1.59    1.05
 -43  -3  11    3.57    1.14
 -43   3  11    2.89    0.86
 -43  -3  10    0.63    1.05
 -43  -3  10    1.49    1.06
 -43   3  10    0.20    0.80
 -43  -3   9    0.92    1.04
 -43  -3   9    0.73    1.06
 -43   3   9    0.48    0.79
 -43  -3   8    1.68    1.08
 -43  -3   8    0.28    1.06
 -43   3   8    0.43    0.81
 -43  -3   7    1.13    1.04
 -43  -3   7    0.49    1.06
 -43   3   7   -0.22    0.77
 -43  -3   6   -1.08    1.01
 -43  -3   6    1.41    1.07
 -43   3   6    0.90    0.80
 -43  -3   5   -0.27    1.04
 -43  -3   5    0.48    0.95
 -43   3   5    0.29    0.83
 -43  -3   4    1.69    1.09
 -43  -3   4    1.68    1.00
 -43   3   4    2.95    0.84
 -43  -3   3   -0.14    0.88
 -43  -3   3    0.24    1.05
 -43   3   3    0.63    0.75
 -43  -3   2   40.87    1.82
 -43  -3   2   36.22    1.70
 -43   3   2   38.12    1.64
 -43  -3   1    0.95    0.89
 -43  -3   1    0.47    0.89
 -43   3   1    2.39    0.76
 -43  -3   0    2.12    0.88
 -43  -3   0    1.67    0.93
 -43   3   0    2.81    0.89
 -43  -3  -1   -0.01    0.76
 -43  -3  -1   -1.07    0.87
 -43   3  -1   -0.36    0.81
 -43   3  -2   13.18    1.02
 -43   3  -3    0.04    0.89
  43  -3   4    1.31    0.68
 -43   3  -4   -0.38    0.80
  43  -3   5    1.98    0.77
 -43   3  -5    1.93    0.92
  43  -3   6   13.62    1.09
 -43   3  -6   15.16    1.19
 -43  -5  15    1.18    1.11
 -43  -5  15    1.38    1.29
 -43  -5  14    4.61    1.18
 -43  -5  14    4.63    1.34
 -43   5  14    3.99    0.86
 -43  -5  13   17.61    1.44
 -43  -5  13   20.78    1.62
 -43   5  13   18.42    1.14
 -43  -5  12    0.97    1.19
 -43  -5  12   -0.19    1.28
 -43   5  12    1.09    0.82
 -43  -5  11    6.76    1.38
 -43  -5  11    7.03    1.27
 -43   5  11    6.39    0.85
 -43  -5  10    1.22    1.31
 -43  -5  10    2.50    1.25
 -43   5  10    0.46    0.80
 -43  -5   9    1.93    1.16
 -43  -5   9    2.18    1.41
 -43   5   9    1.47    0.77
 -43  -5   8    5.72    1.25
 -43  -5   8    4.21    1.32
 -43   5   8    5.95    0.81
 -43  -5   7    0.26    1.10
 -43  -5   7    0.65    1.16
 -43   5   7   -0.61    0.69
 -43  -5   6    2.68    1.20
 -43  -5   6    2.54    1.05
 -43   5   6    2.50    0.72
 -43  -5   5   -0.27    1.05
 -43   5   5    0.92    0.65
 -43  -5   4    0.93    0.68
 -43  -5   4    1.04    0.74
 -43   5   4    1.54    0.73
 -43   5   3    1.85    0.76
 -43   5   2    0.37    0.70
 -44   0  24    4.42    0.82
 -44   0  24    3.17    1.09
 -44   0  23    0.72    0.75
 -44   0  23   -1.41    0.97
 -44   0  22   12.98    1.02
 -44   0  22   14.28    1.15
 -44   0  21    1.05    0.82
 -44   0  21   -0.35    0.91
 -44   0  20   -0.55    0.86
 -44   0  20   -1.45    0.86
 -44   0  19   -2.23    0.86
 -44   0  19   -1.49    0.88
 -44   0  18   12.15    1.11
 -44   0  17    0.56    0.93
 -44   0  16   15.77    1.23
 -44   0  15    0.13    0.90
 -44   0  14    2.10    0.94
 -44   0  13    0.54    0.93
 -44   0  12   42.94    1.88
 -44   0  11    0.46    0.92
 -44   0  10   97.99    3.55
 -44   0   9    2.05    1.01
 -44   0   8    4.21    0.97
 -44   0   7    0.24    0.90
 -44   0   6    3.97    0.91
 -44   0   5    0.73    0.92
 -44   0   4   10.93    1.04
 -44   0   3    0.29    0.88
 -44   0   2   22.21    1.28
 -44   0   1   -0.39    0.88
 -44   0   0   46.79    1.98
 -44   0  -1   -0.66    0.86
 -44   0  -2   19.07    1.25
 -44   0  -3   -0.17    0.96
 -44   0  -4    1.33    1.06
 -44   0  -5    0.17    0.99
 -44   0  -6   -1.41    0.94
 -44   0  -7   -0.96    1.04
 -44  -2  23    4.96    0.97
 -44  -2  23    1.31    1.06
 -44   2  23    1.82    0.97
 -44  -2  22    2.93    0.91
 -44  -2  22    1.81    0.95
 -44   2  22    0.65    1.00
 -44  -2  21    0.18    0.88
 -44  -2  21    0.95    0.97
 -44   2  21   -0.35    0.85
 -44  -2  20    3.05    0.87
 -44  -2  20    2.95    1.04
 -44   2  20    4.86    0.93
 -44  -2  19    0.66    0.94
 -44  -2  19   -0.36    0.82
 -44   2  19   -0.09    0.82
 -44  -2  18    5.03    0.97
 -44  -2  18    1.63    0.91
 -44   2  18    1.05    0.93
 -44  -2  17    8.49    1.08
 -44  -2  17    7.15    1.13
 -44   2  17    8.45    0.96
 -44  -2  16   55.42    2.28
 -44  -2  16   57.46    2.36
 -44   2  16   55.71    2.23
 -44  -2  15    0.62    1.03
 -44  -2  15   -1.01    1.03
 -44   2  15    0.89    0.92
 -44  -2  14   -1.12    0.97
 -44  -2  14   -0.45    1.03
 -44   2  14   -0.61    0.85
 -44  -2  13    4.69    1.09
 -44  -2  13    5.26    1.10
 -44   2  13    4.85    1.00
 -44  -2  12    1.15    0.93
 -44  -2  12    2.04    1.03
 -44   2  12    1.24    0.89
 -44  -2  11    3.09    0.92
 -44  -2  11    2.34    1.11
 -44   2  11    4.22    0.93
 -44  -2  10    5.41    1.05
 -44  -2  10    3.56    0.92
 -44   2  10    3.38    0.88
 -44  -2   9    3.03    1.11
 -44  -2   9    3.12    0.98
 -44   2   9    3.02    0.86
 -44  -2   8    0.12    1.01
 -44  -2   8    0.32    0.93
 -44   2   8   -0.41    0.81
 -44  -2   7   -0.08    1.02
 -44  -2   7    1.23    1.00
 -44   2   7    1.64    0.81
 -44  -2   6   19.85    1.33
 -44  -2   6   19.50    1.34
 -44   2   6   17.15    1.15
 -44  -2   5    5.06    1.00
 -44  -2   5    4.93    0.97
 -44   2   5    4.70    0.94
 -44  -2   4   34.99    1.74
 -44  -2   4   34.25    1.65
 -44   2   4   30.76    1.53
 -44  -2   3    0.05    0.93
 -44   2   3    0.34    0.77
 -44  -2   2   -1.25    0.91
 -44   2   2   -0.62    0.86
 -44  -2   1    3.34    0.98
 -44   2   1    2.24    0.87
 -44  -2   0    5.93    1.00
 -44   2   0    6.54    0.92
 -44  -2  -1    6.04    1.01
 -44   2  -1    5.85    0.93
 -44  -2  -2    1.44    1.06
 -44   2  -2   -0.52    0.89
 -44  -2  -3    1.82    1.07
 -44   2  -3    0.16    0.90
 -44  -2  -4    1.44    1.12
 -44   2  -4    0.98    0.93
 -44  -2  -5    7.65    1.18
 -44   2  -5    6.50    1.05
 -44  -2  -6    2.35    1.11
 -44  -2  -6    1.21    0.94
 -44   2  -6    1.97    0.98
 -44  -4  18    0.90    1.10
 -44  -4  18    1.67    1.12
 -44   4  18    0.47    0.88
 -44  -4  17    3.61    1.15
 -44  -4  17    3.21    1.15
 -44   4  17    3.10    0.82
 -44  -4  16   19.38    1.37
 -44  -4  16   19.11    1.43
 -44   4  16   19.28    1.18
 -44  -4  15    0.47    1.09
 -44  -4  15    1.96    1.13
 -44   4  15   -0.13    0.85
 -44  -4  14    1.47    1.25
 -44  -4  14    3.17    1.12
 -44   4  14    2.13    0.87
 -44  -4  13   -0.55    1.03
 -44  -4  13    0.12    1.17
 -44   4  13    0.30    0.75
 -44  -4  12    1.87    1.07
 -44  -4  12    2.57    1.26
 -44   4  12    1.97    0.75
 -44   4  11   12.18    0.95
 -44  -4  10    8.48    1.38
 -44  -4  10    9.27    1.22
 -44   4  10   11.02    0.99
 -44  -4   9   -0.71    1.25
 -44  -4   9    1.14    1.17
 -44   4   9   -0.63    0.77
 -44  -4   8    8.27    1.27
 -44  -4   8    9.46    1.29
 -44   4   8    6.78    0.95
 -44  -4   7    8.22    1.25
 -44  -4   7    5.70    1.25
 -44   4   7    8.01    0.90
 -44  -4   6    0.32    1.16
 -44  -4   6   -0.31    1.18
 -44   4   6    1.25    0.71
 -44  -4   5    4.00    1.08
 -44  -4   5    3.82    1.03
 -44   4   5    6.48    0.74
 -44  -4   4    0.41    1.04
 -44  -4   4    1.31    1.04
 -44   4   4    0.91    0.66
 -44  -4   3   31.84    1.50
 -44  -4   3   32.31    1.64
 -44   4   3   33.75    1.45
 -44  -4   2   -0.08    0.82
 -44  -4   2   -0.15    0.90
 -44   4   2    0.41    0.74
 -44   4   1   -0.39    0.70
 -44   4   0    3.01    0.77
 -44   4  -1    1.14    0.90
 -45  -1  23    0.78    0.84
 -45  -1  23    0.31    1.11
 -45   1  23    0.78    1.14
 -45   1  23    0.97    0.80
 -45  -1  22    0.35    0.81
 -45  -1  22    2.48    0.99
 -45   1  22    0.86    0.78
 -45   1  22    0.80    0.88
 -45  -1  21    4.86    0.91
 -45  -1  21    4.62    1.07
 -45   1  21    5.99    1.02
 -45  -1  20    3.07    0.99
 -45  -1  20    2.82    0.92
 -45   1  20    4.77    0.95
 -45  -1  19    0.24    0.90
 -45  -1  19    0.22    0.92
 -45   1  19    2.11    0.93
 -45  -1  18   21.83    1.27
 -45  -1  18   21.60    1.35
 -45   1  18   20.39    1.29
 -45  -1  17    1.40    0.89
 -45  -1  17    0.27    0.95
 -45   1  17    1.18    0.89
 -45  -1  16   -0.48    0.96
 -45  -1  16    0.73    0.92
 -45   1  16   -0.53    0.93
 -45  -1  15    4.40    1.07
 -45  -1  15    4.70    1.05
 -45   1  15    4.80    0.94
 -45  -1  14    6.93    1.08
 -45  -1  14    6.62    1.07
 -45   1  14    6.89    1.01
 -45  -1  13    9.17    1.18
 -45  -1  13   11.51    1.18
 -45   1  13   10.70    1.08
 -45  -1  12    2.24    1.09
 -45   1  12    5.92    1.01
 -45  -1  11    0.46    1.03
 -45   1  11    1.60    0.89
 -45  -1  10    1.94    1.03
 -45   1  10    2.93    0.92
 -45  -1   9   10.13    1.09
 -45   1   9    9.81    1.01
 -45  -1   8   -1.36    0.94
 -45   1   8    0.40    0.83
 -45  -1   7    0.15    0.94
 -45   1   7    0.66    0.82
 -45  -1   6    0.49    0.89
 -45   1   6    1.84    0.90
 -45  -1   5    0.15    0.89
 -45   1   5    0.20    0.88
 -45  -1   4   10.04    1.10
 -45   1   4   12.91    1.10
 -45  -1   3   22.84    1.40
 -45   1   3   21.93    1.31
 -45  -1   2    6.17    1.02
 -45   1   2    7.87    0.99
 -45  -1   1   18.33    1.25
 -45   1   1   18.98    1.18
 -45  -1   0    4.34    1.03
 -45   1   0    5.04    0.85
 -45  -1  -1    1.74    1.03
 -45   1  -1    0.66    0.89
 -45  -1  -2   36.49    1.78
 -45   1  -2   42.38    1.87
 -45  -1  -3    1.25    1.05
 -45   1  -3    1.75    0.94
 -45  -1  -4    3.61    1.10
 -45   1  -4    5.55    1.03
 -45  -1  -5    2.21    1.06
 -45   1  -5    2.14    1.02
 -45  -3  20    2.24    1.00
 -45  -3  19    1.24    0.95
 -45  -3  19   -1.12    1.08
 -45   3  19    0.11    0.86
 -45  -3  18    9.19    1.02
 -45  -3  18    8.49    1.16
 -45   3  18    7.98    0.93
 -45  -3  17   -0.25    0.92
 -45  -3  17   -0.16    1.15
 -45   3  17    1.57    0.88
 -45  -3  16    4.16    1.06
 -45  -3  16    5.25    1.09
 -45   3  16    5.14    0.93
 -45  -3  15    2.89    1.07
 -45  -3  15    0.88    0.97
 -45   3  15    2.28    0.93
 -45  -3  14    1.33    0.98
 -45  -3  14   -0.50    1.11
 -45   3  14    1.49    0.86
 -45  -3  13   -2.05    1.14
 -45  -3  13   -1.51    1.03
 -45   3  13   -0.07    0.88
 -45  -3  12    1.66    1.07
 -45  -3  12    1.87    1.07
 -45   3  12    3.47    0.89
 -45  -3  11   -0.17    1.18
 -45  -3  11    1.77    1.06
 -45   3  11    1.21    0.87
 -45  -3  10    4.42    1.14
 -45  -3  10    5.46    1.20
 -45   3  10    6.37    0.90
 -45  -3   9    1.77    1.13
 -45  -3   9    2.64    1.19
 -45   3   9    1.97    0.82
 -45  -3   8   21.34    1.50
 -45  -3   8   21.16    1.49
 -45   3   8   16.81    1.08
 -45  -3   7   13.73    1.33
 -45  -3   7   14.17    1.44
 -45   3   7   13.93    1.04
 -45  -3   6    2.30    1.09
 -45  -3   6    2.92    1.12
 -45   3   6    0.04    0.78
 -45  -3   5    1.15    1.02
 -45  -3   5    2.80    1.15
 -45   3   5    2.22    0.78
 -45  -3   4   -0.41    1.09
 -45  -3   4    1.64    1.02
 -45   3   4    0.43    0.71
 -45  -3   3   -0.16    1.08
 -45  -3   3   -1.35    1.04
 -45   3   3    0.24    0.72
 -45  -3   2    0.33    0.96
 -45  -3   2    0.58    0.97
 -45   3   2    1.35    0.81
 -45  -3   1    0.64    1.01
 -45  -3   1    0.27    0.98
 -45   3   1    1.04    0.86
 -45  -3   0    2.21    1.04
 -45  -3   0    3.19    1.05
 -45   3   0    4.76    0.89
 -45  -3  -1   -0.36    0.91
 -45  -3  -1    0.82    0.95
 -45   3  -1   -0.14    0.73
 -45  -3  -2    6.29    0.90
 -45  -3  -2    3.91    0.85
 -45   3  -2    7.83    0.99
 -46   0  22    7.28    0.92
 -46   0  22    6.61    1.07
 -46   0  21    0.13    0.83
 -46   0  21   -0.66    0.88
 -46   0  20    0.21    0.78
 -46   0  20    0.84    0.92
 -46   0  19    0.54    0.80
 -46   0  19    1.41    0.96
 -46   0  18   97.83    3.48
 -46   0  18  101.20    3.64
 -46   0  17   -1.34    0.94
 -46   0  16   13.80    1.14
 -46   0  15   -0.15    0.94
 -46   0  14    1.75    0.94
 -46   0  13    0.48    0.91
 -46   0  12   10.66    1.17
 -46   0  11   -0.08    0.95
 -46   0  10    3.54    1.00
 -46   0   9    0.20    0.86
 -46   0   8    6.93    1.04
 -46   0   7   -0.06    0.85
 -46   0   6   37.49    1.72
 -46   0   5   -0.24    0.87
 -46   0   4    0.03    0.90
 -46   0   3    0.95    0.92
 -46   0   2   43.77    1.89
 -46   0   1   -1.00    0.91
 -46   0   0   -0.21    1.00
 -46   0  -1   -0.26    1.06
 -46   0  -2    0.51    1.06
 -46   0  -3    1.47    1.05
 -46   0  -4    1.51    1.15
 -46  -2  20    0.60    1.10
 -46  -2  20    2.56    0.91
 -46   2  20    3.03    0.94
 -46  -2  19   17.68    1.16
 -46  -2  19   17.83    1.27
 -46   2  19   19.21    1.22
 -46  -2  18    0.18    0.98
 -46  -2  18   -0.81    0.86
 -46   2  18    0.31    0.89
 -46  -2  17    0.03    0.83
 -46  -2  17    0.96    1.10
 -46   2  17   -0.11    0.86
 -46  -2  16    2.05    0.89
 -46  -2  16    0.86    1.01
 -46   2  16    0.14    0.90
 -46  -2  15   19.42    1.26
 -46  -2  15   20.65    1.36
 -46   2  15   18.26    1.22
 -46  -2  14    1.71    1.13
 -46  -2  14    2.37    0.93
 -46   2  14    2.45    0.89
 -46  -2  13    1.63    1.09
 -46  -2  13    0.58    1.01
 -46   2  13    0.33    0.97
 -46  -2  12   55.95    2.36
 -46  -2  12   59.17    2.38
 -46   2  12   55.11    2.20
 -46  -2  11    1.49    1.07
 -46  -2  11   -0.49    1.04
 -46   2  11    1.23    0.90
 -46  -2  10    0.71    1.07
 -46  -2  10   -0.63    1.01
 -46   2  10    1.33    0.83
 -46  -2   9    0.53    0.94
 -46  -2   9    0.12    1.00
 -46   2   9    0.36    0.88
 -46  -2   8   -0.67    1.11
 -46  -2   8    0.06    0.96
 -46   2   8    1.21    0.83
 -46  -2   7    1.79    1.10
 -46  -2   7    2.95    1.15
 -46   2   7    2.53    0.89
 -46  -2   6   18.78    1.40
 -46  -2   6   16.15    1.31
 -46   2   6   18.42    1.14
 -46  -2   5   30.65    1.69
 -46  -2   5   30.34    1.66
 -46   2   5   31.24    1.51
 -46  -2   4   13.81    1.36
 -46  -2   4   15.64    1.40
 -46   2   4   15.84    1.09
 -46  -2   3    4.69    1.07
 -46  -2   3    5.83    1.15
 -46   2   3    5.72    0.81
 -46  -2   2    2.16    1.02
 -46  -2   2   -0.06    0.95
 -46   2   2    1.91    0.75
 -46  -2   1    0.01    0.95
 -46  -2   1    0.62    1.09
 -46   2   1    2.61    0.91
 -46  -2   0   -0.98    1.01
 -46  -2   0    1.97    1.08
 -46   2   0    1.72    0.83
 -46  -2  -1    0.33    1.02
 -46  -2  -1    0.31    1.04
 -46   2  -1    1.29    0.89
 -46  -2  -2   -0.17    0.91
 -46  -2  -2   -0.19    1.20
 -46   2  -2    0.67    0.82
 -46  -2  -3    1.17    1.03
 -46  -2  -3    3.13    1.26
 -46   2  -3    4.44    1.05
 -46  -4  13    2.47    1.27
 -46  -4  13    0.08    1.34
 -46   4  13    0.40    0.96
 -46  -4  12    2.76    1.39
 -46  -4  12    2.52    1.28
 -46   4  12    1.48    0.85
 -46  -4  11   33.25    1.88
 -46  -4  11   33.14    1.97
 -46   4  11   33.10    1.59
 -46  -4  10    2.51    1.31
 -46  -4  10    2.55    1.32
 -46   4  10    1.49    0.77
 -46  -4   9   39.84    1.95
 -46  -4   9   36.07    1.97
 -46   4   9   35.08    1.54
 -46  -4   8    2.79    1.21
 -46  -4   8    4.84    1.38
 -46   4   8    6.74    0.85
 -46  -4   7    3.43    1.38
 -46  -4   7    7.62    1.32
 -46   4   7    6.77    0.79
 -46  -4   6    7.64    1.43
 -46  -4   6    8.82    1.33
 -46   4   6   10.33    0.90
 -46  -4   5    0.67    1.13
 -46  -4   5   -0.88    1.30
 -46   4   5    0.45    0.69
 -46  -4   4    2.39    1.44
 -46  -4   4    1.41    1.20
 -47  -1  20    6.82    1.01
 -47  -1  20    4.95    1.11
 -47   1  20    3.45    1.11
 -47  -1  19    8.00    1.01
 -47  -1  19   10.06    1.11
 -47   1  19    9.21    1.05
 -47  -1  18    0.10    0.99
 -47  -1  18    0.71    0.96
 -47   1  18    1.12    0.88
 -47  -1  17    0.28    0.98
 -47  -1  17    0.39    0.88
 -47   1  17    0.83    0.93
 -47  -1  16    2.13    0.92
 -47  -1  16    1.77    0.99
 -47   1  16    2.23    0.96
 -47  -1  15   18.82    1.20
 -47  -1  15   18.66    1.30
 -47   1  15   21.63    1.27
 -47  -1  14    0.64    0.91
 -47  -1  14   -0.02    1.02
 -47   1  14   -0.47    0.93
 -47  -1  13    4.77    1.10
 -47  -1  13    4.80    1.00
 -47   1  13    6.23    0.96
 -47  -1  12    1.74    1.03
 -47   1  12    1.31    0.94
 -47  -1  11   16.30    1.27
 -47   1  11   15.34    1.16
 -47  -1  10    3.24    1.01
 -47   1  10    3.96    0.96
 -47  -1   9   20.24    1.39
 -47   1   9   21.07    1.23
 -47  -1   8    7.23    1.16
 -47   1   8    7.16    0.98
 -47  -1   7    8.46    1.10
 -47   1   7   10.23    1.05
 -47  -1   6   37.12    1.75
 -47   1   6   36.66    1.72
 -47  -1   5    1.33    1.06
 -47   1   5    1.21    0.93
 -47  -1   4    3.26    1.12
 -47   1   4    4.65    0.95
 -47  -1   3    7.90    1.13
 -47   1   3    6.77    0.90
 -47  -1   2    0.66    0.98
 -47   1   2    1.07    0.85
 -47  -1   1    3.16    1.16
 -47   1   1    4.63    0.96
 -47  -1   0    3.22    1.08
 -47   1   0    3.99    0.95
 -47  -1  -1    2.39    1.08
 -47   1  -1    1.87    0.88
 -47  -1  -2    1.24    1.00
 -47   1  -2    0.49    0.93
 -47  -3  16    7.75    1.26
 -47  -3  16    6.20    1.38
 -47   3  16    8.01    1.18
 -47  -3  15   20.99    1.42
 -47  -3  15   23.32    1.52
 -47   3  15   19.25    1.21
 -47  -3  14    5.24    1.20
 -47  -3  14    9.50    1.29
 -47   3  14    8.06    0.99
 -47  -3  13    1.66    1.15
 -47  -3  13    0.54    1.15
 -47   3  13   -0.72    0.90
 -47  -3  12   11.88    1.44
 -47  -3  12   11.56    1.30
 -47   3  12   14.32    1.04
 -47  -3  11   -0.27    1.03
 -47  -3  11    0.88    1.29
 -47   3  11    0.03    0.82
 -47  -3  10    1.73    1.08
 -47  -3  10    1.33    1.28
 -47   3  10    1.62    0.80
 -47  -3   9   -1.37    1.15
 -47  -3   9   -0.53    1.18
 -47   3   9   -0.96    0.77
 -47  -3   8    6.34    1.30
 -47  -3   8    5.10    1.22
 -47   3   8    7.08    0.95
 -47  -3   7   -1.69    1.32
 -47  -3   7    0.13    1.09
 -47   3   7    0.71    0.78
 -47  -3   6   -0.43    1.33
 -47  -3   6   -0.27    1.12
 -47   3   6   -0.19    0.80
 -47  -3   5    9.46    1.24
 -47  -3   5    6.88    1.42
 -47   3   5    6.79    0.88
 -47  -3   4   -0.85    1.11
 -47  -3   4   -2.50    1.36
 -47   3   4   -0.58    0.71
 -47   3   3   14.60    1.07
 -47  -3   2    0.32    1.33
 -47  -3   2   -0.35    1.18
 -47   3   2    1.19    0.83
 -48   0  19   -0.15    0.94
 -48   0  19    0.18    1.08
 -48   0  18   -0.06    0.89
 -48   0  18    1.11    0.97
 -48   0  17    0.75    0.98
 -48   0  16   12.85    1.16
 -48   0  15   -0.25    0.92
 -48   0  14   33.43    1.66
 -48   0  13   -1.50    0.97
 -48   0  12    0.64    0.94
 -48   0  11    0.94    0.94
 -48   0  10    4.52    1.05
 -48   0   9   -1.53    1.01
 -48   0   8   43.96    1.91
 -48   0   7    0.86    0.91
 -48   0   6    5.93    0.98
 -48   0   5    0.34    1.01
 -48   0   4    0.74    0.95
 -48   0   3    0.75    0.86
 -48   0   2    0.97    0.87
 -48   0   1   -0.37    0.96
 -48   0   0   14.94    1.28
 -48  -2  17   -0.25    1.18
 -48  -2  16    2.87    1.09
 -48  -2  16    0.10    1.15
 -48   2  16    0.78    0.87
 -48  -2  15    0.17    1.12
 -48  -2  15   -1.01    1.04
 -48   2  15    1.33    0.86
 -48  -2  14   20.15    1.33
 -48  -2  14   21.89    1.49
 -48   2  14   21.49    1.28
 -48  -2  13    1.62    1.15
 -48  -2  13   -0.67    1.03
 -48   2  13    0.14    0.83
 -48  -2  12    0.54    1.05
 -48  -2  12   -1.19    1.04
 -48   2  12    0.69    0.88
 -48  -2  11   51.61    2.20
 -48  -2  11   47.59    2.09
 -48   2  11   49.43    1.99
 -48  -2  10   12.84    1.31
 -48  -2  10   14.59    1.37
 -48   2  10   13.16    1.05
 -48  -2   9    2.62    1.18
 -48  -2   9    0.13    1.01
 -48   2   9    1.88    0.89
 -48  -2   8   12.07    1.31
 -48  -2   8    9.48    1.14
 -48   2   8   11.24    1.02
 -48  -2   7   -0.48    1.07
 -48  -2   7    0.80    1.10
 -48   2   7   -0.01    0.89
 -48  -2   6    0.98    1.07
 -48  -2   6    0.58    1.11
 -48   2   6    1.45    0.88
 -48  -2   5    1.23    1.07
 -48  -2   5    0.71    1.16
 -48   2   5    0.60    0.78
 -48  -2   4    1.86    1.23
 -48  -2   4    3.46    1.09
 -48   2   4    1.88    0.85
 -48  -2   3    1.89    1.15
 -48  -2   3    5.23    1.15
 -48   2   3    5.09    0.92
 -48   2   2   27.20    1.44
 -49  -1  16   12.04    1.30
 -49  -1  16   10.57    1.09
 -49   1  16    9.73    1.13
 -49  -1  15    0.59    0.90
 -49  -1  15    1.30    1.11
 -49   1  15    0.87    0.95
 -49  -1  14    2.80    0.94
 -49  -1  14    1.17    1.09
 -49   1  14    4.29    0.97
 -49  -1  13    5.55    1.07
 -49  -1  13    4.43    0.98
 -49   1  13    3.48    0.93
 -49  -1  12   14.60    1.23
 -49  -1  12   15.95    1.20
 -49   1  12   15.10    1.16
 -49  -1  11    1.76    1.05
 -49   1  11    0.68    0.91
 -49  -1  10    3.03    1.09
 -49   1  10    3.38    0.93
 -49  -1   9    1.90    0.99
 -49   1   9    1.89    0.95
 -49  -1   8    3.56    1.09
 -49   1   8    3.74    0.99
 -49  -1   7    3.26    1.03
 -49   1   7    3.43    0.97
 -49  -1   6    1.76    1.01
 -49   1   6    3.12    0.92
 -49  -1   5    0.80    1.01
 -49   1   5    0.84    0.82
 -49  -1   4   -0.11    1.08
 -49   1   4    0.82    0.91
 -49  -1   3    2.05    1.07
 -49   1   3    1.66    0.86
 -50   0  13    1.12    1.00
 -50   0  12    7.44    1.10
 -50   0  11    0.91    0.95
 -50   0  10   16.06    1.22
 -50   0   9    0.65    0.97
 -50   0   8   -1.19    1.01
 -50   0   7    0.74    0.95
 -50   0   6    9.35    1.12
   0   0   0    0.00    0.00
;
_shelx_hkl_checksum   17028

