 
data_pvl488Se_autored_a
 
_audit_creation_method            'SHELXL-2018/3'
_shelx_SHELXL_version_number      '2018/3'
_chemical_name_systematic         ?
_chemical_name_common             ?
_chemical_melting_point           ?
_chemical_formula_moiety          ?
_chemical_formula_sum
 'C H Cd N O Se' 
_chemical_formula_weight          234.39

loop_
 _atom_type_symbol
 _atom_type_description
 _atom_type_scat_dispersion_real
 _atom_type_scat_dispersion_imag
 _atom_type_scat_source
 'C'  'C'   0.0033   0.0016
 'International Tables Vol C Tables 4.2.6.8 and 6.1.1.4'
 'H'  'H'   0.0000   0.0000
 'International Tables Vol C Tables 4.2.6.8 and 6.1.1.4'
 'N'  'N'   0.0061   0.0033
 'International Tables Vol C Tables 4.2.6.8 and 6.1.1.4'
 'O'  'O'   0.0106   0.0060
 'International Tables Vol C Tables 4.2.6.8 and 6.1.1.4'
 'Se'  'Se'  -0.0929   2.2259
 'International Tables Vol C Tables 4.2.6.8 and 6.1.1.4'
 'Cd'  'Cd'  -0.8075   1.2024
 'International Tables Vol C Tables 4.2.6.8 and 6.1.1.4'
 
_space_group_crystal_system       monoclinic
_space_group_IT_number            14
_space_group_name_H-M_alt         'P 21/c'
_space_group_name_Hall            '-P 2ybc'
 
_shelx_space_group_comment
;
The symmetry employed for this shelxl refinement is uniquely defined
by the following loop, which should always be used as a source of
symmetry information in preference to the above space-group names.
They are only intended as comments.
;
 
loop_
 _space_group_symop_operation_xyz
 'x, y, z'
 '-x, y+1/2, -z+1/2'
 '-x, -y, -z'
 'x, -y-1/2, z-1/2'
 
_cell_length_a                    7.1319(2)
_cell_length_b                    19.9541(6)
_cell_length_c                    13.4687(4)
_cell_angle_alpha                 90
_cell_angle_beta                  93.265(3)
_cell_angle_gamma                 90
_cell_volume                      1913.63(10)
_cell_formula_units_Z             22
_cell_measurement_temperature     150(2)
_cell_measurement_reflns_used     ?
_cell_measurement_theta_min       ?
_cell_measurement_theta_max       ?
 
_exptl_crystal_description        ?
_exptl_crystal_colour             ?
_exptl_crystal_density_meas       ?
_exptl_crystal_density_method     ?
_exptl_crystal_density_diffrn     4.475          
_exptl_crystal_F_000              2288
_exptl_transmission_factor_min    ?
_exptl_transmission_factor_max    ?
_exptl_crystal_size_max           ?
_exptl_crystal_size_mid           ?
_exptl_crystal_size_min           ?
_exptl_absorpt_coefficient_mu     16.502
_shelx_estimated_absorpt_T_min    ?
_shelx_estimated_absorpt_T_max    ?
_exptl_absorpt_correction_type    ?
_exptl_absorpt_correction_T_min   ?
_exptl_absorpt_correction_T_max   ?
_exptl_absorpt_process_details    ?
_exptl_absorpt_special_details    ?
_diffrn_ambient_temperature       150(2)
_diffrn_radiation_wavelength      0.71073
_diffrn_radiation_type            MoK\a
_diffrn_source                    ?
_diffrn_measurement_device_type   ?
_diffrn_measurement_method        ?
_diffrn_detector_area_resol_mean  ?
_diffrn_reflns_number             17271
_diffrn_reflns_av_unetI/netI      0.0308
_diffrn_reflns_av_R_equivalents   0.0352
_diffrn_reflns_limit_h_min        -7
_diffrn_reflns_limit_h_max        9
_diffrn_reflns_limit_k_min        -25
_diffrn_reflns_limit_k_max        27
_diffrn_reflns_limit_l_min        -18
_diffrn_reflns_limit_l_max        18
_diffrn_reflns_theta_min          1.826
_diffrn_reflns_theta_max          29.120
_diffrn_reflns_theta_full         25.242
_diffrn_measured_fraction_theta_max   0.878
_diffrn_measured_fraction_theta_full  1.000
_diffrn_reflns_Laue_measured_fraction_max    0.878
_diffrn_reflns_Laue_measured_fraction_full   1.000
_diffrn_reflns_point_group_measured_fraction_max   0.878
_diffrn_reflns_point_group_measured_fraction_full  1.000
_reflns_number_total              4517
_reflns_number_gt                 3956
_reflns_threshold_expression      'I > 2\s(I)'
_reflns_Friedel_coverage          0.000
_reflns_Friedel_fraction_max      .
_reflns_Friedel_fraction_full     .
 
_reflns_special_details
;
 Reflections were merged by SHELXL according to the crystal
 class for the calculation of statistics and refinement.
 
 _reflns_Friedel_fraction is defined as the number of unique
 Friedel pairs measured divided by the number that would be
 possible theoretically, ignoring centric projections and
 systematic absences.
;
 
_computing_data_collection        ?
_computing_cell_refinement        ?
_computing_data_reduction         ?
_computing_structure_solution     'SHELXT 2018/2 (Sheldrick, 2018)'
_computing_structure_refinement 'SHELXL-2018/3 (Sheldrick, 2018)'
_computing_molecular_graphics     ?
_computing_publication_material   ?
_refine_special_details           ?
_refine_ls_structure_factor_coef  Fsqd
_refine_ls_matrix_type            full
_refine_ls_weighting_scheme       calc
_refine_ls_weighting_details
'w=1/[\s^2^(Fo^2^)+(0.1000P)^2^] where P=(Fo^2^+2Fc^2^)/3'
_atom_sites_solution_primary      ?
_atom_sites_solution_secondary    ?
_atom_sites_solution_hydrogens    geom
_refine_ls_hydrogen_treatment     constr
_refine_ls_extinction_method      none
_refine_ls_extinction_coef        .
_refine_ls_number_reflns          4517
_refine_ls_number_parameters      289
_refine_ls_number_restraints      0
_refine_ls_R_factor_all           0.0685
_refine_ls_R_factor_gt            0.0615
_refine_ls_wR_factor_ref          0.1713
_refine_ls_wR_factor_gt           0.1652
_refine_ls_goodness_of_fit_ref    1.350
_refine_ls_restrained_S_all       1.350
_refine_ls_shift/su_max           0.001
_refine_ls_shift/su_mean          0.000
 
loop_
 _atom_site_label
 _atom_site_type_symbol
 _atom_site_fract_x
 _atom_site_fract_y
 _atom_site_fract_z
 _atom_site_U_iso_or_equiv
 _atom_site_adp_type
 _atom_site_occupancy
 _atom_site_site_symmetry_order  
 _atom_site_calc_flag
 _atom_site_refinement_flags_posn
 _atom_site_refinement_flags_adp
 _atom_site_refinement_flags_occupancy
 _atom_site_disorder_assembly
 _atom_site_disorder_group
Cd01 Cd 0.80530(4) 0.60658(2) 0.96869(2) 0.00970(15) Uani 1 1 d . . . . .
Se02 Se 0.82555(9) 0.69288(3) 0.46958(3) 0.0298(2) Uani 1 1 d . . . . .
O003 O 0.7545(4) 0.68929(17) 0.8392(2) 0.0131(6) Uani 1 1 d . . . . .
O004 O 0.5207(4) 0.65127(15) 0.9237(2) 0.0137(6) Uani 1 1 d . . . . .
O005 O -0.1268(4) 0.81027(16) 0.5940(2) 0.0133(6) Uani 1 1 d . . . . .
O006 O 0.1019(4) 0.86391(16) 0.5250(2) 0.0162(7) Uani 1 1 d . . . . .
N1 N 0.7182(6) 0.4522(2) 0.7268(3) 0.0223(9) Uani 1 1 d . . . . .
N008 N 0.7407(6) 0.53688(19) 0.0996(3) 0.0161(8) Uani 1 1 d . . . . .
N009 N 0.8061(6) 0.53288(19) 0.8360(3) 0.0170(8) Uani 1 1 d . . . . .
N00A N 0.7052(6) 0.45246(19) 0.2070(3) 0.0193(8) Uani 1 1 d . . . . .
N00B N 0.7700(5) 0.50944(19) 0.6789(3) 0.0162(8) Uani 1 1 d . . . . .
N2 N 0.7362(5) 0.51173(18) 0.2566(3) 0.0138(7) Uani 1 1 d . . . . .
N3 N 0.8134(7) 0.6322(2) 0.5661(3) 0.0235(10) Uani 1 1 d . . . . .
N4 N 0.7937(7) 0.6331(2) 0.3723(3) 0.0249(10) Uani 1 1 d . . . . .
C00F C 0.5812(6) 0.6852(2) 0.8534(3) 0.0106(8) Uani 1 1 d . . . . .
C00G C 0.0459(6) 0.8221(2) 0.5873(3) 0.0111(8) Uani 1 1 d . . . . .
C00H C 0.4426(6) 0.7214(2) 0.7849(3) 0.0122(8) Uani 1 1 d . . . . .
C00I C 0.3770(7) 0.7885(2) 0.6384(4) 0.0155(10) Uani 1 1 d . . . . .
H00I H 0.419641 0.812459 0.582990 0.019 Uiso 1 1 calc R U . . .
C00J C 0.2509(6) 0.7193(2) 0.8014(3) 0.0144(9) Uani 1 1 d . . . . .
H00J H 0.208010 0.695859 0.857113 0.017 Uiso 1 1 calc R U . . .
C00K C 0.7546(7) 0.5612(2) 0.1906(3) 0.0171(9) Uani 1 1 d . . . . .
H00K H 0.774613 0.607060 0.207020 0.021 Uiso 1 1 calc R U . . .
C00L C 0.5037(6) 0.7556(2) 0.7027(3) 0.0164(9) Uani 1 1 d . . . . .
H00L H 0.633666 0.756373 0.690654 0.020 Uiso 1 1 calc R U . . .
C00M C 0.1239(6) 0.7517(2) 0.7362(3) 0.0153(9) Uani 1 1 d . . . . .
H00M H -0.006451 0.750008 0.747034 0.018 Uiso 1 1 calc R U . . .
C00N C 0.7425(6) 0.5120(2) 0.3614(3) 0.0156(9) Uani 1 1 d . . . . .
C00O C 0.7737(7) 0.5740(2) 0.4139(3) 0.0177(9) Uani 1 1 d . . . . .
C00P C 0.8219(7) 0.5567(2) 0.7456(3) 0.0170(9) Uani 1 1 d . . . . .
H00P H 0.863632 0.600456 0.730188 0.020 Uiso 1 1 calc R U . . .
C00Q C 0.7414(7) 0.4695(2) 0.8207(3) 0.0209(10) Uani 1 1 d . . . . .
H00Q H 0.715080 0.440042 0.873547 0.025 Uiso 1 1 calc R U . . .
C00R C 0.1862(6) 0.7864(2) 0.6553(3) 0.0126(9) Uani 1 1 d . . . . .
C00S C 0.7847(7) 0.5735(2) 0.5222(3) 0.0178(10) Uani 1 1 d . . . . .
C00T C 0.7323(7) 0.4533(2) 0.5195(3) 0.0205(10) Uani 1 1 d . . . . .
H00T H 0.716960 0.412192 0.553607 0.025 Uiso 1 1 calc R U . . .
C00U C 0.7626(6) 0.5109(2) 0.5729(3) 0.0152(9) Uani 1 1 d . . . . .
C00V C 0.7109(6) 0.4702(2) 0.1134(3) 0.0158(9) Uani 1 1 d . . . . .
H00V H 0.695669 0.439266 0.059996 0.019 Uiso 1 1 calc R U . . .
C00W C 0.7234(7) 0.4540(2) 0.4132(3) 0.0191(10) Uani 1 1 d . . . . .
H00W H 0.703704 0.413108 0.377952 0.023 Uiso 1 1 calc R U . . .
 
loop_
 _atom_site_aniso_label
 _atom_site_aniso_U_11
 _atom_site_aniso_U_22
 _atom_site_aniso_U_33
 _atom_site_aniso_U_23
 _atom_site_aniso_U_13
 _atom_site_aniso_U_12
Cd01 0.0105(2) 0.0120(2) 0.0064(2) 0.00008(10) -0.00187(14) -0.00035(10)
Se02 0.0659(5) 0.0118(3) 0.0109(3) -0.00063(16) -0.0039(3) -0.0055(2)
O003 0.0092(15) 0.0180(15) 0.0121(15) 0.0033(13) 0.0003(12) 0.0006(12)
O004 0.0101(14) 0.0203(16) 0.0106(14) 0.0043(12) -0.0003(12) -0.0001(12)
O005 0.0102(15) 0.0154(15) 0.0139(15) 0.0012(13) -0.0013(12) 0.0005(12)
O006 0.0125(15) 0.0217(16) 0.0142(15) 0.0078(13) -0.0003(12) 0.0017(13)
N1 0.032(2) 0.0191(19) 0.0156(19) 0.0071(16) 0.0021(17) -0.0014(18)
N008 0.022(2) 0.0149(18) 0.0119(17) 0.0001(15) 0.0000(16) -0.0026(16)
N009 0.021(2) 0.0174(19) 0.0125(18) 0.0010(15) 0.0019(16) 0.0026(16)
N00A 0.029(2) 0.0137(18) 0.0151(19) -0.0041(15) 0.0026(17) -0.0037(17)
N00B 0.019(2) 0.0163(18) 0.0131(17) 0.0010(15) -0.0010(15) 0.0006(16)
N2 0.0166(19) 0.0146(18) 0.0106(17) -0.0013(14) 0.0033(14) -0.0033(15)
N3 0.046(3) 0.016(2) 0.0086(18) -0.0002(16) -0.0024(19) 0.0005(19)
N4 0.046(3) 0.018(2) 0.0111(19) 0.0000(17) -0.0029(19) -0.0079(19)
C00F 0.0111(19) 0.0122(19) 0.0085(19) -0.0016(17) 0.0004(16) 0.0011(16)
C00G 0.0102(19) 0.015(2) 0.0083(18) -0.0005(17) -0.0015(16) 0.0013(16)
C00H 0.012(2) 0.0125(19) 0.012(2) 0.0011(17) 0.0014(17) 0.0025(17)
C00I 0.012(2) 0.023(2) 0.011(2) 0.0052(17) 0.0053(18) 0.0000(17)
C00J 0.012(2) 0.019(2) 0.012(2) 0.0061(18) 0.0034(17) 0.0011(18)
C00K 0.025(2) 0.014(2) 0.013(2) 0.0014(18) 0.0009(18) -0.0016(18)
C00L 0.009(2) 0.023(2) 0.018(2) 0.0027(19) 0.0029(17) 0.0014(18)
C00M 0.009(2) 0.020(2) 0.017(2) 0.0042(18) -0.0004(17) 0.0021(17)
C00N 0.016(2) 0.018(2) 0.0131(19) 0.0023(18) -0.0018(17) 0.0008(18)
C00O 0.023(2) 0.017(2) 0.013(2) -0.0027(18) -0.0010(18) -0.0031(19)
C00P 0.025(2) 0.019(2) 0.0073(19) -0.0037(17) 0.0002(18) 0.0005(19)
C00Q 0.030(3) 0.019(2) 0.014(2) 0.0009(19) 0.001(2) 0.005(2)
C00R 0.010(2) 0.014(2) 0.014(2) 0.0010(16) -0.0007(17) 0.0019(16)
C00S 0.026(3) 0.016(2) 0.012(2) 0.0010(18) -0.0019(19) 0.0002(19)
C00T 0.030(3) 0.016(2) 0.017(2) 0.0016(18) 0.003(2) -0.002(2)
C00U 0.014(2) 0.020(2) 0.0115(19) -0.0016(18) -0.0001(16) 0.0039(18)
C00V 0.019(2) 0.018(2) 0.010(2) -0.0022(17) 0.0000(17) -0.0014(17)
C00W 0.025(2) 0.016(2) 0.015(2) 0.0006(18) 0.0004(19) 0.0001(19)
 
_geom_special_details
;
 All esds (except the esd in the dihedral angle between two l.s. planes)
 are estimated using the full covariance matrix.  The cell esds are taken
 into account individually in the estimation of esds in distances, angles
 and torsion angles; correlations between esds in cell parameters are only
 used when they are defined by crystal symmetry.  An approximate (isotropic)
 treatment of cell esds is used for estimating esds involving l.s. planes.
;
 
loop_
 _geom_bond_atom_site_label_1
 _geom_bond_atom_site_label_2
 _geom_bond_distance
 _geom_bond_site_symmetry_2
 _geom_bond_publ_flag
Cd01 O004 2.268(3) . ?
Cd01 O006 2.283(3) 4_676 ?
Cd01 N008 2.312(4) 1_556 ?
Cd01 N009 2.314(4) . ?
Cd01 O005 2.397(3) 4_676 ?
Cd01 O003 2.413(3) . ?
Cd01 C00F 2.673(4) . ?
Cd01 C00G 2.685(4) 4_676 ?
Se02 N4 1.777(4) . ?
Se02 N3 1.782(4) . ?
O003 C00F 1.264(5) . ?
O004 C00F 1.260(5) . ?
O005 C00G 1.262(5) . ?
O006 C00G 1.264(5) . ?
N1 C00Q 1.311(6) . ?
N1 N00B 1.373(5) . ?
N008 C00K 1.317(6) . ?
N008 C00V 1.361(5) . ?
N009 C00P 1.317(6) . ?
N009 C00Q 1.359(6) . ?
N00A C00V 1.312(6) . ?
N00A N2 1.370(5) . ?
N00B C00P 1.340(6) . ?
N00B C00U 1.426(5) . ?
N2 C00K 1.340(6) . ?
N2 C00N 1.410(6) . ?
N3 C00S 1.323(6) . ?
N4 C00O 1.318(6) . ?
C00F C00H 1.498(6) . ?
C00G C00R 1.498(6) . ?
C00H C00J 1.397(6) . ?
C00H C00L 1.393(6) . ?
C00I C00L 1.382(7) . ?
C00I C00R 1.393(6) . ?
C00J C00M 1.384(6) . ?
C00M C00R 1.386(6) . ?
C00N C00W 1.363(6) . ?
C00N C00O 1.435(6) . ?
C00O C00S 1.456(7) . ?
C00S C00U 1.437(6) . ?
C00T C00U 1.366(6) . ?
C00T C00W 1.430(6) . ?
 
loop_
 _geom_angle_atom_site_label_1
 _geom_angle_atom_site_label_2
 _geom_angle_atom_site_label_3
 _geom_angle
 _geom_angle_site_symmetry_1
 _geom_angle_site_symmetry_3
 _geom_angle_publ_flag
O004 Cd01 O006 141.78(12) . 4_676 ?
O004 Cd01 N008 103.08(12) . 1_556 ?
O006 Cd01 N008 97.04(13) 4_676 1_556 ?
O004 Cd01 N009 94.87(13) . . ?
O006 Cd01 N009 112.18(13) 4_676 . ?
N008 Cd01 N009 102.46(14) 1_556 . ?
O004 Cd01 O005 93.32(11) . 4_676 ?
O006 Cd01 O005 56.03(11) 4_676 4_676 ?
N008 Cd01 O005 85.43(12) 1_556 4_676 ?
N009 Cd01 O005 167.01(13) . 4_676 ?
O004 Cd01 O003 56.12(10) . . ?
O006 Cd01 O003 99.32(11) 4_676 . ?
N008 Cd01 O003 159.07(13) 1_556 . ?
N009 Cd01 O003 83.32(13) . . ?
O005 Cd01 O003 92.95(13) 4_676 . ?
O004 Cd01 C00F 28.04(12) . . ?
O006 Cd01 C00F 123.62(13) 4_676 . ?
N008 Cd01 C00F 131.12(14) 1_556 . ?
N009 Cd01 C00F 87.25(13) . . ?
O005 Cd01 C00F 95.34(12) 4_676 . ?
O003 Cd01 C00F 28.18(12) . . ?
O004 Cd01 C00G 118.85(12) . 4_676 ?
O006 Cd01 C00G 28.01(12) 4_676 4_676 ?
N008 Cd01 C00G 90.76(13) 1_556 4_676 ?
N009 Cd01 C00G 140.05(14) . 4_676 ?
O005 Cd01 C00G 28.03(12) 4_676 4_676 ?
O003 Cd01 C00G 97.58(12) . 4_676 ?
C00F Cd01 C00G 112.04(14) . 4_676 ?
N4 Se02 N3 94.2(2) . . ?
C00F O003 Cd01 87.4(3) . . ?
C00F O004 Cd01 94.2(3) . . ?
C00G O005 Cd01 88.8(3) . 4_475 ?
C00G O006 Cd01 94.0(3) . 4_475 ?
C00Q N1 N00B 102.2(4) . . ?
C00K N008 C00V 103.7(4) . . ?
C00K N008 Cd01 118.7(3) . 1_554 ?
C00V N008 Cd01 137.0(3) . 1_554 ?
C00P N009 C00Q 103.9(4) . . ?
C00P N009 Cd01 119.2(3) . . ?
C00Q N009 Cd01 133.9(3) . . ?
C00V N00A N2 102.8(4) . . ?
C00P N00B N1 110.0(4) . . ?
C00P N00B C00U 130.6(4) . . ?
N1 N00B C00U 119.5(4) . . ?
C00K N2 N00A 109.4(3) . . ?
C00K N2 C00N 131.5(4) . . ?
N00A N2 C00N 119.1(4) . . ?
C00S N3 Se02 106.8(3) . . ?
C00O N4 Se02 107.4(3) . . ?
O004 C00F O003 121.8(4) . . ?
O004 C00F C00H 118.6(4) . . ?
O003 C00F C00H 119.6(4) . . ?
O004 C00F Cd01 57.8(2) . . ?
O003 C00F Cd01 64.4(2) . . ?
C00H C00F Cd01 172.8(3) . . ?
O006 C00G O005 121.1(4) . . ?
O006 C00G C00R 119.6(4) . . ?
O005 C00G C00R 119.2(4) . . ?
O006 C00G Cd01 58.0(2) . 4_475 ?
O005 C00G Cd01 63.2(2) . 4_475 ?
C00R C00G Cd01 176.3(3) . 4_475 ?
C00J C00H C00L 119.6(4) . . ?
C00J C00H C00F 120.4(4) . . ?
C00L C00H C00F 120.0(4) . . ?
C00L C00I C00R 119.5(4) . . ?
C00M C00J C00H 119.7(4) . . ?
N008 C00K N2 109.9(4) . . ?
C00I C00L C00H 120.6(4) . . ?
C00J C00M C00R 120.3(4) . . ?
C00W C00N N2 120.7(4) . . ?
C00W C00N C00O 119.8(4) . . ?
N2 C00N C00O 119.4(4) . . ?
N4 C00O C00N 125.4(4) . . ?
N4 C00O C00S 115.5(4) . . ?
C00N C00O C00S 119.1(4) . . ?
N009 C00P N00B 109.4(4) . . ?
N1 C00Q N009 114.5(4) . . ?
C00I C00R C00M 120.3(4) . . ?
C00I C00R C00G 120.7(4) . . ?
C00M C00R C00G 119.1(4) . . ?
N3 C00S C00U 125.1(4) . . ?
N3 C00S C00O 116.1(4) . . ?
C00U C00S C00O 118.7(4) . . ?
C00U C00T C00W 121.1(4) . . ?
C00T C00U N00B 120.4(4) . . ?
C00T C00U C00S 119.9(4) . . ?
N00B C00U C00S 119.7(4) . . ?
N00A C00V N008 114.1(4) . . ?
C00N C00W C00T 121.3(4) . . ?
 
_refine_diff_density_max    9.264
_refine_diff_density_min   -0.717
_refine_diff_density_rms    0.263

_shelx_res_file
;
TITL pvl488Se_autored_a.res in P2(1)/c
    pvl488Se_autored_a.res
    created by SHELXL-2018/3 at 16:56:12 on 26-Jan-2023
REM Old TITL pvl488Se_autored in P2(1)/c
REM SHELXT solution in P2(1)/c: R1 0.119, Rweak 0.005, Alpha 0.081
REM <I/s>   1.287 for  126 systematic absences,  Orientation as input
REM Formula found by SHELXT:  C24 N4 O4 Se Cd
CELL  0.71073   7.1319  19.9541  13.4687   90.000   93.265   90.000
ZERR   22.000   0.0002   0.0006   0.0004    0.000    0.003    0.000
LATT  1
SYMM -X, 1/2+Y, 1/2-Z
SFAC C H N O SE CD
UNIT 22.00 22.00 22.00 22.00 22.00 22.00
ACTA
TEMP -123
L.S. 10
BOND
LIST 6
FMAP 2
PLAN 20
WGHT    0.100000
FVAR       0.21348
CD01  6    0.805300    0.606584    0.968686    11.00000    0.01048    0.01198 =
         0.00639    0.00008   -0.00187   -0.00035
SE02  5    0.825551    0.692883    0.469579    11.00000    0.06591    0.01184 =
         0.01095   -0.00063   -0.00390   -0.00553
O003  4    0.754489    0.689295    0.839249    11.00000    0.00923    0.01797 =
         0.01205    0.00328    0.00030    0.00061
O004  4    0.520656    0.651273    0.923652    11.00000    0.01013    0.02032 =
         0.01058    0.00430   -0.00032   -0.00013
O005  4   -0.126846    0.810267    0.594034    11.00000    0.01023    0.01543 =
         0.01392    0.00117   -0.00128    0.00048
O006  4    0.101857    0.863914    0.525038    11.00000    0.01245    0.02168 =
         0.01421    0.00783   -0.00027    0.00171
N1    3    0.718183    0.452189    0.726808    11.00000    0.03235    0.01911 =
         0.01556    0.00714    0.00210   -0.00140
N008  3    0.740740    0.536878    0.099593    11.00000    0.02156    0.01486 =
         0.01188    0.00014    0.00001   -0.00264
N009  3    0.806107    0.532879    0.836028    11.00000    0.02127    0.01736 =
         0.01248    0.00104    0.00195    0.00258
N00A  3    0.705183    0.452464    0.206987    11.00000    0.02945    0.01365 =
         0.01506   -0.00406    0.00259   -0.00368
N00B  3    0.769980    0.509436    0.678906    11.00000    0.01900    0.01631 =
         0.01307    0.00100   -0.00095    0.00058
N2    3    0.736215    0.511728    0.256581    11.00000    0.01660    0.01464 =
         0.01059   -0.00133    0.00325   -0.00329
N3    3    0.813386    0.632214    0.566067    11.00000    0.04567    0.01565 =
         0.00859   -0.00016   -0.00238    0.00046
N4    3    0.793720    0.633120    0.372258    11.00000    0.04551    0.01771 =
         0.01109   -0.00004   -0.00289   -0.00793
C00F  1    0.581191    0.685210    0.853353    11.00000    0.01111    0.01223 =
         0.00854   -0.00162    0.00038    0.00112
C00G  1    0.045874    0.822084    0.587337    11.00000    0.01024    0.01451 =
         0.00834   -0.00055   -0.00153    0.00126
C00H  1    0.442551    0.721380    0.784918    11.00000    0.01201    0.01249 =
         0.01205    0.00110    0.00145    0.00247
C00I  1    0.376984    0.788542    0.638369    11.00000    0.01228    0.02332 =
         0.01143    0.00525    0.00531    0.00002
AFIX  43
H00I  2    0.419641    0.812459    0.582990    11.00000   -1.20000
AFIX   0
C00J  1    0.250939    0.719339    0.801399    11.00000    0.01206    0.01915 =
         0.01221    0.00608    0.00344    0.00110
AFIX  43
H00J  2    0.208010    0.695859    0.857113    11.00000   -1.20000
AFIX   0
C00K  1    0.754580    0.561218    0.190592    11.00000    0.02475    0.01382 =
         0.01285    0.00136    0.00091   -0.00155
AFIX  43
H00K  2    0.774613    0.607060    0.207020    11.00000   -1.20000
AFIX   0
C00L  1    0.503705    0.755634    0.702656    11.00000    0.00855    0.02328 =
         0.01768    0.00273    0.00295    0.00137
AFIX  43
H00L  2    0.633666    0.756373    0.690654    11.00000   -1.20000
AFIX   0
C00M  1    0.123950    0.751655    0.736244    11.00000    0.00939    0.01972 =
         0.01677    0.00422   -0.00039    0.00209
AFIX  43
H00M  2   -0.006451    0.750008    0.747034    11.00000   -1.20000
AFIX   0
C00N  1    0.742470    0.512000    0.361409    11.00000    0.01561    0.01784 =
         0.01313    0.00229   -0.00176    0.00075
C00O  1    0.773682    0.573981    0.413868    11.00000    0.02318    0.01666 =
         0.01304   -0.00267   -0.00104   -0.00306
C00P  1    0.821919    0.556662    0.745638    11.00000    0.02504    0.01853 =
         0.00729   -0.00375    0.00017    0.00048
AFIX  43
H00P  2    0.863632    0.600456    0.730188    11.00000   -1.20000
AFIX   0
C00Q  1    0.741376    0.469458    0.820651    11.00000    0.02967    0.01875 =
         0.01410    0.00085    0.00076    0.00533
AFIX  43
H00Q  2    0.715080    0.440042    0.873547    11.00000   -1.20000
AFIX   0
C00R  1    0.186202    0.786406    0.655329    11.00000    0.00973    0.01409 =
         0.01392    0.00101   -0.00067    0.00194
C00S  1    0.784698    0.573522    0.522162    11.00000    0.02564    0.01573 =
         0.01176    0.00097   -0.00191    0.00018
C00T  1    0.732336    0.453339    0.519535    11.00000    0.02954    0.01561 =
         0.01660    0.00160    0.00302   -0.00165
AFIX  43
H00T  2    0.716960    0.412192    0.553607    11.00000   -1.20000
AFIX   0
C00U  1    0.762628    0.510894    0.572920    11.00000    0.01387    0.02007 =
         0.01155   -0.00164   -0.00013    0.00389
C00V  1    0.710950    0.470222    0.113433    11.00000    0.01875    0.01810 =
         0.01035   -0.00215   -0.00002   -0.00136
AFIX  43
H00V  2    0.695669    0.439266    0.059996    11.00000   -1.20000
AFIX   0
C00W  1    0.723374    0.453976    0.413201    11.00000    0.02540    0.01636 =
         0.01531    0.00063    0.00039    0.00013
AFIX  43
H00W  2    0.703704    0.413108    0.377952    11.00000   -1.20000
AFIX   0
HKLF 4




REM  pvl488Se_autored_a.res in P2(1)/c
REM wR2 = 0.1713, GooF = S = 1.350, Restrained GooF = 1.350 for all data
REM R1 = 0.0615 for 3956 Fo > 4sig(Fo) and 0.0685 for all 4517 data
REM 289 parameters refined using 0 restraints

END

WGHT      0.1146      5.7576

REM Highest difference peak  9.264,  deepest hole -0.717,  1-sigma level  0.263
Q1    1   0.5690  0.6064  0.1002  11.00000  0.05    9.26
Q2    1   0.5535  0.6927  0.5987  11.00000  0.05    4.99
Q3    1   0.2782  0.8656  0.5438  11.00000  0.05    0.93
Q4    1   1.0603  0.6068  0.8210  11.00000  0.05    0.90
Q5    1   0.4980  0.6876  0.9785  11.00000  0.05    0.90
Q6    1   0.6248  0.8026  0.7346  11.00000  0.05    0.87
Q7    1   0.8513  0.5117  0.2518  11.00000  0.05    0.83
Q8    1   0.6600  0.4515  0.8654  11.00000  0.05    0.82
Q9    1   0.5774  0.6335  0.7014  11.00000  0.05    0.80
Q10   1   0.5661  0.5360  0.2211  11.00000  0.05    0.79
Q11   1  -0.1387  0.8210  0.6127  11.00000  0.05    0.79
Q12   1   0.5328  0.6327  0.9086  11.00000  0.05    0.78
Q13   1   0.6029  0.5065  0.3869  11.00000  0.05    0.77
Q14   1   0.6218  0.5105  0.7057  11.00000  0.05    0.74
Q15   1  -0.1504  0.8450  0.6476  11.00000  0.05    0.73
Q16   1   0.5521  0.5552  0.3218  11.00000  0.05    0.73
Q17   1  -0.0652  0.7770  0.7847  11.00000  0.05    0.72
Q18   1   0.6233  0.5421  0.9680  11.00000  0.05    0.72
Q19   1   0.8171  0.5400  0.0903  11.00000  0.05    0.71
Q20   1   0.8991  0.5112  0.6759  11.00000  0.05    0.70
;
_shelx_res_checksum   74281

_shelx_hkl_file
;
   0   0   2 1443.86   32.24
   0   0  -2 1522.59   32.30
   0   0   2 1502.01   32.40
   0   0  -2 1383.55   32.36
   0   0  -2 1465.06   32.30
   0   0   3   -0.36    0.78
   0   0  -3   -0.76    0.97
   0   0  -3    0.43    0.75
   0   0   3   -0.40    0.90
   0   0  -3   -0.02    0.76
   0   0   4  675.74   17.38
   0   0  -4  739.34   17.72
   0   0  -4  707.46   17.65
   0   0   4  749.99   17.83
   0   0  -4  713.42   17.47
   0   0   5    2.77    1.10
   0   0  -5    1.37    1.17
   0   0  -5    1.83    1.04
   0   0   5    2.81    1.40
   0   0  -5    1.94    1.08
   0   0  -6  121.11    5.43
   0   0   6  113.13    5.10
   0   0   6  136.67    5.72
   0   0  -6  112.07    5.28
   0   0  -6  120.67    5.30
   0   0  -7   -0.50    1.02
   0   0   7    3.18    1.38
   0   0  -7   -0.29    1.15
   0   0   7    1.12    1.25
   0   0  -7    0.28    0.93
   0   0  -8    1.18    0.92
   0   0  -8    1.32    1.16
   0   0   8    4.05    1.69
   0   0  -8    3.15    1.26
   0   0  -9    5.05    1.86
   0   0  -9    1.55    1.24
   0   0   9    3.18    1.60
   0   0  -9    1.45    1.25
   0   0 -10  129.65    6.72
   0   0  10  118.87    6.96
   0   0 -10  114.15    6.26
   0   0 -11   -1.02    1.22
   0   0  11   -0.21    1.35
   0   0 -11    0.32    1.16
   0   0 -12  248.12   10.86
   0   0  12  255.79   11.18
   0   0 -12  233.69   10.24
   0   0 -13    0.19    1.44
   0   0  13    0.06    1.44
   0   0 -13    0.02    1.16
   0   0 -14  698.69   22.37
   0   0  14  686.15   23.01
   0   0 -15    2.61    1.93
   0   0  15    3.52    2.25
   0   0 -16  889.39   27.10
   0   0  16  815.91   27.70
   0   0  17    2.34    1.99
   0   1   1  398.31    9.48
   0  -1  -2  131.06    4.02
   0   1   2  113.84    4.00
   0  -1   2  118.85    3.95
   0   1  -2  123.07    4.00
   0   1   2   98.55    3.37
   0   1   2  115.73    4.06
   0  -1  -2  121.56    3.88
   0  -1  -3    2.81    1.12
   0   1  -3    2.63    0.85
   0   1   3    2.13    0.96
   0   1  -3    3.28    1.02
   0   1   3    2.72    0.98
   0  -1   3    2.81    1.21
   0  -1  -3    3.75    1.10
   0   1   3    5.15    1.31
   0  -1  -4  329.39    9.42
   0   1   4  322.22    9.32
   0   1  -4  321.73    8.70
   0   1   4  318.46    8.94
   0   1  -4  312.65    9.29
   0  -1  -4  283.22    8.67
   0  -1   4  326.97    9.55
   0  -1  -4  326.98    9.25
   0   1   5  107.39    4.68
   0   1  -5  100.79    4.39
   0  -1  -5  107.04    5.03
   0  -1   5  116.14    5.17
   0  -1  -5   99.80    4.40
   0   1  -5  106.50    4.93
   0   1   5  119.17    4.70
   0  -1  -5  103.26    4.79
   0   1  -5   98.57    4.33
   0  -1  -6 1308.95   31.86
   0   1   6 1336.51   31.87
   0   1  -6 1336.18   31.20
   0   1  -6 1301.48   32.01
   0  -1   6 1315.64   32.15
   0   1   6 1320.18   31.50
   0   1  -6 1317.16   31.19
   0  -1  -6 1294.64   31.73
   0  -1  -7   14.81    2.21
   0   1  -7   17.08    2.21
   0   1   7   16.69    2.27
   0   1  -7   13.47    2.22
   0  -1   7   16.79    2.35
   0   1   7   14.56    2.12
   0   1  -7   16.77    2.01
   0  -1  -7   14.78    2.13
   0   1   8 1522.50   37.30
   0   1  -8 1542.51   36.67
   0  -1  -8 1541.88   37.42
   0   1   8 1512.80   37.07
   0   1  -8 1534.48   37.60
   0  -1   8 1496.89   37.63
   0  -1  -8 1482.52   37.16
   0   1  -8 1515.83   36.57
   0   1  -9   15.71    2.37
   0  -1  -9   18.85    2.70
   0   1  -9   12.08    2.20
   0   1   9   18.23    2.66
   0   1   9   16.31    2.53
   0  -1   9   14.70    2.54
   0  -1  -9   18.96    2.54
   0   1  -9   18.66    2.34
   0  -1 -10  744.93   21.88
   0   1 -10  769.33   21.29
   0   1  10  753.75   21.74
   0   1 -10  730.86   21.94
   0  -1  10  762.10   22.45
   0   1 -10  733.78   20.94
   0  -1 -10  746.32   21.64
   0   1  11    1.14    1.38
   0  -1  11    0.72    1.46
   0   1 -11    0.82    1.26
   0   1 -11    2.08    1.61
   0  -1 -11    1.49    1.35
   0  -1 -11   -1.89    1.40
   0   1 -11    0.93    1.04
   0  -1 -11    1.12    1.24
   0   1 -12  203.66    9.40
   0  -1 -12  206.80    9.80
   0   1  12  213.44    9.91
   0  -1  12  199.47    9.95
   0   1 -12  194.57    8.96
   0  -1 -12  186.13    9.25
   0  -1 -13  213.87   10.23
   0   1 -13  216.16    9.81
   0  -1  13  201.04   10.29
   0   1  13  203.56    9.94
   0   1 -13  195.18    9.31
   0  -1 -13  200.01    9.85
   0  -1 -14   42.28    4.73
   0   1 -14   37.50    4.32
   0  -1  14   41.14    4.88
   0   1  14   42.81    4.64
   0   1 -14   31.11    3.76
   0   1 -15  135.04    8.09
   0  -1 -15  126.97    8.14
   0   1  15  132.18    8.39
   0  -1  15  130.08    8.66
   0  -1 -16    4.74    2.06
   0   1  16   -0.81    1.97
   0  -1  16    9.66    3.46
   0  -1  17   99.53    8.21
   0  -2   0  150.34    4.01
   0  -2  -1   14.76    1.26
   0   2   1   12.68    1.23
   0   2  -1   14.68    1.23
   0  -2   1   13.42    1.24
   0   2  -1    9.54    0.93
   0   2   1   16.65    1.31
   0  -2   1   11.79    1.08
   0  -2   2   69.29    3.15
   0   2  -2   72.20    3.03
   0   2   2   67.63    3.05
   0  -2  -2   71.78    3.09
   0  -2  -2   60.35    2.51
   0   2   2   65.51    2.59
   0   2   2   68.92    3.01
   0  -2  -2   72.00    2.98
   0  -2   2   75.14    3.22
   0  -2   3   15.14    1.92
   0   2  -3   13.53    1.56
   0  -2  -3   15.78    1.82
   0   2   3   16.29    1.86
   0  -2  -3   12.36    1.40
   0   2   3   16.50    1.86
   0  -2  -3   15.79    1.69
   0   2   4    4.83    1.14
   0  -2   4    4.42    1.54
   0   2  -4    7.03    1.51
   0  -2  -4    6.34    1.55
   0   2   4    2.28    1.09
   0   2  -4    7.23    1.15
   0  -2  -4    5.43    1.36
   0  -2  -4    6.93    1.39
   0   2   4    5.81    1.67
   0  -2   5  288.35    9.47
   0   2  -5  287.20    9.32
   0   2   5  291.61    8.56
   0   2  -5  286.54    8.23
   0   2   5  276.90    9.19
   0  -2  -5  295.74    9.36
   0  -2  -5  262.32    8.94
   0  -2  -5  285.21    9.21
   0   2   5  294.65    9.42
   0  -2  -6   56.05    3.78
   0   2  -6   49.83    3.07
   0   2   6   53.79    3.71
   0   2   6   54.34    3.27
   0   2  -6   52.40    3.76
   0  -2   6   54.98    3.98
   0  -2  -6   52.38    3.62
   0   2  -7  462.25   14.04
   0   2   7  448.44   12.97
   0  -2   7  432.45   13.83
   0   2  -7  448.92   12.62
   0  -2  -7  447.58   13.76
   0   2   7  458.29   13.79
   0  -2  -7  465.00   13.95
   0   2  -7  421.77   12.55
   0  -2  -7  431.55   13.57
   0   2   8    0.65    1.25
   0   2  -8   -0.30    1.13
   0  -2   8    0.16    1.41
   0   2   8    0.03    1.06
   0  -2  -8    1.74    1.34
   0   2  -8   -0.57    0.99
   0  -2  -8    1.94    1.50
   0  -2  -8    0.39    1.05
   0   2  -8    0.46    0.85
   0  -2   9   99.51    6.09
   0   2   9   96.93    5.48
   0   2  -9   95.14    5.84
   0  -2  -9   97.93    5.86
   0   2   9  106.13    5.95
   0   2  -9  105.09    5.27
   0  -2  -9  103.38    6.16
   0  -2  -9   97.88    5.64
   0   2  -9   92.89    5.01
   0   2  10   13.87    2.34
   0  -2  10   16.56    3.07
   0   2 -10   12.74    2.39
   0  -2 -10   13.56    2.61
   0   2  10   15.09    2.55
   0   2 -10   15.35    2.34
   0  -2 -10   10.34    2.48
   0   2 -10   14.51    2.19
   0  -2 -10   14.23    2.37
   0  -2  11    0.11    1.40
   0   2  11    1.76    1.41
   0   2  11    3.87    1.66
   0   2 -11    3.15    1.61
   0  -2 -11   -0.79    1.38
   0   2 -11    1.24    1.27
   0  -2 -11    0.18    1.16
   0   2 -11    1.71    1.16
   0  -2 -11    0.00    1.15
   0   2 -12   54.59    4.51
   0  -2 -12   53.06    4.83
   0  -2  12   56.88    5.31
   0   2  12   61.18    4.96
   0   2 -12   56.34    5.07
   0   2 -12   59.44    4.48
   0  -2 -12   57.11    4.90
   0  -2 -13    0.55    1.72
   0   2 -13    0.36    1.40
   0  -2  13    1.13    1.51
   0   2  13    1.14    1.54
   0   2 -13   -0.90    1.28
   0  -2 -14    9.35    2.50
   0   2 -14   15.66    2.58
   0  -2  14   15.24    2.95
   0   2  14    9.43    2.33
   0   2 -14   13.64    2.58
   0   2 -15    2.78    1.81
   0  -2 -15    5.42    2.31
   0  -2  15    0.52    1.67
   0   2  15    0.89    1.52
   0  -2 -16   58.76    5.69
   0  -2  16   50.49    5.73
   0   2  16   56.91    5.77
   0  -2  17    5.25    2.92
   0   3   0    0.16    0.54
   0  -3   0    0.09    0.70
   0  -3   0    0.45    0.63
   0   3   0    0.12    0.47
   0   3   0    0.63    0.47
   0  -3   1  533.86   12.53
   0   3  -1  544.48   12.61
   0   3   1  500.06   12.65
   0  -3  -1  539.48   12.70
   0   3   1  477.79   11.51
   0  -3  -1  478.59   11.56
   0  -3   2  147.91    5.31
   0   3  -2  149.25    5.25
   0   3   2  152.16    5.44
   0  -3  -2  163.89    5.50
   0   3   2  126.83    4.17
   0   3   2  163.10    5.44
   0   3  -2  136.36    4.95
   0  -3   2  128.58    4.90
   0  -3  -2  149.66    5.12
   0   3  -3  103.03    4.50
   0  -3   3  102.28    4.64
   0   3   3  113.49    4.70
   0  -3  -3  111.36    4.74
   0  -3  -3   86.51    3.67
   0   3   3  101.22    3.89
   0   3   3  108.85    4.67
   0  -3  -3  105.48    4.46
   0  -3   3   96.05    4.70
   0  -3   4  123.91    5.46
   0   3  -4  115.61    5.23
   0   3   4  116.85    5.26
   0  -3  -4  130.67    5.45
   0  -3  -4  102.83    4.41
   0   3   4  123.56    5.34
   0  -3  -4  117.32    5.14
   0  -3   5    4.94    1.69
   0   3   5    6.05    1.26
   0   3  -5    6.09    1.51
   0   3  -5    9.58    1.39
   0   3   5    9.60    1.73
   0  -3  -5    8.27    1.77
   0  -3  -5    7.47    1.50
   0   3   5    7.01    1.90
   0  -3  -5    7.72    1.62
   0   3   6  110.34    4.66
   0  -3   6  107.57    5.58
   0   3  -6  107.43    5.42
   0  -3  -6  106.27    5.45
   0   3  -6  108.03    4.36
   0   3   6   99.66    5.21
   0  -3  -6  104.43    5.07
   0   3   6  112.02    5.54
   0  -3  -6   96.90    5.12
   0   3  -7    9.94    1.87
   0   3   7   12.99    1.93
   0  -3   7   13.82    2.48
   0  -3  -7   11.39    2.15
   0   3   7    9.62    1.96
   0   3  -7   10.97    1.56
   0  -3  -7    8.87    1.77
   0  -3  -7   13.57    2.15
   0  -3   8  129.66    6.92
   0   3  -8  150.70    7.22
   0   3   8  138.80    6.06
   0   3   8  135.38    6.82
   0   3  -8  139.25    5.71
   0  -3  -8  135.82    6.94
   0  -3  -8  140.67    6.82
   0  -3  -8  140.61    6.78
   0   3  -8  140.22    5.80
   0   3   9    2.64    1.34
   0   3  -9    0.23    1.27
   0  -3   9    1.69    1.41
   0   3   9    2.78    1.46
   0  -3  -9    1.02    1.48
   0   3  -9    3.28    1.38
   0  -3  -9    0.93    1.44
   0   3  -9    2.64    1.15
   0  -3  -9    0.96    1.26
   0   3 -10  240.09   10.59
   0   3  10  243.07    9.59
   0  -3  10  242.40   10.78
   0  -3 -10  249.99   10.73
   0   3  10  246.37   10.56
   0   3 -10  247.87    9.16
   0  -3 -10  243.82   10.57
   0  -3 -10  242.90   10.37
   0   3 -10  239.55    9.01
   0   3 -11    5.22    1.85
   0   3  11    8.48    2.22
   0  -3  11    5.21    2.20
   0   3 -11    4.11    1.61
   0  -3 -11    4.78    2.12
   0   3  11    7.32    2.21
   0  -3 -11    3.50    1.87
   0  -3 -11    4.80    1.89
   0   3 -11    4.35    1.45
   0   3 -12    5.70    2.04
   0   3 -12    8.78    1.98
   0   3  12    9.01    2.23
   0  -3 -12    9.67    2.49
   0  -3  12   11.46    2.87
   0   3  12    7.90    1.85
   0   3 -12    7.37    1.76
   0  -3 -13  140.80    8.54
   0   3 -13  156.00    7.69
   0   3  13  148.05    8.01
   0  -3  13  139.51    8.80
   0   3 -13  143.67    7.31
   0   3 -14   22.00    3.17
   0  -3 -14   20.91    3.31
   0  -3  14   17.85    3.58
   0   3  14   22.03    3.33
   0  -3 -15    4.38    2.14
   0   3 -15    0.49    1.31
   0  -3  15    4.47    2.53
   0   3  15    0.84    1.59
   0  -3 -16    0.64    1.68
   0   3  16    0.34    1.56
   0  -3  16    0.52    2.07
   0  -3  17   20.27    4.01
   0  -3  18   12.69    3.57
   0   4   0   28.18    1.90
   0  -4   0   32.36    2.03
   0  -4   0   33.46    1.90
   0   4   0   29.37    1.79
   0   4   0   32.28    1.61
   0   4  -1   11.96    1.45
   0  -4   1   14.58    1.65
   0  -4  -1   11.73    1.69
   0   4   1   12.34    1.62
   0   4   1    9.98    0.91
   0  -4  -1    8.81    0.99
   0   4  -2 4540.52   95.44
   0  -4   2 4470.87   95.42
   0   4   2 4521.29   95.63
   0  -4  -2 4610.84   95.55
   0   4   2 4373.38   93.89
   0   4   2 4672.66   95.47
   0  -4   2 4354.67   95.02
   0   4  -2 4299.15   94.99
   0   4  -3  837.87   20.61
   0  -4   3  859.16   20.82
   0   4   3  868.79   20.90
   0  -4  -3  868.28   20.90
   0   4   3  796.64   19.04
   0  -4   3  780.76   20.33
   0   4   3  890.14   20.88
   0   4  -4  290.69    9.55
   0  -4   4  287.59    9.61
   0  -4  -4  297.16    9.66
   0   4   4  290.37    9.57
   0  -4  -4  248.03    8.13
   0   4   4  304.42    9.77
   0  -4  -4  284.69    9.47
   0  -4   4  274.87    9.51
   0   4  -5 1052.01   26.84
   0  -4   5 1058.09   26.96
   0  -4  -5 1088.36   27.10
   0   4   5 1086.73   26.86
   0  -4  -5 1021.08   25.53
   0   4   5 1119.71   27.00
   0  -4   5 1027.10   26.98
   0  -4  -5  996.87   26.70
   0  -4   6   22.19    2.94
   0   4  -6   24.52    2.78
   0   4   6   22.41    2.14
   0   4   6   25.09    2.69
   0   4  -6   23.11    2.02
   0  -4  -6   25.83    3.02
   0  -4  -6   21.19    2.26
   0  -4  -6   22.15    2.76
   0   4   6   29.67    3.17
   0  -4   7  732.32   21.17
   0   4   7  775.84   19.35
   0   4  -7  708.18   20.93
   0   4  -7  741.94   18.70
   0  -4  -7  748.25   21.13
   0   4   7  740.10   20.93
   0  -4  -7  739.98   20.16
   0   4   7  778.84   21.18
   0  -4  -7  720.48   20.88
   0   4   8    0.36    0.93
   0   4  -8    1.01    1.15
   0  -4   8   -0.67    1.52
   0   4  -8   -0.83    1.05
   0   4   8   -1.43    1.43
   0  -4  -8    1.66    1.65
   0  -4  -8   -0.43    0.98
   0  -4  -8   -0.71    1.25
   0  -4   9  904.11   26.47
   0   4   9  927.33   24.29
   0   4  -9  916.14   26.45
   0   4  -9  952.73   23.74
   0   4   9  932.00   26.28
   0  -4  -9  918.86   26.31
   0  -4  -9  904.87   25.49
   0  -4  -9  923.26   26.07
   0   4  -9  917.37   23.66
   0   4 -10   54.64    4.86
   0   4  10   52.86    4.05
   0  -4  10   51.25    4.85
   0   4  10   49.78    4.75
   0   4 -10   58.13    3.88
   0  -4 -10   57.05    5.01
   0  -4 -10   50.24    4.44
   0   4 -10   53.44    3.67
   0  -4 -10   48.85    4.45
   0   4  11  481.62   15.20
   0  -4  11  457.37   16.99
   0   4 -11  441.82   16.57
   0   4  11  453.36   16.50
   0   4 -11  474.44   14.42
   0  -4 -11  463.14   16.87
   0  -4 -11  448.78   16.31
   0   4 -11  442.88   14.10
   0   4  12  182.10    9.57
   0   4 -12  190.05    8.27
   0  -4 -12  174.98    9.72
   0  -4  12  188.16   10.19
   0   4  12  192.28    8.73
   0   4 -12  182.60    7.96
   0  -4 -13  188.93   10.38
   0   4 -13  207.42    8.99
   0  -4  13  200.28   11.01
   0   4  13  203.86    9.48
   0   4 -13  193.84    8.67
   0  -4 -14  129.28    8.47
   0   4 -14  142.15    7.35
   0  -4  14  134.11    8.99
   0   4  14  139.56    7.81
   0  -4 -15   17.21    3.61
   0   4  15   18.20    3.20
   0  -4  15   15.01    3.64
   0  -4 -16  159.84   10.13
   0  -4  16  138.60   10.08
   0  -4  16  168.60   12.11
   0  -4 -17    4.40    2.46
   0  -4  17    5.34    2.87
   0  -4  18   93.86    8.63
   0   5   0    0.36    0.91
   0  -5   0    1.73    1.25
   0  -5   0    0.45    0.95
   0   5   0    0.15    0.69
   0   5   0    0.71    0.67
   0   5  -1 1523.07   33.80
   0   5   1 1435.97   32.90
   0  -5   1 1538.60   33.75
   0  -5  -1 1501.69   34.02
   0   5  -1 1403.30   33.11
   0   5   1 1448.73   33.98
   0  -5  -1 1414.83   32.41
   0   5   1 1451.51   32.36
   0  -5   2  115.60    5.05
   0   5  -2  130.03    5.17
   0   5   2  127.35    5.29
   0  -5  -2  108.92    5.25
   0   5   2  102.87    3.81
   0   5  -2  106.91    4.61
   0   5   2  137.88    5.44
   0   5  -3 4517.32   97.07
   0  -5   3 4483.92   96.99
   0  -5  -3 4575.08   97.16
   0   5   3 4593.57   97.19
   0   5   3 4380.46   95.03
   0   5   3 4735.76   97.26
   0   5  -3 4345.09   96.53
   0  -5   3 4313.03   96.60
   0   5  -4   23.51    2.57
   0  -5   4   18.67    2.58
   0  -5  -4   23.82    2.76
   0   5   4   24.20    2.55
   0   5   4   22.03    1.91
   0  -5  -4   15.93    1.70
   0   5   4   26.68    2.89
   0  -5   4   18.19    2.47
   0   5  -5 1168.30   28.86
   0  -5   5 1142.47   28.90
   0  -5  -5 1226.24   29.16
   0   5   5 1180.28   28.83
   0  -5  -5  973.16   26.64
   0  -5   5 1039.51   28.61
   0  -5  -5 1102.13   28.71
   0   5   5 1233.03   29.07
   0   5  -6    4.35    1.62
   0  -5   6    3.58    1.51
   0   5   6    1.07    0.99
   0   5   6    1.94    1.28
   0  -5  -6    0.99    1.46
   0  -5  -6    2.45    1.02
   0   5   6    1.80    1.54
   0  -5  -6    3.07    1.45
   0  -5   6    5.34    2.33
   0   5  -7   45.55    4.03
   0   5   7   44.00    3.14
   0  -5   7   47.27    4.23
   0   5  -7   44.31    2.85
   0   5   7   47.63    3.93
   0  -5  -7   52.64    4.42
   0  -5  -7   43.58    3.39
   0  -5   7   51.11    4.68
   0  -5  -7   50.27    4.12
   0   5   7   50.00    4.32
   0   5  -8  110.84    6.45
   0   5   8  103.10    4.93
   0  -5   8  104.46    6.40
   0   5  -8  109.35    4.68
   0  -5  -8  106.57    6.33
   0   5   8   94.27    6.00
   0  -5  -8  108.84    5.65
   0  -5  -8  100.77    6.03
   0   5   8  111.04    6.40
   0  -5   8  107.54    6.73
   0   5   9   43.58    3.53
   0   5  -9   46.47    4.46
   0  -5   9   45.98    4.77
   0   5  -9   43.48    3.21
   0   5   9   38.59    4.31
   0  -5  -9   42.53    4.48
   0  -5  -9   41.93    3.82
   0   5  -9   40.79    3.06
   0  -5  -9   42.22    4.23
   0   5  10    4.23    1.49
   0   5 -10    2.92    1.67
   0  -5  10    1.72    1.64
   0  -5 -10    5.28    2.11
   0   5  10    5.27    1.75
   0   5 -10    3.63    1.34
   0  -5 -10    3.11    1.51
   0   5 -10    3.15    1.05
   0  -5  11  367.02   15.15
   0   5  11  386.42   12.96
   0   5  11  358.68   14.71
   0   5 -11  402.34   12.45
   0  -5 -11  370.06   14.96
   0  -5 -11  348.81   13.88
   0   5 -11  372.02   12.10
   0  -5 -12   25.09    3.83
   0   5 -12   24.37    2.81
   0  -5  12   32.45    4.34
   0   5  12   22.40    2.75
   0   5 -12   24.88    2.76
   0  -5 -13  822.54   26.48
   0   5 -13  848.25   23.47
   0   5  13  843.51   24.24
   0  -5  13  791.34   26.83
   0   5 -13  823.70   23.04
   0  -5  13  854.99   28.65
   0  -5 -14    0.52    1.60
   0   5 -14    2.01    1.45
   0   5  14    2.42    1.57
   0  -5  14    3.60    1.88
   0  -5  14    2.89    2.91
   0  -5 -15  564.64   21.40
   0  -5  15  552.21   21.93
   0   5  15  587.95   19.46
   0  -5  15  611.65   24.20
   0  -5 -16    5.19    2.67
   0  -5  16   -0.06    2.10
   0  -5  16    7.25    3.85
   0  -5 -17  294.14   15.03
   0  -5  17  301.40   15.72
   0  -5  18    3.89    2.54
   0  -6   0   39.23    2.58
   0   6   0   38.85    2.60
   0  -6   0   40.25    2.56
   0   6   0   39.80    2.46
   0   6   0   38.65    2.11
   0  -6   1   28.04    2.52
   0   6   1   25.98    2.12
   0   6  -1   31.52    2.49
   0   6   1   28.45    2.63
   0   6  -1   23.60    2.13
   0  -6  -1   26.60    2.53
   0   6   1   25.65    1.69
   0  -6  -1   23.58    1.73
   0   6  -2    8.90    1.68
   0  -6   2    6.88    1.85
   0   6   2    4.86    1.47
   0  -6  -2    5.41    1.66
   0   6   2   -1.28    1.27
   0  -6  -2    3.83    0.85
   0   6  -2    2.38    0.98
   0   6   2    7.99    2.04
   0  -6   3  996.51   25.42
   0   6  -3 1089.21   25.71
   0   6   3 1075.19   25.73
   0  -6  -3 1060.58   25.76
   0   6   3 1004.54   23.27
   0   6  -3  986.21   24.92
   0   6   3 1135.37   25.87
   0   6  -4  620.73   17.51
   0  -6   4  581.67   17.49
   0  -6  -4  647.32   17.77
   0   6   4  639.46   17.70
   0   6   4  614.49   15.48
   0  -6  -4  573.67   15.31
   0   6  -4  585.91   17.01
   0   6   4  671.63   17.85
   0  -6   4  573.01   17.04
   0   6  -5 1721.23   41.47
   0  -6   5 1679.32   41.34
   0   6   5 1688.81   41.26
   0  -6  -5 1738.08   41.47
   0  -6  -5 1621.99   39.05
   0  -6   5 1655.08   41.16
   0   6   5 1781.96   41.56
   0  -6   6    5.20    1.87
   0   6  -6    8.13    2.01
   0   6   6    7.28    1.91
   0  -6  -6    6.17    1.96
   0  -6  -6    5.24    1.35
   0  -6   6    4.35    1.85
   0   6   6    8.12    2.05
   0   6  -7  959.70   26.51
   0  -6   7  906.29   26.50
   0   6   7  955.54   23.57
   0   6   7  969.73   26.47
   0  -6  -7  969.31   26.75
   0  -6  -7  973.85   24.84
   0  -6   7  949.33   26.79
   0   6   7  966.95   26.48
   0   6  -8    1.15    1.34
   0   6   8    1.16    1.16
   0  -6   8    2.23    1.78
   0  -6  -8    4.18    2.08
   0   6  -8    0.28    0.80
   0   6   8   -0.15    1.11
   0  -6  -8    0.25    0.90
   0   6   8    3.09    1.82
   0  -6   8    1.50    1.69
   0  -6   9  789.60   24.36
   0   6   9  811.53   21.28
   0   6  -9  797.77   24.37
   0   6   9  799.10   24.23
   0   6  -9  813.63   20.68
   0  -6  -9  797.00   24.30
   0  -6  -9  768.22   22.55
   0  -6   9  817.74   24.87
   0   6  10    2.23    1.13
   0   6 -10    0.90    1.23
   0  -6  10    3.32    2.15
   0   6  10    1.23    1.34
   0  -6 -10    2.24    1.83
   0   6 -10    1.13    0.93
   0  -6 -10    3.00    1.62
   0   6 -10    3.52    1.13
   0  -6  10    3.52    2.32
   0  -6  11  351.73   14.93
   0   6  11  383.24   12.53
   0   6  11  335.20   14.28
   0  -6 -11  340.58   14.51
   0   6 -11  373.16   11.81
   0  -6 -11  343.49   13.63
   0  -6  11  361.38   15.57
   0   6 -11  360.83   11.62
   0   6 -12  128.63    6.12
   0  -6 -12  112.26    7.91
   0  -6  12  120.07    8.28
   0   6  12  127.67    6.65
   0   6 -12  124.43    6.00
   0  -6  12  123.33    8.86
   0  -6 -13  208.81   11.39
   0   6 -13  223.71    9.03
   0  -6  13  202.01   11.53
   0   6  13  227.33    9.73
   0   6 -13  218.20    8.78
   0  -6  13  214.29   12.67
   0  -6 -14   31.06    4.40
   0   6 -14   27.18    2.94
   0  -6  14   18.08    3.48
   0   6  14   24.27    3.07
   0  -6  14   26.92    4.82
   0  -6 -15   26.77    4.50
   0  -6  15   18.46    3.98
   0  -6  15   30.52    5.46
   0  -6 -16   25.78    4.25
   0  -6  16   28.96    4.77
   0  -6 -17   -1.65    2.27
   0  -6  17    2.89    2.56
   0   7   0    0.74    0.99
   0   7   0    1.36    0.84
   0  -7   0    0.62    1.19
   0   7   0   -0.21    0.82
   0  -7   1   64.81    3.68
   0   7   1   62.74    3.34
   0   7  -1   71.28    3.81
   0   7   1   66.23    3.90
   0   7  -1   60.79    3.33
   0  -7  -1   64.07    3.79
   0   7   1   58.74    2.78
   0  -7  -1   62.99    2.89
   0   7  -2    8.91    1.72
   0   7   2    5.80    1.16
   0  -7   2    8.02    1.94
   0   7  -2    5.66    1.34
   0   7   2    8.05    1.80
   0  -7  -2    7.40    1.86
   0   7   2    1.20    1.19
   0   7  -2    1.54    1.17
   0  -7  -2    5.98    1.03
   0   7   2    7.91    1.93
   0   7  -3 1759.74   40.89
   0  -7   3 1688.20   40.57
   0  -7  -3 1715.99   40.93
   0   7   3 1745.29   41.08
   0   7   3 1721.94   38.40
   0  -7  -3 1537.55   38.15
   0   7  -3 1718.20   40.26
   0   7   3 1813.11   40.98
   0  -7   4  557.29   16.81
   0   7  -4  572.64   16.98
   0   7   4  594.41   17.08
   0  -7  -4  565.18   17.05
   0  -7  -4  510.88   14.42
   0   7   4  586.89   14.73
   0  -7   4  571.46   16.50
   0   7  -4  568.55   16.49
   0   7   4  630.60   17.31
   0   7  -5   11.52    2.13
   0  -7   5    9.67    2.28
   0  -7  -5    8.50    2.19
   0   7   5   12.51    2.10
   0  -7  -5    9.33    1.42
   0   7   5   12.49    1.69
   0   7   5   14.49    2.60
   0  -7   5    9.75    2.14
   0  -7   6   17.89    2.60
   0   7  -6   17.55    2.49
   0  -7  -6   17.45    2.64
   0   7   6   22.30    2.75
   0  -7  -6   18.38    1.96
   0  -7   6   18.25    2.72
   0   7   6   21.82    2.91
   0   7  -7    6.18    2.04
   0  -7   7    4.51    1.83
   0   7   7    4.42    1.60
   0  -7  -7    3.51    1.80
   0  -7  -7    1.62    1.05
   0   7   7    4.35    2.02
   0  -7   7    3.32    2.07
   0   7  -8    3.03    1.33
   0  -7   8    4.55    1.92
   0   7   8    2.41    1.00
   0   7  -8    4.91    1.37
   0   7   8    2.45    1.22
   0  -7  -8    5.21    2.02
   0  -7  -8    2.38    1.16
   0   7   8    5.28    1.98
   0  -7   8    3.03    1.80
   0  -7   9    2.88    2.17
   0   7  -9    3.21    1.92
   0   7   9    4.03    1.38
   0   7   9    2.75    1.47
   0   7  -9    3.50    1.11
   0  -7  -9    4.32    2.25
   0  -7  -9    3.97    1.52
   0   7   9    6.91    2.53
   0  -7   9    4.84    2.45
   0   7  10    0.67    1.20
   0  -7  10    0.49    1.61
   0   7 -10    0.99    0.95
   0   7  10    0.43    1.47
   0  -7 -10    1.01    1.74
   0  -7 -10    0.17    1.04
   0  -7  10    0.64    2.19
   0   7  11    7.03    1.96
   0  -7  11    5.63    2.49
   0   7 -11    5.12    1.49
   0  -7 -11    2.89    2.14
   0  -7 -11    3.44    1.72
   0   7 -11    1.40    1.18
   0  -7  11    5.73    2.94
   0  -7  12  136.14    9.09
   0   7  12  148.33    7.09
   0  -7 -12  134.13    8.88
   0   7 -12  152.76    6.63
   0  -7 -12  130.98    7.97
   0   7 -12  141.07    6.37
   0  -7  12  152.01   10.04
   0   7 -13   31.76    3.06
   0  -7 -13   30.62    4.55
   0  -7  13   31.03    4.62
   0   7  13   35.80    3.58
   0  -7  13   34.06    5.32
   0  -7 -14    4.78    2.45
   0  -7  14    3.64    2.21
   0   7  14    1.88    1.31
   0  -7  14    6.64    3.37
   0  -7 -15  168.05   10.83
   0  -7  15  147.41   10.43
   0  -7  15  178.77   12.10
   0  -7 -16    1.27    2.10
   0  -7  16    3.55    2.59
   0  -7 -17   34.37    5.20
   0  -7  17   23.49    4.81
   0   8   0  185.89    6.69
   0   8   0  172.79    6.76
   0   8   0  165.34    5.75
   0  -8   0  167.99    6.36
   0  -8   1    4.07    1.50
   0   8  -1    5.53    1.44
   0   8   1    4.86    1.29
   0   8   1    2.65    1.34
   0   8  -1    3.86    1.33
   0  -8  -1    3.20    1.49
   0   8   1    5.09    1.12
   0  -8  -1    4.20    1.00
   0   8  -1    2.46    1.03
   0  -8   2   15.13    2.23
   0   8  -2   17.83    2.25
   0   8   2   15.05    1.71
   0  -8  -2   15.00    2.31
   0   8   2   17.38    2.38
   0   8  -2   14.99    1.74
   0   8   2   12.66    1.20
   0   8   2   17.90    2.47
   0  -8  -2   14.61    1.46
   0   8  -3   11.39    2.24
   0  -8   3   10.32    2.33
   0   8   3   12.80    2.42
   0  -8  -3    8.91    2.33
   0  -8  -3    4.35    1.07
   0   8   3   11.41    1.61
   0   8   3   15.81    3.16
   0   8  -3    7.73    1.77
   0   8  -4   30.45    3.21
   0  -8   4   25.23    3.00
   0   8   4   28.68    3.10
   0  -8  -4   26.05    3.13
   0  -8  -4   19.58    1.87
   0   8   4   25.51    2.07
   0   8   4   30.73    3.32
   0   8  -4   25.50    2.87
   0   8  -5  419.65   14.29
   0  -8   5  409.06   14.23
   0   8   5  438.59   14.42
   0  -8  -5  428.97   14.55
   0  -8  -5  392.81   11.81
   0   8   5  434.36   12.01
   0  -8   5  430.11   14.01
   0   8   5  424.46   14.31
   0  -8   6    1.08    1.61
   0   8  -6    4.34    1.57
   0  -8  -6    2.36    1.61
   0   8   6    3.00    1.75
   0  -8  -6    3.37    1.18
   0  -8   6    2.29    1.68
   0   8   6    8.07    2.15
   0   8  -7  282.62   11.52
   0  -8   7  273.02   11.41
   0   8   7  281.16   11.48
   0  -8  -7  279.30   11.54
   0  -8  -7  266.19    9.45
   0   8   7  268.13   11.22
   0  -8   7  266.58   11.22
   0   8  -8    1.33    1.48
   0  -8   8    2.41    1.76
   0   8   8    1.82    1.51
   0  -8  -8    1.27    1.65
   0   8   8    0.88    1.03
   0  -8  -8    1.66    1.14
   0  -8   8   -0.72    2.03
   0   8   8   -0.97    1.64
   0   8   9  382.30   11.70
   0   8  -9  376.62   14.87
   0  -8   9  357.97   14.75
   0   8   9  365.88   14.63
   0   8  -9  381.00   11.31
   0  -8  -9  365.25   14.69
   0  -8  -9  361.35   12.99
   0   8   9  380.15   14.87
   0  -8   9  372.41   15.03
   0   8  10   19.39    2.31
   0  -8  10   21.59    3.60
   0   8 -10   18.27    1.97
   0  -8 -10   17.53    3.32
   0  -8 -10   16.39    2.58
   0  -8  10   18.01    3.77
   0   8  11  339.48   11.35
   0  -8  11  316.85   14.47
   0  -8 -11  322.16   14.37
   0   8 -11  330.72   10.57
   0  -8 -11  298.09   12.56
   0   8 -11  338.09   10.72
   0  -8  11  316.07   14.79
   0  -8  12   26.44    4.16
   0   8  12   29.53    3.01
   0   8 -12   28.59    2.74
   0  -8 -12   27.90    4.18
   0  -8 -12   19.84    3.11
   0   8 -12   24.64    2.42
   0  -8  12   21.86    4.25
   0   8 -13   56.26    3.85
   0  -8 -13   52.79    5.72
   0   8  13   56.04    4.35
   0  -8  13   56.21    6.09
   0  -8  13   53.47    6.50
   0  -8 -14   -0.32    1.89
   0   8  14    1.95    1.12
   0  -8  14    2.59    2.39
   0  -8  14    1.13    2.37
   0  -8 -15    2.80    2.26
   0  -8  15    2.60    2.41
   0  -8  15    1.73    2.61
   0  -8 -16   73.07    7.37
   0  -8  16   69.10    7.47
   0  -8 -17    4.85    2.84
   0   9   0    2.37    1.10
   0  -9   0   -0.01    1.14
   0   9   0   -0.46    0.96
   0   9   0   -1.08    0.91
   0   9  -1  746.31   19.68
   0   9   1  730.25   18.84
   0  -9   1  735.03   19.31
   0   9   1  694.06   19.81
   0  -9  -1  727.21   19.74
   0   9  -1  702.31   19.09
   0   9   1  677.94   17.59
   0   9  -1  698.71   18.31
   0   9  -2   73.52    4.65
   0  -9   2   77.53    4.73
   0   9   2   69.80    3.90
   0  -9  -2   79.62    4.89
   0   9   2   74.80    4.93
   0   9  -2   68.51    3.98
   0   9   2   66.80    3.31
   0   9   2   82.91    5.13
   0  -9  -2   61.98    3.34
   0  -9   3 1037.97   27.45
   0   9  -3 1103.85   27.96
   0  -9  -3 1110.58   28.07
   0   9   3 1056.45   28.16
   0   9  -3 1017.36   25.77
   0  -9  -3  972.03   24.77
   0   9   3 1074.35   24.98
   0   9  -3 1087.47   27.37
   0   9   3  998.10   25.38
   0   9   3 1097.16   28.01
   0   9  -4  301.48   11.34
   0  -9   4  293.89   11.18
   0   9   4  307.47   11.53
   0  -9  -4  306.90   11.52
   0   9   4  304.19    9.01
   0  -9  -4  268.45    8.80
   0   9  -4  301.32   10.91
   0   9   4  316.74   11.56
   0  -9   5  471.72   15.92
   0   9  -5  523.13   16.49
   0   9   5  511.55   16.53
   0  -9  -5  491.14   16.38
   0   9   5  504.60   13.63
   0  -9  -5  421.12   13.25
   0   9  -5  511.38   16.04
   0   9   5  528.87   16.64
   0  -9   6 1076.06   30.37
   0   9  -6 1147.92   30.90
   0  -9  -6 1114.67   30.71
   0   9   6 1112.94   30.77
   0  -9  -6 1073.88   27.43
   0   9   6 1148.67   27.69
   0   9   6 1109.27   30.65
   0  -9   6 1139.71   30.42
   0   9  -7   46.10    4.50
   0  -9   7   41.23    4.38
   0   9   7   47.12    4.54
   0  -9  -7   39.82    4.34
   0  -9  -7   37.40    3.10
   0   9   7   44.72    4.54
   0  -9   7   39.40    4.41
   0   9  -8  670.91   21.59
   0  -9   8  621.87   21.26
   0  -9  -8  651.64   21.44
   0   9   8  665.01   21.51
   0  -9  -8  663.70   18.87
   0  -9   8  660.32   21.42
   0   9   8  685.56   21.61
   0   9   9    1.70    1.13
   0  -9   9    1.14    1.63
   0  -9  -9    1.64    1.83
   0  -9  -9    1.17    1.10
   0   9   9    3.99    2.13
   0  -9   9   -0.13    2.29
   0  -9  10  147.77    9.27
   0   9  10  176.64    7.24
   0  -9 -10  151.93    9.41
   0   9 -10  166.59    6.51
   0  -9 -10  167.11    8.15
   0   9  10  169.68    9.87
   0  -9  10  159.18    9.74
   0  -9  11  207.64   11.50
   0   9  11  223.38    8.62
   0  -9 -11  216.76   11.57
   0   9 -11  235.71    8.17
   0  -9 -11  200.09    9.82
   0  -9  11  219.47   12.11
   0   9  12  155.56    7.06
   0  -9  12  134.52    9.29
   0  -9 -12  146.93    9.59
   0   9 -12  156.84    6.40
   0  -9 -12  125.09    7.84
   0   9 -12  147.49    6.27
   0  -9  12  139.48    9.96
   0  -9 -13  193.64   11.63
   0  -9  13  201.72   11.94
   0   9  13  220.21    8.97
   0  -9  13  222.94   13.03
   0  -9 -14   40.92    5.46
   0  -9  14   41.49    5.48
   0  -9  14   46.26    6.28
   0  -9 -15  328.70   16.51
   0  -9  15  315.27   16.53
   0  -9  15  386.34   18.74
   0  -9  16    1.78    2.46
   0  -9 -16    1.13    2.27
   0  -9 -17  233.13   14.04
   0  10   0 1213.13   29.73
   0  10   0 1160.77   30.01
   0  10   0 1164.97   28.32
   0 -10   1    8.20    1.62
   0  10  -1    9.45    1.94
   0  10   1    6.05    1.40
   0  10   1    6.82    1.91
   0 -10  -1    7.37    1.86
   0  10  -1    7.20    1.64
   0  10   1    6.97    1.22
   0  10  -1    7.14    1.46
   0 -10   2 1662.72   40.73
   0  10  -2 1734.65   41.37
   0  10   2 1662.60   39.41
   0 -10  -2 1762.49   41.40
   0  10   2 1707.94   41.60
   0  10  -2 1621.19   39.61
   0  10   2 1616.87   38.24
   0  10   2 1747.02   41.37
   0 -10  -2 1590.37   38.31
   0  10   3  206.89    7.55
   0 -10   3  216.24    9.23
   0  10  -3  229.06    9.39
   0  10  -3  204.79    7.78
   0  10   3  227.86    9.64
   0 -10  -3  217.51    9.36
   0 -10  -3  193.10    7.03
   0  10   3  225.80    7.24
   0  10  -3  217.06    8.81
   0  10   3  233.22    9.52
   0  10  -4  282.41   11.15
   0 -10   4  261.09   10.71
   0  10  -4  255.58    8.92
   0 -10  -4  281.69   11.08
   0  10   4  281.39   11.24
   0  10   4  292.53    8.67
   0 -10  -4  232.58    8.18
   0  10   4  306.82   11.48
   0  10   4  243.96    8.51
   0  10  -4  274.95   10.56
   0  10  -5  451.66   15.54
   0 -10   5  424.65   15.23
   0  10   5  442.66   15.62
   0 -10  -5  437.76   15.55
   0  10   5  449.26   12.62
   0 -10  -5  419.49   12.56
   0  10   5  441.25   15.48
   0  10  -5  466.34   15.14
   0  10  -6  465.98   16.18
   0 -10   6  424.38   15.66
   0  10   6  465.15   16.21
   0 -10  -6  451.35   16.18
   0 -10  -6  376.88   12.59
   0  10   6  457.27   13.14
   0  10   6  477.87   16.34
   0 -10   7  227.27   10.80
   0  10  -7  243.49   11.05
   0 -10  -7  239.43   11.08
   0  10   7  248.87   11.15
   0 -10  -7  239.87    8.70
   0 -10   7  242.04   10.80
   0  10   7  229.46   10.77
   0 -10   8    2.55    2.22
   0 -10  -8    5.30    2.38
   0  10   8    6.07    1.94
   0 -10  -8    4.59    1.50
   0 -10   8    2.32    2.15
   0  10   8    3.88    2.13
   0 -10   9    7.89    2.42
   0 -10  -9    8.17    2.71
   0  10   9    7.35    1.43
   0 -10  -9    5.66    1.50
   0 -10   9    1.49    2.11
   0  10   9    7.99    2.47
   0 -10  10  245.02   12.54
   0  10  10  274.50    9.39
   0  10 -10  266.33    8.85
   0 -10 -10  242.41   12.54
   0 -10 -10  225.43   10.06
   0  10  10  263.55   12.93
   0 -10  10  239.30   12.56
   0 -10  11  121.07    8.71
   0  10  11  129.54    6.14
   0 -10 -11  118.47    8.60
   0  10 -11  138.85    5.78
   0 -10 -11  115.04    6.97
   0 -10  11  121.05    8.85
   0  10  12  306.63   10.67
   0 -10  12  279.22   14.38
   0 -10 -12  276.51   14.18
   0  10 -12  316.38    9.98
   0 -10 -12  275.82   12.16
   0 -10  12  299.91   14.95
   0 -10 -13   29.70    4.75
   0 -10  13   33.07    5.04
   0 -10  13   33.09    5.18
   0 -10 -14  435.26   19.31
   0 -10  14  443.68   19.68
   0 -10  14  481.59   20.87
   0 -10 -15    9.60    3.50
   0 -10  15    1.01    2.07
   0 -10  15    3.87    2.74
   0 -10 -16  425.73   19.83
   0 -10  16  432.22   20.43
   0  11   0    4.19    1.56
   0  11   0    1.63    1.17
   0  11   0    2.67    1.06
   0  11   1   15.28    2.08
   0 -11   1   19.69    2.49
   0  11  -1   18.20    2.45
   0  11  -1   16.28    2.12
   0  11   1   16.62    2.45
   0  11   1   15.86    1.64
   0  11  -1   16.78    1.93
   0  11   2  105.27    5.32
   0  11  -2  109.59    6.28
   0 -11   2  107.31    6.01
   0  11   2  108.58    6.41
   0  11  -2   92.37    5.26
   0 -11  -2  106.35    6.29
   0  11   2  107.93    4.65
   0 -11  -2   97.33    4.56
   0  11   2  119.73    6.62
   0  11  -2  106.52    5.46
   0  11   3   19.93    2.24
   0  11  -3   20.24    2.84
   0 -11   3   18.30    2.77
   0  11   3   18.21    2.72
   0 -11  -3   20.48    2.94
   0  11  -3   20.14    2.29
   0  11   3   21.10    1.94
   0  11   3   25.57    3.28
   0  11  -3   22.85    2.88
   0 -11  -3   17.59    1.81
   0  11  -4  203.88    9.35
   0  11   4  178.17    7.08
   0 -11   4  194.36    9.04
   0 -11  -4  187.10    9.02
   0  11  -4  189.02    7.42
   0  11   4  192.76    9.26
   0 -11  -4  168.21    6.60
   0  11   4  205.82    7.05
   0  11  -4  198.77    8.77
   0  11   4  193.19    9.19
   0  11  -5  141.15    7.70
   0 -11   5  129.48    7.56
   0  11   5  127.94    7.54
   0  11  -5  125.83    5.74
   0 -11  -5  123.03    7.45
   0 -11  -5  105.75    5.05
   0  11   5  141.85    5.67
   0  11  -5  144.44    7.51
   0  11   5  132.51    7.67
   0  11  -6 1178.99   32.62
   0 -11   6 1097.16   31.99
   0 -11  -6 1135.67   32.42
   0  11   6 1149.94   32.56
   0 -11  -6 1156.04   28.65
   0  11   6 1180.82   28.65
   0  11   6 1139.95   32.39
   0  11  -7    1.75    1.44
   0 -11   7    5.47    2.54
   0 -11  -7    2.65    1.83
   0  11   7    1.17    1.37
   0 -11  -7    2.84    1.16
   0  11   7    5.75    2.45
   0 -11   8 1085.24   32.68
   0 -11  -8 1126.98   33.17
   0 -11  -8 1148.37   29.23
   0  11   8 1160.52   33.10
   0 -11   9    2.71    1.95
   0 -11  -9    2.16    2.31
   0 -11  -9   -0.25    1.17
   0 -11   9   -2.34    2.56
   0  11   9    2.56    2.32
   0  11  10 1128.84   27.57
   0 -11  10 1025.16   32.69
   0 -11 -10 1040.78   32.88
   0  11 -10 1120.61   26.98
   0 -11 -10  999.59   28.94
   0 -11  10 1082.58   33.02
   0  11  10 1126.87   33.43
   0 -11  11    2.31    2.16
   0  11  11    2.51    1.21
   0 -11 -11    2.97    2.25
   0  11 -11    1.43    0.89
   0 -11 -11    1.79    1.45
   0 -11  11    4.99    2.90
   0  11  11    4.95    2.78
   0  11  12  292.72   10.20
   0 -11  12  262.85   14.14
   0  11 -12  289.29    9.33
   0 -11 -12  280.30   14.32
   0 -11 -12  245.54   11.45
   0 -11  12  279.07   14.51
   0 -11 -13   22.91    4.11
   0 -11  13   25.15    4.37
   0 -11  13   19.84    4.22
   0 -11 -14   40.75    5.52
   0 -11  14   36.10    5.62
   0 -11  14   40.55    5.99
   0 -11  15    3.10    2.06
   0 -11 -15    2.38    1.98
   0 -11 -16    0.42    1.94
   0  12   0  776.23   21.42
   0  12   0  752.18   21.72
   0  12   0  723.05   19.57
   0  12   1    3.96    1.35
   0 -12   1    2.83    1.65
   0  12  -1    2.63    1.34
   0  12  -1    3.26    1.30
   0  12   1    1.76    1.21
   0  12   1    2.20    1.01
   0  12  -1    2.25    1.10
   0  12   1    1.15    1.65
   0  12  -2  112.07    6.54
   0 -12   2  106.68    6.08
   0  12   2  101.38    5.47
   0 -12  -2  121.69    6.78
   0  12  -2  103.50    5.64
   0  12   2  109.44    6.62
   0  12   2  106.13    4.77
   0  12   2  122.38    6.78
   0  12  -2  109.09    5.60
   0 -12   3   19.32    2.71
   0  12  -3   20.80    2.95
   0  12   3   20.17    2.31
   0  12  -3   19.58    2.39
   0 -12  -3   19.56    3.04
   0  12   3   26.43    3.20
   0  12   3   19.31    1.84
   0 -12  -3   18.48    1.95
   0  12   3   22.24    3.17
   0  12  -3   22.98    2.96
   0 -12   4   12.35    2.56
   0  12  -4   14.93    2.64
   0  12   4   14.22    1.97
   0  12  -4   16.44    2.22
   0  12   4   14.45    2.65
   0 -12  -4   12.89    2.58
   0  12   4   16.47    2.00
   0  12  -4   15.39    2.56
   0  12   4   14.07    2.82
   0 -12  -4   14.09    1.77
   0 -12   5   33.78    3.89
   0  12  -5   36.81    4.05
   0  12   5   34.15    2.76
   0 -12  -5   34.53    4.05
   0  12  -5   30.55    2.85
   0  12   5   35.65    4.14
   0  12   5   32.58    2.62
   0 -12  -5   26.68    2.35
   0  12  -5   36.37    3.84
   0  12   5   31.43    3.72
   0 -12   6   55.70    5.30
   0  12  -6   56.97    5.07
   0 -12  -6   62.27    5.60
   0  12  -6   54.96    3.79
   0  12   6   64.20    5.51
   0  12   6   60.20    3.78
   0 -12  -6   51.38    3.47
   0  12   6   65.26    5.65
   0  12  -6   64.85    5.46
   0 -12   7  241.56   11.75
   0 -12  -7  252.69   12.05
   0 -12  -7  266.09    9.48
   0  12   7  266.65    9.45
   0  12   7  267.22   12.27
   0 -12   8    4.41    2.19
   0 -12  -8    4.38    2.34
   0 -12  -8    3.60    1.31
   0  12   8    3.13    2.46
   0 -12   9  128.32    8.69
   0 -12  -9  132.35    9.00
   0 -12  -9  127.91    6.71
   0  12   9  137.69    9.05
   0  12  10    3.80    1.39
   0 -12  10    5.75    2.67
   0 -12 -10    4.19    2.71
   0 -12 -10    3.64    1.44
   0 -12  10    6.35    2.53
   0  12  10    9.66    3.14
   0  12  11   23.13    2.46
   0 -12  11   20.28    3.94
   0  12 -11   22.02    2.20
   0 -12 -11   23.40    4.22
   0 -12 -11   21.82    2.97
   0  12  11   27.62    4.61
   0 -12  11   24.45    4.15
   0 -12 -12   67.25    6.88
   0 -12  12   71.86    7.09
   0 -12  12   74.40    7.49
   0 -12 -13    3.86    2.39
   0 -12  13    1.91    2.20
   0 -12  13   -0.73    2.42
   0 -12 -14   31.49    5.18
   0 -12  14   27.22    4.89
   0 -12  14   28.59    5.02
   0 -12 -15    0.77    2.12
   0  13   0    1.12    1.30
   0  13   0    0.42    1.04
   0  13   0   -0.40    1.08
   0  13  -1  116.72    6.59
   0  13   1  106.98    5.99
   0  13  -1  109.93    6.19
   0  13   1  113.54    6.75
   0  13   1   98.35    4.83
   0  13   1  119.43    6.73
   0 -13   1  106.04    6.03
   0  13  -1  111.11    5.55
   0  13  -2   31.46    3.60
   0  13   2   29.79    3.16
   0 -13   2   27.59    3.34
   0  13   2   31.09    3.74
   0  13  -2   34.35    3.37
   0 -13  -2   34.17    3.81
   0  13   2   33.96    2.67
   0  13  -2   27.83    2.95
   0  13   2   30.27    3.78
   0 -13   3   84.37    5.94
   0  13   3   88.46    5.19
   0  13  -3   98.41    6.33
   0  13   3   99.78    6.63
   0 -13  -3   94.60    6.51
   0  13  -3   86.06    5.22
   0  13   3   92.00    4.52
   0  13  -3   93.94    5.98
   0 -13  -3   95.15    4.65
   0  13  -3   80.42    5.21
   0  13   3   94.14    6.44
   0  13  -4  190.75    9.60
   0  13   4  190.18    7.77
   0 -13   4  184.34    9.22
   0  13   4  181.88    9.61
   0  13  -4  185.81    7.97
   0 -13  -4  184.70    9.57
   0  13   4  197.41    7.19
   0 -13  -4  172.35    6.92
   0  13  -4  186.77    8.99
   0  13   4  191.96    9.78
   0 -13   5   16.23    2.92
   0  13   5   13.73    1.92
   0  13  -5   15.20    2.61
   0  13   5   12.27    2.55
   0  13  -5   11.88    1.95
   0 -13  -5   12.09    2.89
   0  13   5   14.47    1.85
   0  13   5   13.42    2.94
   0  13  -5   11.96    2.28
   0 -13  -5   10.46    1.65
   0 -13   6   59.54    5.32
   0  13   6   54.49    3.68
   0 -13  -6   58.55    5.53
   0  13  -6   60.57    4.05
   0 -13  -6   53.42    3.56
   0  13   6   58.57    3.73
   0  13   6   55.82    5.51
   0 -13   7   15.40    3.19
   0  13   7   15.75    2.03
   0 -13  -7   13.97    3.02
   0  13  -7   16.29    2.21
   0  13   7   18.12    2.28
   0 -13  -7   15.13    2.02
   0  13   7   19.36    3.53
   0 -13   8  570.45   21.01
   0 -13  -8  559.48   21.10
   0  13  -8  578.57   16.87
   0 -13  -8  617.82   17.69
   0  13   8  598.50   21.34
   0 -13   9    8.17    2.94
   0 -13  -9    7.60    2.82
   0 -13  -9    7.75    1.90
   0  13   9    7.60    2.54
   0  13  10  130.13    5.77
   0 -13  10  118.12    8.89
   0 -13 -10  114.55    8.64
   0 -13 -10  112.48    6.52
   0  13  10  121.90    9.00
   0 -13  11    7.93    3.13
   0  13  11    8.15    1.59
   0 -13 -11   11.17    3.28
   0  13 -11    4.64    1.20
   0 -13 -11    6.52    1.77
   0  13  11   11.12    3.59
   0 -13 -12   22.44    4.45
   0 -13  12   22.73    4.40
   0 -13  12   23.10    4.27
   0 -13 -13    4.77    2.87
   0 -13  13    6.00    2.97
   0 -13  13    3.81    2.81
   0 -13  14   20.78    4.63
   0 -13 -14   19.98    4.25
   0  14   0  916.31   25.18
   0  14   0  856.11   25.37
   0  14   0  832.09   22.64
   0  14  -1    9.92    2.18
   0  14   1    4.90    1.69
   0  14  -1    6.35    1.76
   0  14   1    5.29    1.79
   0  14   1    5.83    1.22
   0  14  -1    7.74    1.67
   0  14   1    8.48    2.32
   0 -14   2  466.98   16.19
   0  14  -2  528.83   17.48
   0  14   2  491.73   15.72
   0  14  -2  484.71   16.06
   0  14   2  509.82   17.70
   0  14   2  481.35   14.16
   0  14  -2  467.71   15.19
   0  14   2  489.64   17.19
   0  14   3  188.97    8.28
   0 -14   3  188.92    9.30
   0  14  -3  211.63   10.02
   0 -14  -3  189.79    9.65
   0  14   3  197.54    9.96
   0  14  -3  188.06    8.52
   0  14   3  185.91    7.20
   0 -14  -3  172.16    7.17
   0  14  -3  192.23    9.21
   0  14  -3  182.94    8.38
   0  14   3  196.89    9.87
   0  14  -4  256.29   11.54
   0 -14   4  226.81   10.84
   0  14   4  234.95    9.28
   0  14  -4  230.02    9.53
   0 -14  -4  239.21   11.54
   0  14   4  236.25   11.50
   0  14   4  249.04    8.57
   0 -14  -4  215.89    8.32
   0  14   4  245.10   11.55
   0  14  -4  258.34   11.08
   0  14   5  175.55    7.55
   0 -14   5  178.63    9.61
   0 -14  -5  184.83   10.01
   0  14  -5  172.66    7.81
   0  14   5  182.24    7.14
   0 -14  -5  167.97    6.95
   0  14   5  177.80    9.84
   0 -14   6   51.48    5.34
   0  14   6   52.57    3.80
   0 -14  -6   52.52    5.52
   0  14  -6   53.61    4.05
   0  14   6   56.52    3.81
   0 -14  -6   49.06    3.60
   0  14   6   61.77    5.98
   0 -14   7  281.17   13.12
   0  14   7  266.10    9.64
   0  14  -7  267.03    9.94
   0 -14  -7  273.49   13.12
   0  14   7  289.91    9.98
   0 -14  -7  256.03    9.52
   0  14   7  283.79   13.26
   0  14   8    1.73    1.17
   0 -14   8    4.22    2.48
   0 -14  -8    2.21    2.27
   0  14  -8    1.95    1.28
   0 -14  -8    0.70    1.03
   0  14   8    2.79    2.45
   0 -14   9  101.88    8.14
   0  14  -9  113.49    5.71
   0 -14  -9  114.08    8.62
   0 -14  -9  114.49    6.28
   0  14   9  123.10    5.73
   0  14   9  121.96    8.82
   0 -14  10   17.17    4.02
   0 -14 -10   16.95    3.72
   0  14  10   17.01    2.14
   0 -14 -10   12.16    2.29
   0  14  10   16.29    3.79
   0 -14 -11  232.43   13.33
   0 -14  11  224.76   13.27
   0  14  11  235.74   13.46
   0 -14 -12  109.96    9.23
   0 -14  12  110.28    9.26
   0 -14 -13   44.26    6.17
   0 -14  13   42.86    6.02
   0 -14 -14  404.48   19.50
   0  15   0    0.07    1.50
   0  15   0    1.24    1.24
   0  15   0    0.00    1.31
   0  15   0   -0.36    1.80
   0  15  -1 1484.75   37.71
   0  15   1 1415.80   36.40
   0  15   1 1426.88   37.91
   0  15  -1 1387.87   36.90
   0  15  -1 1324.70   34.69
   0  15   1 1330.85   33.86
   0  15   1 1374.74   37.30
   0  15   2   30.47    3.33
   0 -15   2   29.92    3.64
   0  15  -2   36.14    4.08
   0  15   2   28.70    3.98
   0  15  -2   36.10    3.94
   0  15   2   28.43    2.62
   0  15  -2   32.36    3.33
   0  15   2   36.23    4.20
   0  15  -3  373.41   14.67
   0  15   3  341.43   12.50
   0 -15   3  328.24   13.53
   0  15  -3  341.35   12.90
   0  15   3  352.82   14.60
   0  15   3  347.15   11.17
   0  15  -3  327.47   12.52
   0  15  -3  368.35   13.95
   0  15   3  361.09   14.56
   0  15   4   62.24    4.49
   0 -15   4   60.31    5.39
   0 -15  -4   71.01    6.09
   0  15  -4   61.59    4.67
   0  15   4   68.67    4.06
   0  15  -4   61.59    4.96
   0 -15  -4   59.73    3.84
   0  15   4   71.31    6.18
   0 -15   5  141.33    8.68
   0  15   5  140.96    6.94
   0 -15  -5  137.57    9.08
   0  15  -5  133.24    7.14
   0  15   5  155.51    6.57
   0 -15  -5  137.35    6.30
   0  15   5  149.89    9.26
   0 -15   6  351.11   15.08
   0  15   6  369.36   12.33
   0  15  -6  343.10   12.53
   0 -15  -6  364.06   15.70
   0  15   6  371.29   11.77
   0 -15  -6  361.24   11.82
   0  15   6  356.02   15.50
   0 -15   7    1.57    2.11
   0  15   7    2.46    1.36
   0  15  -7    1.79    1.37
   0 -15  -7    1.48    1.89
   0  15   7    1.65    1.16
   0  15   7    4.68    2.64
   0 -15  -7    1.42    0.88
   0  15   8 1056.69   27.36
   0 -15   8 1039.97   32.85
   0 -15  -8 1080.69   33.44
   0  15  -8 1059.86   27.84
   0 -15  -8 1059.17   27.71
   0  15   8 1056.00   33.20
   0  15   9    8.51    1.68
   0 -15   9   14.00    3.77
   0 -15  -9   12.77    3.30
   0  15  -9    9.22    1.87
   0 -15  -9    8.01    1.78
   0  15   9   19.03    4.32
   0 -15 -10  322.05   16.09
   0 -15  10  322.78   16.13
   0  15  10  350.56   16.68
   0 -15 -11   84.58    8.06
   0 -15  11   79.25    7.80
   0  15  11   91.34    8.55
   0 -15 -12   78.40    7.97
   0 -15  12   79.41    7.99
   0 -15 -13  252.65   14.88
   0 -15  13  247.62   14.87
   0  16   0  233.89   10.58
   0  16   0  219.56   10.60
   0  16   0  203.60    8.46
   0  16   0  211.61   10.24
   0  16   1   52.18    4.72
   0  16  -1   52.72    4.95
   0  16  -1   55.38    4.99
   0  16   1   59.51    5.44
   0  16   1   50.25    3.76
   0  16  -1   53.89    4.22
   0  16   1   44.67    4.72
   0  16  -2   53.39    4.95
   0  16   2   48.25    4.31
   0  16  -2   48.54    4.48
   0  16   2   41.71    3.23
   0  16  -2   49.07    4.06
   0  16   2   46.76    4.82
   0 -16   3  138.54    8.32
   0  16   3  154.48    7.74
   0  16  -3  145.90    7.90
   0  16   3  146.40    6.46
   0  16  -3  149.98    7.86
   0  16   3  154.04    9.11
   0 -16   4   50.48    5.07
   0  16   4   54.96    4.35
   0 -16  -4   57.68    5.63
   0  16  -4   55.09    4.60
   0  16   4   56.54    3.78
   0  16  -4   54.64    4.74
   0  16   4   51.55    5.41
   0  16   5  328.15   11.87
   0 -16   5  320.57   13.96
   0  16  -5  300.84   12.03
   0 -16  -5  319.11   14.58
   0  16   5  333.26   10.92
   0  16  -5  306.51   12.88
   0  16   5  323.70   14.57
   0 -16  -5  309.73   10.78
   0 -16   6    0.56    1.77
   0  16   6    1.24    1.19
   0 -16  -6   -0.49    2.06
   0  16  -6   -0.60    1.05
   0  16   6    0.26    0.96
   0 -16  -6   -0.37    0.81
   0  16   6    1.94    2.05
   0  16   7  488.56   15.47
   0 -16   7  452.61   18.92
   0  16  -7  475.34   15.82
   0 -16  -7  493.93   19.85
   0  16   7  513.37   15.27
   0 -16  -7  512.62   15.27
   0  16   7  483.49   19.61
   0 -16  -8    6.91    2.88
   0  16  -8    3.83    1.59
   0 -16   8    2.83    2.33
   0  16   8    4.25    1.40
   0  16   8    1.71    2.40
   0 -16  -8    4.10    1.49
   0 -16  -9  705.22   26.07
   0 -16   9  684.11   25.46
   0  16   9  721.51   26.18
   0 -16 -10   10.87    3.22
   0 -16  10   16.09    3.92
   0  16  10   17.69    4.19
   0 -16 -11  229.31   13.79
   0 -16  11  219.28   13.55
   0  16  11  249.47   14.42
   0 -16 -12   -0.82    2.05
   0 -16  12    4.21    2.58
   0  16  12    5.82    3.09
   0  17   0   -0.40    1.67
   0  17   0   -1.58    1.49
   0  17   0    1.30    1.69
   0  17   0    0.32    1.07
   0  17  -1   24.43    3.32
   0  17   1   22.26    3.13
   0  17  -1   29.91    3.71
   0  17   1   20.63    2.52
   0  17  -1   26.09    2.93
   0  17  -1   23.35    3.33
   0  17   1   21.27    3.42
   0  17   2    3.63    1.64
   0  17  -2    2.67    1.51
   0  17   2    2.09    0.97
   0  17   2    3.36    2.01
   0  17  -2    2.74    1.39
   0  17   3   93.87    6.18
   0  17  -3  102.77    6.67
   0  17   3  107.01    5.38
   0 -17   3   91.83    6.78
   0  17   3   96.27    7.34
   0  17  -3   95.20    6.20
   0 -17   4   12.05    2.80
   0  17   4   15.83    2.50
   0  17  -4   14.48    2.59
   0  17   4   15.82    2.25
   0  17   4   14.40    3.36
   0  17  -4   12.00    2.44
   0 -17   5   32.26    4.36
   0  17   5   33.73    3.42
   0  17  -5   29.74    3.60
   0 -17  -5   33.86    4.89
   0  17   5   34.26    3.04
   0  17  -5   29.38    3.90
   0  17   5   39.94    5.11
   0 -17  -5   28.91    2.81
   0 -17   6  319.57   14.89
   0  17   6  340.73   12.43
   0 -17  -6  352.02   16.01
   0  17  -6  341.46   13.00
   0  17   6  356.36   11.71
   0 -17  -6  339.97   11.63
   0  17   6  348.13   15.89
   0  17  -6  342.08   14.35
   0  17   7   -1.62    1.33
   0 -17   7   -0.73    2.13
   0 -17  -7   -0.63    2.24
   0  17  -7    0.41    1.25
   0  17   7    0.13    1.18
   0  17   7    1.09    2.25
   0 -17  -7   -0.08    0.96
   0 -17  -8   -1.69    2.38
   0 -17   8   -1.12    2.05
   0  17   8    1.21    2.28
   0 -17  -9    1.02    2.13
   0 -17   9    3.24    2.67
   0  17   9    1.65    2.39
   0 -17 -10   14.18    3.73
   0 -17  10   12.60    3.15
   0  17  10   23.37    4.80
   0 -17 -11   14.75    3.80
   0 -17  11   14.68    4.65
   0  17  11   17.98    4.46
   0 -17 -12   32.98    5.75
   0  17  12   30.83    5.48
   0  18   0    5.52    1.91
   0  18   0    3.99    1.36
   0  18   0    1.55    1.58
   0  18   1   18.23    3.05
   0  18   1   12.66    2.05
   0  18  -1   14.62    2.30
   0  18  -1   13.49    2.82
   0  18   1   16.97    3.37
   0  18   2   10.74    2.40
   0  18  -2   12.04    2.64
   0  18   2    4.64    1.11
   0  18  -2   10.06    2.19
   0  18   2    8.65    2.70
   0  18  -2   14.90    3.19
   0  18   3   37.83    4.08
   0  18  -3   40.91    4.40
   0  18   3   38.81    3.29
   0  18  -3   45.17    4.39
   0  18   3   40.60    5.15
   0  18   4   51.94    4.53
   0  18  -4   51.18    4.80
   0  18   4   59.09    4.02
   0 -18   4   51.39    5.34
   0  18  -4   48.77    4.84
   0  18   4   58.32    5.96
   0 -18   5  148.59    9.54
   0  18   5  143.11    7.69
   0  18  -5  149.54    8.27
   0  18   5  153.08    6.92
   0  18   5  153.13   10.17
   0  18  -5  146.29    8.66
   0 -18   6    0.08    2.04
   0  18   6    1.45    1.45
   0  18  -6    0.66    1.12
   0  18   6   -1.13    0.97
   0  18   6    2.45    2.54
   0 -18  -6   -0.56    0.90
   0  18  -6   -0.60    1.77
   0 -18   7   31.61    4.70
   0 -18  -7   29.57    4.68
   0  18  -7   30.98    3.40
   0  18   7   30.08    2.99
   0  18   7   29.00    4.73
   0  18  -7   27.35    4.03
   0 -18  -8   -0.37    2.33
   0 -18   8   -1.23    2.36
   0  18   8    4.22    2.59
   0 -18  -9   29.91    4.96
   0 -18   9   24.97    4.52
   0  18   9   28.88    4.66
   0 -18 -10   -1.09    2.35
   0 -18  10   -0.56    2.39
   0  18  10    1.05    2.27
   0 -18 -11   71.57    8.09
   0 -18  11   60.47    7.23
   0  18  11   81.20    8.58
   0  19   0   -0.49    1.21
   0  19   0   -1.93    2.04
   0  19  -1  473.80   16.21
   0  19   1  521.46   16.11
   0  19  -1  483.24   18.42
   0  19   1  479.49   18.87
   0  19   2   12.00    2.57
   0  19   2   12.36    1.91
   0  19   2   18.05    3.69
   0  19  -2   19.30    3.61
   0  19  -2   14.80    2.67
   0  19   3  440.85   16.29
   0  19  -3  424.45   16.72
   0  19  -3  402.58   15.43
   0  19   3  440.82   14.04
   0  19   3  454.77   18.63
   0  19  -3  439.45   16.81
   0 -19   4   24.65    4.06
   0  19   4   20.29    3.02
   0  19  -4   21.35    3.32
   0  19   4   23.02    2.70
   0  19  -4   21.41    3.40
   0  19   4   23.63    4.14
   0  19   5  128.99    7.48
   0  19  -5  111.98    7.48
   0  19   5  127.05    6.40
   0  19  -5  116.41    7.89
   0 -19   5  119.75    8.67
   0  19   5  129.98    9.70
   0 -19   6   55.84    6.15
   0  19  -6   55.31    5.03
   0  19   6   54.87    4.00
   0  19   6   58.76    6.57
   0  19  -6   52.38    5.41
   0 -19   7    6.90    2.91
   0  19   7    7.73    1.86
   0  19   7    9.47    3.13
   0  19  -7    7.18    2.52
   0 -19  -8  147.64   10.64
   0 -19   8  127.48    9.75
   0  19   8  135.76   10.43
   0  19  -8  137.54    9.54
   0 -19  -9   17.76    4.09
   0 -19   9   14.48    3.93
   0  19   9   15.29    4.06
   0 -19 -10    9.99    3.34
   0 -19  10   10.82    3.45
   0  19  10   13.26    3.99
   0  20   0  400.64   14.12
   0  20   0  391.66   16.66
   0  20   1    9.61    1.95
   0  20  -1    6.28    2.54
   0  20  -1    4.60    1.28
   0  20   1    7.59    2.88
   0  20   2  190.50    8.40
   0  20  -2  187.89    9.35
   0  20   2  195.38   11.50
   0  20  -2  193.04   10.72
   0  20   3  142.54    8.61
   0  20   3  143.93    6.95
   0  20  -3  135.11    8.11
   0  20  -3  145.36    9.03
   0  20   3  139.21    9.82
   0  20   4  258.85   11.80
   0  20   4  266.41   10.04
   0  20  -4  245.42   11.74
   0  20  -4  259.85   12.32
   0  20   4  257.93   14.09
   0  20   5  596.61   17.34
   0 -20   5  538.32   21.29
   0  20   5  565.61   22.76
   0  20  -5  568.91   19.86
   0  20  -5  534.89   19.89
   0 -20   6   16.61    3.77
   0  20   6   12.68    1.97
   0  20  -6    8.31    2.37
   0  20   6   10.63    3.57
   0  20  -6   16.31    3.02
   0 -20   7  326.26   16.44
   0  20  -7  334.69   15.22
   0  20   7  321.09   16.69
   0 -20   8   -4.20    2.87
   0  20   8    0.08    2.16
   0  20  -8    2.20    2.18
   0 -20   9  183.38   12.47
   0  20  -9  195.69   12.02
   0  20   9  207.74   13.51
   0  21   0    3.19    1.66
   0  21   0    3.67    1.89
   0  21  -1   78.34    5.61
   0  21   1   81.76    5.47
   0  21   1   86.02    7.48
   0  21  -1   83.06    6.92
   0  21   2   21.11    2.58
   0  21  -2   19.00    3.58
   0  21   2   18.07    3.77
   0  21  -2   21.06    2.95
   0  21   3   35.20    3.30
   0  21  -3   41.26    4.91
   0  21  -3   36.75    4.22
   0  21   3   32.10    5.04
   0  21   4  435.06   14.08
   0  21  -4  388.15   15.86
   0  21   4  398.16   18.65
   0  21  -4  410.27   16.70
   0  21   5   33.04    5.19
   0  21  -5   40.56    4.74
   0  21  -5   34.94    4.38
   0 -21   6  244.92   13.71
   0  21   6  265.45   14.94
   0  21  -6  262.33   12.08
   0  21  -6  241.68   12.61
   0 -21   7    3.81    2.18
   0  21  -7    5.63    2.33
   0  21   7    6.32    3.11
   0 -21   8  262.31   14.93
   0  21   8  267.89   15.66
   0  21  -8  244.36   13.47
   0  21  -9   -3.94    2.46
   0  22   0    2.65    1.31
   0  22   0    2.70    1.92
   0  22  -1    0.00    1.25
   0  22   1   -1.51    1.64
   0  22  -1    0.70    1.53
   0  22   2   31.13    3.26
   0  22  -2   31.81    3.80
   0  22   2   28.35    4.66
   0  22  -2   35.35    4.76
   0  22   3   23.45    2.82
   0  22   3   23.17    4.24
   0  22  -3   25.31    4.06
   0  22  -3   24.10    3.51
   0  22   4   26.81    4.99
   0  22  -4   24.01    3.99
   0  22  -4   24.12    3.80
   0  22   5    4.04    3.06
   0  22  -5    0.98    1.70
   0  22  -5   -0.96    2.06
   0  22  -6    8.44    2.92
   0  22  -6    8.44    2.42
   0  22   6    8.07    3.53
   0 -22   7    6.85    2.74
   0  22  -7    1.13    1.84
   0  22   7    3.47    3.05
   0  22  -8   -2.35    2.23
   0  22  -9   -3.33    2.44
   0  23   0   -1.07    1.52
   0  23   0   -1.16    2.45
   0  23  -1   37.98    4.01
   0  23   1   39.79    3.88
   0  23   1   41.13    5.48
   0  23  -1   36.72    4.94
   0  23  -2   12.94    2.57
   0  23   2   11.42    3.32
   0  23  -2   17.52    3.67
   0  23  -3   12.55    3.27
   0  23   3   11.83    3.56
   0  23  -3   12.89    2.79
   0  23  -4    2.30    2.08
   0  23   4    3.45    2.76
   0  23  -4    3.30    2.61
   0  23  -5    1.98    2.25
   0  23  -5    2.11    1.69
   0  23   5    0.40    2.50
   0  23   6   63.29    7.66
   0  23  -6   57.32    6.05
   0  23  -7    0.33    1.87
   0  23  -8   91.57    8.10
   0  24   0  343.48   16.93
   0  24  -1   -0.29    1.42
   0  24   1    1.10    2.18
   0  24  -1    3.50    2.18
   0  24  -2  285.32   12.86
   0  24  -2  291.54   15.06
   0  24   2  299.26   16.22
   0  24   3    2.42    2.67
   0  24  -3   -2.49    2.03
   0  24  -3    2.28    1.97
   0  24  -4  134.69    8.83
   0  24  -4  122.65    9.12
   0  24   4  135.42   10.87
   0  24  -5   16.57    3.54
   0  24  -6   46.72    5.67
   0  24  -7    5.31    2.74
   0  25   0   -0.13    1.93
   0  25   1  160.20   11.50
   0  25  -1  144.39   10.67
   0  25   2  116.74   10.00
   0  25  -2  113.30    9.29
   0  25  -3   56.07    5.49
   0  25   3   68.36    7.80
   0  25  -3   70.58    6.98
   0  25  -4  180.62   10.65
   0  25  -4  204.14   12.08
   0  25  -5   43.76    5.29
   0  25  -6  214.65   12.54
   0  25  -7   -1.22    2.06
   0  26   0   77.99    8.05
   0  26   1   14.99    3.96
   0  26  -1   16.26    3.94
   0  26  -2  150.92   10.85
   0  26  -3   11.34    3.19
   0  27  -1   78.66    8.17
   0  27  -2    1.53    1.84
   1   0 -16   83.31    7.31
  -1   0  16   76.75    6.57
   1   0 -15    1.77    1.76
  -1   0  15    3.05    1.93
   1   0 -14    2.24    1.98
  -1   0  14    0.00    1.55
   1   0 -13   -1.86    1.74
  -1   0  13   -0.18    1.39
   1   0 -13   -0.21    1.30
   1   0 -12   87.85    6.24
   1   0 -12   72.86    5.28
  -1   0  12   81.36    5.60
   1   0 -12   76.59    5.90
   1   0 -11    0.61    0.95
   1   0 -11   -0.74    1.36
  -1   0  11    2.49    1.48
   1   0 -11    0.80    1.11
   1   0 -10  529.29   17.16
  -1   0  10  522.97   16.15
   1   0 -10  489.03   15.77
   1   0 -10  528.71   16.97
   1   0  -9    1.45    1.29
   1   0  -9    1.41    1.07
  -1   0   9    4.04    1.52
   1   0  -9    1.53    1.39
   1   0  -8 3945.42   89.17
   1   0  -8 3904.61   87.88
  -1   0   8 3841.54   87.91
   1   0  -8 4006.86   89.29
   1   0  -7    1.45    1.45
   1   0  -7    2.10    1.13
  -1   0   7    2.24    1.38
   1   0  -6  808.77   20.47
  -1   0   6  731.52   19.20
   1   0  -6  747.59   19.19
   1   0  -5    2.17    1.43
   1   0  -5    0.91    0.95
  -1   0   5    0.96    0.96
   1   0  -4 2859.88   61.95
  -1   0   4 2744.72   60.69
   1   0  -4 2700.06   60.69
   1   0  -3    0.23    0.66
  -1   0   3   -0.43    0.80
   1   0  -2 3627.90   78.29
   1   0  -1    0.00    0.71
  -1   0   1    0.86    0.60
  -1   0   0  369.38    9.18
   1   0   0  377.36    9.25
  -1   0  -1    2.27    0.80
   1   0   1    1.41    0.92
  -1   0  -2   13.05    1.67
   1   0   2   13.50    1.79
   1   0   3   -0.04    1.34
   1   0   3    3.03    0.82
  -1   0  -3    2.32    1.04
   1   0   4   73.54    4.34
   1   0   4   79.10    3.46
  -1   0  -4  108.31    3.71
  -1   0  -4   71.10    4.23
   1   0   4   91.01    3.49
   1   0   5   -0.93    1.36
   1   0   5    1.88    0.90
  -1   0  -5    5.14    1.22
  -1   0  -5    0.96    1.30
   1   0   5    2.46    1.04
   1   0   6  209.85    8.21
  -1   0  -6  210.99    6.91
   1   0   6  188.55    6.68
  -1   0  -6  202.98    8.34
   1   0   6  197.09    6.85
   1   0   7    2.38    1.59
  -1   0  -7    0.43    1.22
   1   0   7    1.36    0.97
   1   0   8 3361.15   75.39
  -1   0  -8 3341.91   76.22
  -1   0  -8 3149.89   73.19
   1   0   8 3236.70   73.16
   1   0   9    0.14    1.37
  -1   0  -9   -0.76    1.18
  -1   0  -9    2.51    1.45
   1   0   9   -0.15    0.84
   1   0  10 1678.67   42.20
  -1   0 -10 1733.38   43.44
   1   0  10 1629.70   39.83
  -1   0 -10 1561.14   39.70
  -1   0 -11    1.11    1.23
   1   0  11    0.73    1.59
  -1   0 -12  338.11   12.29
   1   0  12  337.79   14.06
  -1   0 -13   -0.04    1.19
   1   0  13    3.53    2.22
  -1   0 -14  899.13   26.07
   1   0  14  907.05   28.76
  -1   0 -15    1.82    1.55
   1   0  15   -0.93    2.19
   1   0  16   98.05    8.20
   1   0  17    0.26    2.11
   1  -1 -17   17.09    3.51
   1  -1 -16  219.99   12.11
   1   1 -16  227.34   11.80
  -1   1  16  204.90   10.69
  -1  -1  16  212.78   11.41
   1   1 -15    5.75    2.26
   1  -1 -15    3.38    2.23
  -1   1  15    2.83    1.69
  -1  -1  15    5.28    2.36
   1   1 -14  309.29   13.13
   1  -1 -14  302.04   13.43
  -1   1  14  272.95   11.98
  -1  -1  14  274.31   12.37
   1   1 -13   33.88    4.06
   1  -1 -13   32.55    4.28
   1   1 -13   25.42    3.46
  -1  -1  13   26.55    3.62
  -1   1  13   28.51    3.71
   1   1 -13   33.98    3.99
   1   1 -12  470.68   16.28
   1  -1 -12  458.51   16.58
  -1  -1  12  432.63   15.67
  -1   1  12  450.68   15.28
   1   1 -12  452.09   15.73
   1  -1 -12  462.53   16.57
   1   1 -12  460.53   16.09
   1   1 -11    2.06    1.70
   1  -1 -11    2.80    1.65
   1  -1 -11    1.33    0.98
  -1  -1  11    0.82    1.35
  -1   1  11    0.61    1.16
   1   1 -11    0.43    1.00
   1  -1 -11    1.98    1.59
   1   1 -11    2.26    1.37
   1   1 -10  511.03   16.41
   1  -1 -10  501.39   16.79
   1   1 -10  489.06   15.71
  -1   1  10  486.32   15.22
  -1  -1  10  491.38   15.93
   1  -1 -10  463.23   14.89
   1  -1 -10  507.76   16.64
   1   1 -10  508.32   16.36
   1   1  -9  322.52   11.63
   1  -1  -9  311.44   12.01
  -1   1   9  311.25   10.77
   1   1  -9  323.79   11.36
  -1  -1   9  309.83   11.25
   1  -1  -9  301.38   10.47
   1  -1  -9  338.91   12.17
   1   1  -9  324.74   11.69
   1   1  -8  264.17   10.14
   1  -1  -8  266.33   10.45
  -1  -1   8  290.74   10.15
  -1   1   8  277.70    9.44
   1   1  -8  258.33    9.61
   1  -1  -8  241.61    8.83
   1  -1  -8  279.70   10.59
   1   1  -7 1716.64   39.79
   1  -1  -7 1687.24   40.21
  -1   1   7 1569.78   38.37
   1  -1  -7 1637.42   38.35
   1   1  -7 1621.12   39.10
  -1  -1   7 1588.76   39.12
   1  -1  -7 1720.42   40.43
   1   1  -6    3.70    1.60
   1  -1  -6   -0.39    1.52
  -1  -1   6    4.19    1.40
   1  -1  -6    2.12    0.84
  -1   1   6    2.67    1.06
   1   1  -6    1.55    1.09
   1  -1  -5  663.95   17.30
   1   1  -5  666.69   16.91
  -1  -1   5  604.10   16.16
  -1   1   5  593.39   15.44
   1   1  -5  632.22   16.28
   1  -1  -5  628.32   15.50
   1  -1  -4  132.02    6.20
  -1   1   4  196.44    5.43
   1   1  -4  177.55    6.09
  -1  -1   4  194.72    6.21
   1  -1  -4  149.56    5.09
   1  -1  -3  128.69    5.39
   1   1  -3  148.09    4.84
   1  -1  -3  131.64    4.07
  -1   1   3  143.94    4.10
  -1  -1   3  163.06    4.96
   1  -1  -2 2154.10   52.18
  -1  -1   2 2103.85   51.58
   1   1  -1   37.82    1.99
   1  -1  -1   27.61    1.40
  -1   1   1   35.47    1.47
   1   1  -1   26.23    1.47
  -1  -1   1   38.17    1.94
   1  -1   0 2227.94   49.84
  -1   1   0 2258.22   49.81
   1   1   0 2407.98   50.40
  -1  -1   0 2346.24   50.34
   1   1   1    0.06    0.90
  -1   1  -1    0.93    0.68
  -1  -1  -1    0.85    0.78
   1  -1   1   -0.45    0.82
   1  -1   2 2228.66   48.75
  -1  -1  -2 2184.79   48.58
   1   1   2 2175.84   48.59
  -1   1  -2 2125.01   48.51
   1  -1   3   12.38    2.01
   1   1   3   18.10    1.63
   1  -1   3   14.64    1.10
   1   1   3   12.87    1.91
  -1  -1  -3   13.36    1.75
  -1   1  -3   11.73    1.75
   1  -1   4  357.31   11.49
  -1   1  -4  395.82    9.39
   1  -1   4  351.67    9.36
  -1  -1  -4  413.47   10.40
   1   1   4  383.89   10.42
  -1  -1  -4  363.66   11.12
  -1   1  -4  359.22   11.29
   1   1   4  398.70   10.32
   1  -1   4  347.47    9.34
   1  -1   5  133.66    6.27
   1   1   5  139.07    5.97
   1   1   5  135.20    5.29
  -1  -1  -5  155.98    5.46
   1  -1   5  115.88    4.42
  -1   1  -5  144.50    4.62
  -1   1  -5  129.26    6.17
  -1  -1  -5  126.34    6.06
   1   1   5  143.44    5.34
   1  -1   5  127.24    4.58
   1   1   6  402.79   12.46
   1  -1   6  403.37   12.78
   1  -1   6  334.52   10.30
  -1   1  -6  410.72   10.70
   1   1   6  376.99   11.36
  -1  -1  -6  417.52   11.55
  -1  -1  -6  385.54   12.62
   1   1   6  387.73   11.44
   1  -1   7 1042.65   26.86
   1   1   7 1099.84   26.70
   1   1   7  984.49   25.09
  -1   1  -7  974.25   24.27
  -1  -1  -7  976.89   25.12
   1  -1   7  956.64   24.22
  -1  -1  -7  990.95   26.84
  -1   1  -7 1029.29   27.29
   1   1   7 1046.65   25.43
   1   1   8  242.27    9.44
   1  -1   8  246.88    9.93
  -1  -1  -8  223.11    9.75
  -1   1  -8  237.44   10.11
   1   1   8  197.92    8.00
  -1  -1  -8  234.97    8.48
   1  -1   8  192.76    7.42
  -1   1  -8  232.79    7.90
   1  -1   9  409.91   14.37
   1   1   9  427.78   14.14
  -1   1  -9  420.39   15.03
  -1  -1  -9  432.63   14.95
   1  -1   9  406.24   12.26
  -1  -1  -9  391.25   12.87
  -1   1  -9  387.65   12.20
   1   1   9  413.02   13.05
   1   1  10    3.78    1.83
   1  -1  10    1.63    1.68
  -1  -1 -10    4.05    1.71
  -1   1 -10    0.09    1.32
  -1   1 -10    4.10    1.50
  -1  -1 -10    4.55    1.57
   1   1  10    0.93    1.05
  -1  -1 -11   13.50    2.27
  -1   1 -11   10.10    2.01
   1   1  11   12.30    2.09
   1  -1  11    7.66    2.14
   1   1  11   18.00    3.08
   1   1  12    9.54    2.30
  -1  -1 -12    9.41    2.17
  -1   1 -12    8.75    2.08
   1   1  12   13.73    2.94
   1  -1  12   11.86    2.90
  -1   1 -13  139.19    7.16
  -1  -1 -13  127.70    7.47
   1  -1  13  137.50    8.73
   1   1  13  149.43    8.84
  -1   1 -14  441.98   15.28
  -1  -1 -14  445.98   16.09
   1   1  14  441.96   17.48
   1  -1  14  469.96   18.35
  -1  -1 -15   55.98    5.11
   1  -1  15   49.28    5.63
   1   1  15   63.91    6.18
   1   1  16  304.64   14.58
   1  -1  16  301.98   14.96
   1   1  17    3.75    2.22
   1  -1  17    4.77    2.80
   1  -1  18  232.33   13.84
   1  -2 -17   48.24    5.84
  -1  -2  17   38.72    5.04
   1   2 -16   11.66    2.95
   1  -2 -16   11.16    3.16
  -1  -2  16    3.07    2.02
   1   2 -15   80.55    6.44
   1  -2 -15   87.47    7.26
  -1   2  15   73.94    5.77
  -1  -2  15   69.12    6.19
   1  -2 -14    0.73    1.68
   1   2 -14    1.69    1.62
  -1  -2  14    3.35    1.94
  -1   2  14    1.50    1.59
   1   2 -14    1.82    1.49
   1   2 -13   48.50    4.45
   1  -2 -13   58.94    5.46
  -1  -2  13   46.24    4.65
  -1   2  13   51.63    4.44
   1   2 -13   45.45    4.43
   1   2 -13   44.91    4.32
   1   2 -12   13.30    2.67
   1  -2 -12   12.87    2.79
  -1  -2  12   16.79    3.00
   1   2 -12   15.24    2.75
  -1   2  12   15.35    2.43
   1  -2 -12   13.67    2.79
   1   2 -12   15.67    2.64
   1   2 -11   21.07    2.89
   1  -2 -11   20.03    3.16
   1   2 -11   17.36    2.67
  -1   2  11   22.30    2.73
  -1  -2  11   22.25    3.10
   1  -2 -11   24.90    3.33
   1   2 -11   18.02    2.61
   1  -2 -10   72.61    5.54
   1   2 -10   71.72    5.05
  -1  -2  10   75.81    5.26
  -1   2  10   71.57    4.49
   1   2 -10   69.48    4.98
   1  -2 -10   74.62    5.47
   1   2 -10   75.89    5.16
   1  -2  -9   89.15    6.01
   1   2  -9   91.97    5.48
  -1  -2   9   97.40    5.72
   1   2  -9   85.24    5.32
  -1   2   9   85.54    4.83
   1  -2  -9   88.92    5.90
   1   2  -8  151.88    6.69
   1  -2  -8  136.33    7.19
  -1   2   8  123.07    5.54
  -1  -2   8  134.53    6.60
   1  -2  -8  127.10    5.44
   1   2  -8  135.93    6.46
   1  -2  -8  139.07    7.02
   1   2  -7    2.43    1.61
  -1   2   7    3.61    1.57
   1  -2  -7    1.34    1.43
  -1   2   7    4.30    1.37
   1  -2  -7    2.75    0.97
   1   2  -7    4.18    1.31
  -1  -2   7    4.38    1.66
   1  -2  -7    0.68    1.16
  -1   2   6   63.82    4.19
   1   2  -6   65.28    3.87
   1  -2  -6   61.29    4.19
  -1  -2   6   54.04    3.60
   1  -2  -6   61.69    2.94
   1   2  -6   62.79    3.73
  -1   2   6   58.93    2.99
   1  -2  -6   63.73    4.13
   1  -2  -5   55.46    4.00
  -1   2   5   51.92    3.71
   1  -2  -5   46.89    2.39
  -1  -2   5   63.32    3.67
  -1   2   5   59.56    2.72
   1   2  -5   63.31    3.63
   1  -2  -5   53.40    3.87
   1  -2  -4   51.59    3.63
  -1   2   4   58.80    3.77
  -1   2   4   67.82    2.40
   1   2  -4   67.30    3.48
  -1  -2   4   64.61    3.55
   1  -2  -4   56.72    2.23
   1  -2  -3  355.24   11.29
  -1   2   3  332.90   11.03
   1   2  -3  451.95   11.15
  -1  -2   3  354.97   10.92
  -1   2   2  563.72   15.31
   1  -2  -2  586.73   15.45
   1   2  -2  695.28   15.38
   1   2  -2  585.13   14.97
  -1  -2   2  608.45   14.98
   1   2  -1  279.75    6.90
  -1  -2   1  260.76    6.80
   1  -2   0    1.67    0.77
   1  -2   0    4.48    0.98
   1   2   0    3.34    1.01
  -1   2   0    2.50    0.60
   1  -2   0    1.91    0.62
  -1  -2   0    2.18    0.76
   1  -2   1    3.09    1.12
  -1   2  -1    4.41    1.04
  -1   2  -1    2.04    0.78
  -1  -2  -1    2.11    0.89
   1   2   1    3.21    1.09
   1  -2   1    7.82    1.11
   1  -2   2    5.01    1.57
   1   2   2    5.06    1.42
  -1  -2  -2    5.56    1.16
   1   2   2    9.54    1.41
  -1   2  -2    6.02    1.27
   1  -2   3   -0.24    1.42
   1   2   3    4.17    1.22
  -1   2  -3    0.23    1.00
   1   2   3    3.39    1.49
  -1  -2  -3    1.55    1.15
   1  -2   4    1.50    1.71
   1  -2   4    0.91    0.47
  -1  -2  -4    0.05    1.08
  -1   2  -4    1.19    1.23
  -1   2  -4    1.05    0.50
   1   2   4    1.19    1.05
  -1  -2  -4    1.53    1.17
   1   2   4   -0.13    1.42
   1   2   4    0.55    1.23
   1  -2   5   73.84    4.56
  -1   2  -5   78.38    4.69
  -1  -2  -5   88.45    4.22
   1  -2   5   70.10    2.85
  -1   2  -5   92.37    3.03
   1   2   5   86.46    4.22
  -1  -2  -5   73.79    4.42
   1   2   5   89.82    4.21
   1  -2   6  245.04    9.25
  -1   2  -6  237.64    9.07
   1   2   6  243.31    8.55
   1   2   6  241.71    8.23
   1  -2   6  196.61    6.54
  -1   2  -6  234.30    6.74
  -1  -2  -6  237.47    8.19
  -1  -2  -6  220.06    8.69
   1   2   6  242.54    8.20
   1  -2   7   34.75    3.63
  -1   2  -7   39.23    3.62
   1   2   7   34.62    3.28
  -1   2  -7   47.70    2.63
  -1  -2  -7   41.03    3.22
   1   2   7   41.21    3.16
  -1  -2  -7   40.38    3.54
   1   2   7   37.74    3.22
   1  -2   8   36.85    3.80
   1   2   8   42.85    3.58
  -1   2  -8   33.08    2.48
  -1   2  -8   37.12    3.57
   1   2   8   37.93    3.09
  -1  -2  -8   38.33    3.18
  -1  -2  -8   35.92    3.53
   1   2   8   39.67    3.26
   1   2   9    0.50    1.55
   1  -2   9    0.71    1.54
  -1  -2  -9    1.77    1.33
  -1  -2  -9    2.31    1.39
   1   2   9   -0.06    1.26
  -1   2  -9    0.73    0.84
   1  -2  10   99.79    6.70
   1   2  10  105.32    6.36
  -1   2 -10  111.87    7.17
  -1  -2 -10  112.04    6.86
   1   2  10   96.13    5.73
  -1   2 -10  102.15    5.03
  -1  -2 -10   98.68    5.78
   1   2  11    2.92    1.53
  -1  -2 -11    4.90    1.81
  -1   2 -11    5.35    1.46
   1   2  11    4.99    2.08
   1  -2  11    5.28    2.39
  -1   2 -12   10.02    1.77
   1   2  12    8.01    1.96
  -1  -2 -12   10.11    1.96
   1  -2  12   10.54    2.68
   1   2  12   13.17    2.64
  -1   2 -13   49.68    4.05
   1   2  13   44.37    4.38
  -1  -2 -13   53.74    4.81
   1   2  13   47.41    4.91
   1  -2  13   53.26    5.60
  -1  -2 -14   75.91    5.87
  -1   2 -14   76.43    5.07
   1  -2  14   70.42    6.58
   1   2  14   75.09    6.31
  -1  -2 -15  285.39   12.54
   1  -2  15  285.26   14.15
   1   2  15  275.73   13.25
   1   2  16    3.62    2.40
   1  -2  16    6.11    2.96
   1  -2  17   92.70    8.30
   1   2  17   88.76    7.64
   1  -2  18    3.76    2.48
   1  -3 -17    2.28    2.61
  -1  -3  17   -0.09    2.08
   1  -3 -16   12.38    3.26
   1   3 -16   10.29    2.63
  -1  -3  16   14.14    3.23
  -1  -3  16   16.39    4.33
   1  -3 -15    3.23    2.32
   1   3 -15    0.42    1.40
  -1   3  15    2.41    1.91
  -1  -3  15   -1.45    1.71
   1  -3 -14  177.69   10.29
   1   3 -14  187.36    9.47
  -1   3  14  158.39    8.29
  -1  -3  14  152.81    9.39
   1   3 -14  180.57    9.29
   1   3 -13   14.06    2.81
   1  -3 -13   15.92    3.40
  -1   3  13   12.39    2.41
  -1  -3  13   18.98    3.21
   1   3 -13   13.24    2.60
  -1  -3  12   51.05    4.86
   1   3 -12   56.38    4.87
  -1   3  12   52.22    4.12
   1   3 -12   62.59    4.89
   1  -3 -12   57.23    5.37
   1  -3 -12   58.24    5.05
   1   3 -12   60.14    4.73
   1  -3 -11   -1.68    1.64
   1   3 -11   -0.20    1.60
  -1  -3  11   -0.01    1.36
  -1   3  11    1.44    1.40
   1   3 -11    0.67    1.07
   1  -3 -11   -1.91    1.61
   1   3 -11    1.19    1.44
   1  -3 -10  118.19    7.29
   1   3 -10  113.63    6.44
  -1   3  10  117.04    5.79
   1   3 -10  110.33    6.57
  -1  -3  10  113.19    6.68
   1  -3 -10  113.76    6.96
   1  -3  -9   23.39    3.31
  -1   3   9   18.86    2.89
   1   3  -9   23.74    2.76
  -1  -3   9   22.64    2.88
  -1   3   9   21.64    2.27
   1   3  -9   20.71    2.72
   1  -3  -9   20.53    2.91
   1   3  -8    3.92    1.54
   1  -3  -8    4.40    1.90
  -1   3   8    6.43    2.24
  -1   3   8    4.40    1.32
  -1  -3   8    4.96    1.66
   1   3  -8    4.59    1.47
   1  -3  -8    5.63    1.84
  -1   3   7  104.59    5.91
   1   3  -7  103.77    5.26
   1  -3  -7  100.23    5.88
   1   3  -7   99.82    5.36
  -1  -3   7   94.41    5.39
  -1   3   7   96.83    4.15
   1  -3  -7  105.05    5.87
  -1   3   6   14.21    2.28
   1  -3  -6   15.16    2.46
   1   3  -6   18.10    2.23
  -1  -3   6   20.43    2.61
  -1   3   6   13.94    1.46
   1  -3  -6   16.32    2.38
   1  -3  -5   48.31    3.61
  -1   3   5   42.47    3.33
  -1   3   5   40.70    1.99
   1   3  -5   51.60    3.31
  -1  -3   5   48.11    3.33
  -1  -3   5   48.19    3.68
   1  -3  -5   46.27    3.43
  -1   3   4   36.87    3.31
   1  -3  -4   42.04    3.44
   1   3  -4   53.40    3.33
  -1  -3   4   58.23    3.50
  -1  -3   4   44.19    3.38
   1  -3  -4   37.92    3.14
   1  -3  -3   85.14    4.52
  -1   3   3   93.90    4.64
   1   3  -3  119.64    4.62
  -1  -3   3  113.57    4.69
  -1  -3   3   93.30    4.41
   1   3  -3   97.40    4.45
   1  -3  -3   87.40    4.50
   1  -3  -2   71.87    4.09
  -1   3   2   74.11    3.96
   1   3  -2  100.38    4.03
   1   3  -2   86.07    3.74
   1   3  -2  108.94    4.19
   1  -3  -2   70.66    3.83
   1  -3  -1   -1.61    1.22
  -1   3   1   -4.34    0.86
  -1   3   1    1.21    0.94
   1  -3  -1    0.72    0.61
  -1  -3   1    2.24    0.92
   1   3  -1    3.03    1.23
   1  -3  -1    0.60    1.02
  -1   3   0 1506.80   34.20
   1  -3   0 1479.88   34.14
  -1   3   0 1528.59   34.30
   1  -3   0 1549.38   34.27
  -1   3   0 1505.61   33.52
  -1  -3   0 1622.43   34.72
   1   3   0 1707.31   34.76
   1  -3   0 1442.52   34.27
   1  -3   1   48.84    2.75
  -1   3  -1   49.72    2.73
   1  -3   1   38.01    1.83
  -1   3  -1   32.50    1.68
   1   3   1   55.87    2.88
  -1  -3  -1   51.44    2.64
   1  -3   1   42.23    2.16
   1  -3   1   40.21    1.86
  -1   3  -1   46.49    2.24
   1  -3   2  223.24    7.53
  -1   3  -2  239.29    7.49
   1   3   2  228.30    7.31
   1   3   2  247.10    7.35
  -1  -3  -2  241.84    7.18
   1  -3   2  232.41    6.94
   1  -3   3   12.04    2.20
  -1   3  -3   11.68    1.94
   1   3   3   14.22    2.13
  -1  -3  -3   13.42    1.74
   1   3   3   18.59    1.98
  -1  -3  -3   19.03    2.16
  -1   3  -4  149.19    6.41
   1  -3   4  149.60    6.63
  -1  -3  -4  168.23    6.28
   1   3   4  168.60    6.38
   1   3   4  150.72    6.18
  -1  -3  -4  156.29    6.16
  -1   3  -5    4.36    1.67
   1  -3   5    1.76    1.75
  -1   3  -5    9.28    0.87
  -1  -3  -5    6.25    1.70
   1   3   5    4.31    1.50
  -1  -3  -5    1.24    1.08
   1   3   5    1.13    1.46
   1   3   5    4.23    1.54
   1  -3   6   11.91    2.33
  -1   3  -6   10.89    2.15
  -1  -3  -6   13.74    2.18
   1   3   6   10.84    1.83
   1   3   6   10.84    2.11
  -1   3  -6   13.31    1.18
  -1  -3  -6   10.13    1.89
   1   3   6   12.19    2.02
  -1   3  -7   79.16    5.15
   1   3   7   88.62    4.95
   1  -3   7   90.00    5.56
   1   3   7   86.94    4.89
  -1   3  -7   89.17    3.54
  -1  -3  -7   81.72    4.84
  -1  -3  -7   88.76    5.28
   1   3   7   86.54    4.96
   1   3   8    2.93    1.37
   1  -3   8    5.21    2.02
  -1   3  -8    4.82    1.03
  -1   3  -8    4.34    1.60
   1   3   8    4.55    1.32
  -1  -3  -8    4.27    1.58
  -1  -3  -8    2.46    1.34
   1   3   8    2.94    1.37
   1   3   9    7.92    1.94
   1  -3   9    7.76    2.18
   1   3   9    7.60    1.82
  -1   3  -9    8.96    2.10
  -1   3  -9    7.62    1.23
  -1  -3  -9    7.83    1.90
  -1  -3  -9    6.88    1.66
   1   3   9    8.99    2.07
   1   3  10   21.42    3.00
   1  -3  10   25.78    3.68
  -1  -3 -10   25.30    3.46
  -1  -3 -10   25.46    3.21
   1   3  10   17.45    2.74
  -1   3 -10   21.90    2.27
  -1   3 -10   23.87    3.39
  -1  -3 -11   91.76    6.06
  -1   3 -11   96.44    4.91
   1   3  11   96.86    6.16
   1   3  11  108.32    6.70
   1  -3  11   94.87    6.94
   1   3  12   24.59    3.46
  -1  -3 -12   29.47    3.80
  -1   3 -12   27.00    2.71
   1  -3  12   23.10    3.75
   1   3  12   35.42    4.28
  -1   3 -13    6.46    1.58
   1   3  13    3.25    1.71
  -1  -3 -13    4.60    1.74
   1  -3  13    4.14    2.36
   1   3  13    8.90    2.40
  -1  -3 -14   44.22    4.64
  -1   3 -14   41.81    3.59
   1  -3  14   42.70    5.24
   1   3  14   50.71    5.09
  -1  -3 -15    7.24    2.04
   1   3  15    5.94    2.08
   1  -3  15    6.50    2.58
  -1  -3 -16   80.16    6.56
   1  -3  16   68.73    7.00
   1   3  16   78.60    6.82
   1  -3  17    6.13    2.88
   1  -3  18  170.65   11.97
   1  -4 -17  136.10    9.96
  -1  -4  17  118.39    9.13
   1  -4 -16    9.91    3.02
  -1  -4  16   13.22    3.37
  -1  -4  16   13.01    4.24
   1   4 -15  385.08   14.98
   1  -4 -15  391.62   17.18
  -1  -4  15  334.69   15.76
  -1  -4  15  411.84   18.93
   1  -4 -14   -0.77    1.80
   1   4 -14    1.33    1.72
  -1   4  14    1.93    1.58
  -1  -4  14    3.63    2.34
   1   4 -14    3.05    1.78
  -1  -4  14    5.09    3.11
   1  -4 -13  580.45   20.73
   1   4 -13  586.27   18.78
  -1   4  13  547.60   17.23
  -1  -4  13  520.50   19.35
  -1  -4  13  597.72   22.30
   1   4 -13  559.08   18.40
  -1   4  12   60.55    4.33
  -1  -4  12   55.71    5.24
   1   4 -12   54.47    5.15
   1  -4 -12   58.25    5.64
   1   4 -12   56.71    4.79
   1  -4 -12   51.99    4.82
   1   4 -12   58.45    4.82
  -1   4  11  344.12   11.61
   1   4 -11  351.33   13.73
  -1  -4  11  323.44   13.33
   1   4 -11  377.12   13.15
   1  -4 -11  355.35   14.44
   1  -4 -11  350.49   13.30
   1  -4 -11  355.87   14.29
   1   4 -11  355.93   12.89
  -1  -4  10  319.81   12.57
  -1   4  10  319.65   10.50
   1   4 -10  305.92   12.33
   1  -4 -10  329.30   13.26
  -1   4  10  325.48   13.14
   1   4 -10  331.40   11.79
   1  -4 -10  294.73   11.69
   1  -4 -10  319.90   13.00
  -1  -4   9  132.61    7.18
   1   4  -9  135.28    7.20
  -1   4   9  139.14    5.80
   1   4  -9  136.10    6.68
   1  -4  -9  132.16    7.72
  -1   4   9  131.62    7.51
   1  -4  -9  122.57    6.49
   1  -4  -9  136.38    7.63
  -1  -4   9  142.28    8.28
   1  -4  -8  212.97    9.55
   1   4  -8  211.78    8.27
  -1   4   8  224.27    9.75
  -1  -4   8  211.26    9.02
  -1   4   8  203.35    6.95
   1   4  -8  213.45    9.07
  -1  -4   8  209.05    9.63
   1  -4  -8  214.70    9.45
  -1   4   7   14.76    2.45
   1  -4  -7   14.47    2.65
  -1  -4   7   19.28    2.75
  -1   4   7   16.49    1.61
   1   4  -7   17.28    2.44
  -1  -4   7   13.65    2.92
   1  -4  -7   17.19    2.54
  -1   4   6 1096.70   27.85
   1  -4  -6 1093.71   27.82
  -1  -4   6 1015.02   26.89
   1   4  -6 1048.88   27.02
  -1   4   6  997.71   23.83
   1  -4  -6 1077.37   27.66
  -1  -4   6 1112.65   27.72
  -1   4   5   18.78    2.44
   1  -4  -5   21.47    2.92
  -1   4   5   19.38    1.17
  -1  -4   5   21.51    2.55
   1   4  -5   24.16    2.59
  -1  -4   5   16.62    2.77
   1  -4  -5   19.62    2.57
   1  -4  -4 1016.12   26.56
  -1   4   4 1021.86   26.35
   1   4  -4 1084.55   26.11
  -1  -4   4 1074.53   25.98
  -1  -4   4 1045.59   26.02
   1  -4  -4  981.05   26.22
   1   4  -3  187.27    6.50
  -1  -4   3  201.11    6.65
   1  -4  -3  156.74    6.52
  -1   4   3  156.18    6.38
   1  -4  -3  148.87    6.20
   1   4  -3  161.22    6.09
  -1  -4   3  164.75    6.15
  -1   4   2  535.33   15.19
   1  -4  -2  526.94   15.27
   1   4  -2  640.25   15.44
   1  -4  -2  522.82   15.14
   1   4  -2  653.95   15.45
   1   4  -2  583.84   15.01
  -1   4   1  416.20   11.52
   1  -4  -1  398.09   11.53
  -1   4   1  385.51   10.18
   1  -4  -1  396.70   10.19
  -1  -4   1  470.71   11.55
   1   4  -1  495.13   11.66
  -1   4   1  423.78   11.68
   1   4  -1  459.41   11.66
   1  -4  -1  408.26   11.40
   1  -4   0  214.53    6.86
  -1   4   0  231.23    6.85
  -1   4   0  218.21    6.92
   1  -4   0  222.09    7.08
  -1  -4   0  280.54    7.53
  -1   4   0  232.07    7.06
   1  -4   0  211.98    6.86
  -1   4  -1 3158.00   69.65
   1  -4   1 3216.24   69.70
  -1   4  -1 3194.61   68.54
   1  -4   1 3172.16   68.56
   1   4   1 3185.43   69.46
  -1  -4  -1 3156.28   69.50
  -1   4  -1 3110.92   68.90
   1  -4   1 3109.72   68.50
  -1   4  -1 3139.93   68.58
   1  -4   2   29.55    2.80
  -1   4  -2   24.38    2.36
   1   4   2   35.67    2.72
  -1   4  -2   25.16    1.29
   1  -4   2   29.68    1.40
   1   4   2   28.28    2.34
  -1  -4  -2   26.23    2.21
   1  -4   2   20.73    1.99
   1  -4   3 2225.40   52.26
  -1   4  -3 2212.07   52.23
  -1  -4  -3 2339.52   51.93
   1   4   3 2250.55   51.91
   1   4   3 2325.91   51.56
  -1  -4  -3 2283.70   51.43
   1  -4   3 2262.21   51.49
  -1   4  -4   94.08    5.19
   1  -4   4   87.30    5.25
   1   4   4   98.65    4.93
  -1  -4  -4  112.33    5.14
   1   4   4   95.18    4.76
  -1  -4  -4   93.05    4.63
  -1   4  -5 1278.56   33.12
   1  -4   5 1276.08   33.22
  -1  -4  -5 1340.79   32.59
   1   4   5 1376.06   32.90
  -1  -4  -5 1246.08   32.28
   1   4   5 1355.24   32.57
   1   4   5 1407.26   32.66
  -1   4  -6  244.88    9.70
   1  -4   6  242.78    9.87
  -1  -4  -6  250.27    9.23
   1   4   6  262.29    9.41
  -1   4  -6  252.02    6.43
  -1  -4  -6  235.24    9.14
   1   4   6  262.13    9.32
   1   4   7  198.44    8.11
  -1   4  -7  192.01    8.74
   1  -4   7  201.32    9.02
  -1  -4  -7  214.10    8.58
  -1   4  -7  196.47    5.85
   1   4   7  202.23    8.36
  -1  -4  -7  189.92    8.30
   1   4   7  208.44    8.56
   1   4   8  211.11    8.40
   1  -4   8  206.96    9.42
  -1   4  -8  207.60    9.32
  -1   4  -8  194.18    6.23
   1   4   8  207.52    8.68
  -1  -4  -8  192.76    8.58
  -1  -4  -8  203.73    8.94
   1   4   8  210.20    8.75
   1   4   9   48.23    4.11
  -1   4  -9   41.63    4.37
   1  -4   9   51.32    4.98
   1   4   9   46.31    4.18
  -1  -4  -9   53.92    4.61
  -1   4  -9   50.97    2.90
  -1  -4  -9   55.07    4.73
   1   4   9   54.05    4.58
  -1   4 -10  374.72   14.12
   1  -4  10  335.53   13.78
   1   4  10  350.00   12.59
  -1  -4 -10  305.81   12.45
  -1   4 -10  324.93    9.95
   1   4  10  330.22   12.70
  -1  -4 -10  341.18   13.42
   1   4  10  335.00   12.74
  -1   4 -11   30.11    2.68
   1   4  11   23.45    3.41
  -1  -4 -11   27.03    3.71
   1  -4  11   29.25    4.32
   1   4  11   31.03    4.05
   1   4  12  638.93   21.30
  -1   4 -12  667.29   18.18
  -1  -4 -12  650.20   21.42
   1  -4  12  684.57   23.31
   1   4  12  700.03   21.49
  -1  -4 -13   57.42    5.34
  -1   4 -13   49.97    3.54
   1   4  13   46.23    4.84
   1  -4  13   52.53    5.75
   1   4  13   58.51    5.39
  -1  -4 -14   35.77    4.44
   1  -4  14   31.12    4.75
   1   4  14   37.50    4.44
  -1  -4 -15   97.95    7.38
   1  -4  15  105.97    8.57
   1   4  15  107.02    7.56
  -1  -4 -16   28.11    4.16
   1   4  16   28.09    4.17
   1  -4  16   27.60    4.84
   1  -4  17  248.53   14.44
   1  -5 -18   -3.41    2.81
   1  -5 -17  102.34    8.82
  -1  -5  17   92.56    8.22
   1  -5 -16    3.10    2.48
  -1  -5  16    2.17    2.21
  -1  -5  16    2.16    2.75
   1  -5 -15   11.50    3.26
   1   5 -15    9.51    2.60
  -1  -5  15    9.34    2.95
  -1  -5  15   21.71    5.01
   1   5 -14    1.91    1.76
   1  -5 -14    1.11    2.00
  -1  -5  14    0.14    1.93
  -1   5  14    0.98    1.18
  -1  -5  14    1.69    2.87
   1  -5 -13   20.14    3.58
   1   5 -13   21.92    3.27
  -1   5  13   24.39    2.92
  -1  -5  13   22.71    3.72
   1   5 -13   20.52    3.11
  -1  -5  13   25.91    4.92
  -1  -5  12   86.85    6.62
  -1   5  12   99.27    5.30
   1   5 -12   99.68    6.07
   1  -5 -12   98.29    7.33
   1  -5 -12  102.46    6.60
   1   5 -12  105.82    6.31
  -1  -5  12  103.71    7.83
  -1  -5  11  423.75   15.85
   1   5 -11  417.05   15.88
  -1   5  11  436.44   13.10
   1   5 -11  441.44   14.72
   1  -5 -11  421.06   16.57
   1  -5 -11  373.47   14.43
  -1  -5  11  433.50   17.14
  -1   5  10   88.91    4.46
   1   5 -10   86.75    6.04
  -1  -5  10   90.21    6.20
   1  -5 -10   91.36    6.57
   1   5 -10   88.94    5.35
  -1   5  10   93.14    6.50
   1  -5 -10   83.32    5.41
  -1  -5  10   94.40    7.03
   1  -5 -10   87.50    6.30
  -1   5   9 1134.16   27.65
  -1  -5   9 1109.51   31.14
   1   5  -9 1158.73   31.42
  -1   5   9 1174.07   32.21
   1  -5  -9 1196.61   32.40
   1   5  -9 1197.75   29.85
   1  -5  -9 1087.02   29.70
  -1  -5   9 1159.89   32.28
   1  -5  -9 1177.89   32.09
  -1  -5   8    7.78    1.94
   1   5  -8    9.02    2.00
  -1   5   8    8.43    1.20
   1  -5  -8    6.54    2.18
  -1   5   8    9.73    2.35
   1  -5  -8    5.90    1.43
  -1  -5   8    6.89    2.19
   1  -5  -8    6.48    1.86
  -1   5   7 1287.79   30.26
  -1  -5   7 1287.71   34.03
   1   5  -7 1374.67   34.42
   1  -5  -7 1343.00   34.93
  -1   5   7 1384.53   34.97
   1  -5  -7 1333.72   32.24
   1  -5  -7 1363.67   34.82
  -1  -5   7 1402.77   34.96
  -1  -5   6    0.88    1.33
   1   5  -6    1.59    1.32
  -1   5   6    0.65    0.59
   1  -5  -6    1.43    1.71
  -1   5   6    2.90    1.47
   1  -5  -6    0.98    0.96
  -1  -5   6   -1.23    1.86
   1  -5  -6    0.53    1.24
  -1  -5   5 6071.84  138.49
   1   5  -5 6313.17  138.73
  -1   5   5 6206.51  139.04
   1  -5  -5 6396.33  139.16
   1  -5  -5 6290.12  135.99
  -1  -5   5 6442.31  138.75
   1  -5  -5 6322.71  139.18
   1   5  -4  123.08    5.52
  -1  -5   4  110.65    5.31
  -1   5   4   93.27    5.26
   1  -5  -4   87.30    5.43
   1  -5  -4   80.32    3.14
   1   5  -4  101.41    5.02
   1  -5  -4   81.25    4.85
  -1  -5   4   79.33    4.92
  -1  -5   3 1724.70   37.71
   1   5  -3 1731.55   37.76
  -1   5   3 1605.72   37.76
   1  -5  -3 1618.19   37.89
   1  -5  -3 1486.14   34.35
  -1   5   3 1669.18   38.13
   1   5  -3 1653.74   37.39
   1  -5  -3 1535.26   37.74
  -1   5   2  163.65    6.50
   1  -5  -2  145.60    6.44
  -1   5   2  154.11    4.52
   1   5  -2  185.34    6.69
   1  -5  -2  177.95    4.57
   1  -5  -2  155.97    6.39
   1   5  -2  173.15    6.26
   1   5  -2  195.80    6.67
  -1   5   2  157.48    6.73
   1  -5  -1  459.20   12.08
   1   5  -1  536.14   13.60
  -1   5   1  454.52   12.02
  -1   5   1  457.09   13.32
   1  -5  -1  450.37   13.36
  -1  -5   1  556.88   13.48
   1  -5  -1  445.25   13.03
  -1   5   1  529.04   13.65
  -1   5   0  656.76   16.79
   1  -5   0  694.71   16.94
   1  -5   0  703.78   17.15
  -1   5   0  651.51   16.97
  -1  -5   0  699.55   17.28
   1   5   0  764.75   17.38
  -1   5   0  685.87   17.06
   1  -5   0  667.36   16.92
  -1   5  -1  203.09    6.66
   1  -5   1  168.24    6.52
  -1   5  -1  165.86    5.84
   1  -5   1  181.69    5.94
  -1  -5  -1  176.55    6.27
   1   5   1  229.09    6.86
  -1   5  -1  205.40    6.20
  -1   5  -1  185.21    5.90
   1  -5   2   30.02    2.68
  -1   5  -2   27.39    2.34
  -1   5  -2   27.48    1.59
   1   5   2   27.75    2.50
   1  -5   2   28.31    1.53
  -1  -5  -2   30.89    2.27
   1   5   2   27.59    2.20
  -1   5  -2   29.09    1.55
   1  -5   2   27.59    2.15
  -1   5  -2   29.62    2.13
  -1   5  -3   56.24    3.73
   1  -5   3   57.46    4.20
   1   5   3   76.08    4.31
  -1  -5  -3   46.62    3.16
   1   5   3   63.01    3.79
   1  -5   3   56.68    3.53
   1  -5   4    6.12    2.10
  -1   5  -4    4.54    1.77
   1   5   4   10.75    2.10
  -1  -5  -4    8.36    2.01
  -1  -5  -4    3.20    1.27
   1   5   4    5.60    1.67
   1  -5   4    2.05    1.49
  -1   5  -5 1205.38   31.52
   1  -5   5 1165.90   31.32
   1   5   5 1258.74   31.19
  -1  -5  -5 1234.38   30.87
  -1  -5  -5 1153.27   30.25
   1   5   5 1271.76   30.42
   1   5   5 1337.17   31.14
   1  -5   5 1174.54   30.70
  -1   5  -6   23.43    2.88
   1  -5   6   21.41    3.08
   1   5   6   18.19    2.34
  -1  -5  -6   20.43    2.62
  -1  -5  -6   15.28    2.21
   1   5   6   15.60    2.34
   1   5   6   21.67    2.77
  -1   5  -7  556.52   17.75
   1  -5   7  573.97   18.07
  -1  -5  -7  563.88   17.14
   1   5   7  586.51   17.25
  -1   5  -7  549.30   13.14
  -1  -5  -7  578.79   17.04
   1   5   7  595.97   17.31
  -1   5  -7  540.97   13.01
   1  -5   8   11.20    2.87
  -1   5  -8    8.09    2.19
  -1  -5  -8    7.53    2.05
  -1   5  -8    6.43    0.90
   1   5   8    5.64    1.62
   1   5   8    7.76    1.89
  -1  -5  -8    9.81    2.14
   1   5   8    8.34    2.02
  -1   5  -9 1905.43   47.69
   1   5   9 1938.49   45.55
   1  -5   9 1833.49   47.65
   1   5   9 1922.26   46.64
  -1  -5  -9 1748.08   46.23
  -1   5  -9 1804.78   41.87
  -1  -5  -9 1923.18   46.82
   1   5   9 1928.70   46.65
   1  -5  10   33.60    4.28
   1   5  10   33.28    3.71
  -1   5 -10   34.17    2.39
  -1   5 -10   32.37    4.00
   1   5  10   26.73    3.37
  -1  -5 -10   35.80    4.04
  -1  -5 -10   32.36    3.77
   1   5  10   30.66    3.81
   1   5  11 2096.74   52.00
  -1   5 -11 2019.70   46.72
  -1  -5 -11 1957.31   51.39
   1  -5  11 2053.84   53.44
   1   5  11 2136.55   51.07
   1   5  12   51.65    5.10
  -1  -5 -12   47.97    5.00
  -1   5 -12   53.50    3.31
   1   5  12   53.88    4.81
   1  -5  12   53.97    5.73
  -1  -5 -13  565.69   20.48
  -1   5 -13  595.47   16.51
   1   5  13  657.24   20.63
   1  -5  13  617.06   22.59
  -1  -5 -14    0.91    1.58
   1  -5  14   -0.96    2.09
   1   5  14    5.14    2.17
  -1  -5 -15   98.75    7.66
   1  -5  15  126.44    9.61
   1   5  15  117.03    7.82
   1  -5  15  119.59   10.15
  -1  -5 -16   57.08    5.89
   1  -5  16   76.21    7.61
   1   5  16   65.94    5.91
   1  -5  17   30.08    5.12
   1  -6 -17  111.00    9.33
  -1  -6  17  110.82    9.23
   1  -6 -16    0.40    1.96
  -1  -6  16    1.77    2.08
  -1  -6  16   -0.91    2.53
   1   6 -15  307.08   12.47
   1  -6 -15  297.75   15.21
  -1  -6  15  257.35   13.88
  -1  -6  15  295.59   16.06
   1  -6 -14   -0.80    2.02
   1   6 -14    3.89    1.74
  -1  -6  14    2.36    2.06
  -1   6  14    2.17    1.21
  -1  -6  14    0.39    2.59
   1   6 -13  688.48   20.49
   1  -6 -13  677.43   23.62
  -1  -6  13  584.98   21.99
  -1   6  13  623.34   18.38
   1   6 -13  670.42   20.40
  -1  -6  13  687.23   24.57
  -1  -6  12   25.85    3.91
  -1   6  12   26.00    2.61
   1  -6 -12   26.93    4.27
   1   6 -12   26.44    3.29
   1  -6 -12   21.34    3.11
  -1  -6  12   30.94    4.63
  -1  -6  11  564.64   20.09
  -1   6  11  588.97   16.65
   1   6 -11  636.68   18.65
   1  -6 -11  608.30   21.25
   1  -6 -11  600.72   18.92
  -1  -6  11  648.87   22.13
  -1   6  10   32.60    2.50
   1   6 -10   38.23    4.14
  -1  -6  10   32.09    4.03
   1  -6 -10   33.93    4.23
  -1   6  10   38.48    4.33
   1   6 -10   34.90    3.41
   1  -6 -10   32.44    3.31
   1  -6 -10   30.27    3.74
  -1  -6  10   37.17    4.66
   1   6  -9  135.33    7.70
  -1  -6   9  133.61    7.73
  -1   6   9  136.15    5.16
   1   6  -9  136.72    6.67
  -1   6   9  136.47    8.15
   1  -6  -9  131.12    8.09
   1  -6  -9  120.76    6.23
   1  -6  -9  148.15    8.29
  -1  -6   9  137.98    8.37
  -1   6   8    3.74    0.88
  -1  -6   8    5.30    1.81
   1   6  -8    2.88    1.27
  -1   6   8    3.55    1.70
   1  -6  -8    1.46    1.64
   1  -6  -8    3.63    1.14
   1  -6  -8    1.82    1.33
  -1  -6   8    1.58    1.83
  -1  -6   7   17.74    2.78
   1   6  -7   19.49    2.72
  -1   6   7   16.71    1.35
   1  -6  -7   19.73    3.09
  -1   6   7   14.25    2.64
   1  -6  -7   15.50    1.81
  -1  -6   7   17.00    3.08
   1  -6  -7   14.49    2.64
   1   6  -6    1.44    1.15
  -1  -6   6   -0.78    1.33
  -1   6   6    1.25    0.51
   1  -6  -6    1.16    1.60
  -1   6   6    0.49    1.19
   1  -6  -6    0.99    0.74
   1  -6  -6    1.05    1.29
  -1  -6   6   -1.70    1.90
   1   6  -5  220.72    8.57
  -1  -6   5  205.10    8.24
  -1   6   5  185.70    8.10
   1  -6  -5  193.86    8.46
   1  -6  -5  155.64    5.54
  -1  -6   5  184.75    8.19
   1  -6  -5  180.35    8.34
   1   6  -4  450.65   13.81
  -1  -6   4  457.32   13.81
   1  -6  -4  448.02   14.09
  -1   6   4  432.96   13.81
   1  -6  -4  440.36   10.87
  -1   6   4  453.06   14.10
   1   6  -4  444.40   13.57
   1  -6  -4  421.75   13.82
   1   6  -3  295.19    9.26
  -1   6   3  247.73    6.08
  -1  -6   3  273.43    9.09
  -1   6   3  261.12    9.08
   1  -6  -3  241.81    9.13
   1  -6  -3  245.61    8.94
  -1   6   3  262.67    9.38
   1   6  -3  269.64    8.76
   1  -6  -2    4.33    1.55
  -1   6   2    2.09    1.32
   1   6  -2    6.15    1.46
  -1   6   2    4.03    0.77
   1  -6  -2    4.03    0.75
  -1   6   2    3.63    1.77
   1  -6  -2    1.62    1.16
   1   6  -2    4.88    1.64
   1  -6  -1  600.11   15.32
  -1   6   1  592.70   15.31
   1   6  -1  666.76   16.93
  -1   6   1  611.19   16.66
   1  -6  -1  617.08   16.70
   1   6  -1  687.13   16.57
  -1   6   1  640.60   16.74
  -1  -6   1  657.77   16.52
   1  -6  -1  594.50   16.36
  -1   6   1  629.02   14.15
   1  -6   0    1.52    1.16
  -1   6   0   -1.04    1.22
   1  -6   0    1.56    1.25
  -1   6   0   -0.23    0.84
  -1  -6   0   -1.32    1.00
  -1   6   0   -1.85    1.55
   1  -6   0    2.82    1.11
   1   6   0    1.86    1.35
   1  -6   1 1356.19   31.29
  -1   6  -1 1291.42   31.11
  -1   6  -1 1226.32   30.23
   1   6   1 1379.97   31.97
   1  -6   1 1323.81   30.35
  -1  -6  -1 1325.69   30.82
   1   6   1 1394.33   30.99
  -1   6  -1 1272.82   30.23
   1  -6   2   -1.48    1.41
  -1   6  -2    0.64    1.05
  -1   6  -2    0.65    0.79
   1   6   2    0.15    1.26
   1  -6   2    0.56    0.69
  -1  -6  -2    0.26    0.91
   1   6   2    0.69    1.15
  -1   6  -2    0.38    0.80
  -1   6  -2    0.08    0.91
   1  -6   3 1404.59   33.74
  -1   6  -3 1376.09   33.59
   1   6   3 1447.48   33.86
  -1   6  -3 1312.54   30.45
   1   6   3 1456.46   32.74
  -1  -6  -3 1405.13   32.64
  -1   6  -3 1327.72   30.40
  -1   6  -3 1384.71   32.75
   1  -6   3 1424.24   32.89
   1  -6   4  188.47    8.27
  -1   6  -4  205.87    8.33
   1   6   4  219.04    8.39
  -1  -6  -4  240.55    8.67
  -1   6  -4  196.35    5.10
  -1  -6  -4  173.69    7.07
   1   6   4  208.07    7.61
  -1   6  -4  195.49    5.04
   1  -6   4  186.78    7.74
  -1   6  -5 1427.17   36.29
   1  -6   5 1443.62   36.39
  -1  -6  -5 1463.37   35.97
   1   6   5 1456.73   36.20
  -1  -6  -5 1366.18   34.74
   1   6   5 1447.83   34.95
   1   6   5 1503.90   36.12
   1  -6   5 1426.54   35.71
   1  -6   6   21.45    3.18
  -1   6  -6   23.78    3.01
   1   6   6   27.56    2.85
  -1  -6  -6   23.56    2.87
   1   6   6   21.52    2.59
  -1  -6  -6   19.66    2.36
   1   6   6   22.06    2.75
   1  -6   6   17.53    2.77
  -1   6  -7  234.88   10.21
   1  -6   7  221.07    9.98
   1   6   7  241.62    9.70
  -1  -6  -7  242.35    9.75
  -1  -6  -7  203.45    8.87
  -1   6  -7  211.46    5.56
   1  -6   7  235.77   10.02
   1   6   7  238.74    9.68
   1  -6   8   10.73    2.49
  -1   6  -8   13.60    2.42
   1   6   8   13.53    2.18
  -1   6  -8   10.07    0.94
  -1  -6  -8    7.87    2.03
   1   6   8   11.73    2.34
  -1  -6  -8   14.44    2.35
   1  -6   8   12.93    2.75
  -1   6  -8   13.41    0.98
   1   6   8   13.08    2.39
   1  -6   9    7.74    2.54
  -1   6  -9    5.06    1.94
   1   6   9    5.74    1.66
  -1  -6  -9    4.29    1.87
  -1   6  -9    6.82    1.02
   1   6   9    9.77    2.37
  -1  -6  -9    6.72    1.82
   1  -6   9   11.37    3.12
   1   6   9    6.96    2.20
   1  -6  10   39.87    4.57
   1   6  10   29.55    3.22
   1   6  10   33.64    3.75
  -1  -6 -10   33.75    3.94
  -1   6 -10   34.83    2.07
  -1  -6 -10   37.30    4.05
   1  -6  10   42.40    4.96
   1   6  10   39.86    4.25
  -1   6 -11   32.33    2.23
  -1  -6 -11   27.34    3.96
   1   6  11   25.74    3.73
   1  -6  11   28.83    4.32
   1   6  11   33.14    3.81
   1  -6  11   35.27    5.26
   1   6  11   24.99    3.92
  -1   6 -12    7.99    1.25
  -1  -6 -12   10.20    2.60
   1   6  12   10.05    2.51
   1  -6  12    5.38    2.02
   1  -6  12   11.30    3.66
  -1  -6 -13  236.49   11.95
  -1   6 -13  240.43    7.94
   1  -6  13  248.45   13.32
   1   6  13  271.24   11.59
   1  -6  13  278.34   14.52
  -1  -6 -14    7.92    2.61
   1  -6  14    1.93    2.17
   1   6  14    1.77    1.44
   1  -6  14    3.30    2.98
  -1  -6 -15  147.12    9.61
   1  -6  15  146.78   10.51
   1   6  15  151.20    8.95
   1  -6  15  173.59   11.91
  -1  -6 -16    4.75    2.61
   1  -6  16    9.33    3.25
   1  -6  17  348.35   17.86
   1  -7 -17   11.14    3.35
  -1  -7  17   14.88    3.60
   1  -7 -16   72.42    7.41
  -1  -7  16   64.70    7.06
   1  -7 -15   -0.44    2.39
  -1  -7  15    2.13    2.20
  -1  -7  15    7.05    3.34
   1   7 -14   34.03    3.69
   1  -7 -14   34.93    4.97
  -1  -7  14   33.14    4.60
  -1  -7  14   30.70    4.97
  -1  -7  13   -1.06    1.98
  -1   7  13    1.44    1.09
   1  -7 -13   -1.98    2.33
   1   7 -13    0.33    1.32
   1  -7 -13   -0.48    1.55
   1   7 -13    1.01    1.32
  -1  -7  13    0.01    2.34
  -1  -7  12  220.56   11.52
  -1   7  12  221.30    8.14
   1   7 -12  245.49    9.95
   1  -7 -12  225.74   11.96
   1  -7 -12  226.59   10.26
  -1  -7  12  254.04   12.97
  -1  -7  11    8.97    2.58
  -1   7  11    5.90    1.38
   1   7 -11    8.50    1.94
   1  -7 -11    4.40    2.16
   1  -7 -11    2.80    1.34
  -1  -7  11    3.09    2.48
  -1   7  10    2.44    0.93
   1   7 -10    0.76    1.20
  -1  -7  10    1.88    1.89
   1  -7 -10    0.44    1.75
   1   7 -10    2.55    1.43
   1  -7 -10    0.02    1.18
  -1  -7  10    0.48    1.98
  -1  -7   9   78.45    5.88
   1   7  -9   91.79    6.25
  -1   7   9   84.26    3.64
  -1   7   9   83.75    6.38
   1  -7  -9   84.60    6.40
   1  -7  -9   79.27    4.80
   1  -7  -9   87.85    6.29
  -1  -7   9   82.55    6.34
   1   7  -8    0.22    1.19
  -1  -7   8   -1.71    1.71
  -1   7   8    1.93    0.70
  -1   7   8    0.77    1.28
   1  -7  -8    0.80    1.71
   1  -7  -8    1.59    0.99
   1  -7  -8    1.51    1.27
  -1  -7   8    1.44    1.80
  -1   7   7  453.91   11.24
  -1  -7   7  450.41   15.52
   1   7  -7  460.50   15.60
   1  -7  -7  482.94   16.36
  -1   7   7  469.15   16.28
   1  -7  -7  464.39   13.10
  -1  -7   7  459.05   15.73
   1  -7  -7  452.81   15.88
   1   7  -6    2.81    1.10
  -1   7   6    2.55    0.57
  -1  -7   6    3.46    1.71
  -1   7   6    4.03    1.59
   1  -7  -6    0.93    1.55
   1  -7  -6    0.97    0.65
  -1  -7   6    1.05    1.65
   1  -7  -6    2.57    1.31
   1   7  -5  877.93   24.26
  -1  -7   5  816.45   23.63
  -1   7   5  860.08   19.46
  -1   7   5  886.33   24.32
   1  -7  -5  905.12   24.52
   1  -7  -5  896.49   20.66
  -1  -7   5  877.95   23.86
  -1   7   5  909.21   24.54
   1   7  -5  852.13   23.78
   1  -7  -5  887.68   24.39
  -1   7   4  122.84    3.43
   1   7  -4  129.39    6.29
  -1  -7   4  116.30    6.04
  -1   7   4  120.14    6.19
   1  -7  -4  114.68    6.23
   1  -7  -4   88.67    3.39
   1  -7  -4  101.99    5.96
  -1   7   4  119.71    6.47
   1   7  -4  112.64    5.78
  -1   7   3  298.42    7.67
  -1  -7   3  314.01   10.52
   1   7  -3  314.85   10.56
   1  -7  -3  293.91   10.67
  -1   7   3  285.00   10.19
   1  -7  -3  279.92    7.06
   1  -7  -3  275.83   10.10
   1   7  -3  307.41   10.08
  -1   7   3  306.14   10.61
  -1   7   2   72.39    3.07
   1   7  -2   75.74    4.33
   1  -7  -2   68.03    4.44
  -1   7   2   75.26    4.38
  -1   7   2   66.94    2.17
   1  -7  -2   58.29    3.99
  -1   7   2   78.24    4.47
   1  -7  -2   72.52    2.92
   1   7  -2   78.61    4.28
   1  -7  -1   26.89    2.16
   1   7  -1   33.72    2.85
  -1   7   1   33.83    2.27
   1  -7  -1   32.78    2.91
  -1   7   1   35.58    3.08
  -1   7   1   36.80    1.64
   1   7  -1   39.32    3.02
  -1   7   1   35.91    3.14
   1  -7  -1   30.32    2.62
  -1   7   0   76.65    3.70
   1  -7   0   78.68    3.81
  -1   7   0   66.96    3.72
   1  -7   0   77.79    3.96
   1   7   0   82.13    3.94
  -1  -7   0   75.62    3.84
   1   7   0   76.67    4.05
  -1   7   0   70.86    3.72
   1  -7   1    4.50    1.41
  -1   7  -1    8.79    1.62
  -1   7  -1    6.38    1.34
   1   7   1    7.58    1.76
   1  -7   1    5.13    1.30
   1   7   1    4.68    1.43
  -1  -7  -1    5.86    1.29
  -1   7  -1    6.67    1.35
   1  -7   2  983.74   23.86
  -1   7  -2  921.57   23.52
  -1   7  -2  867.66   21.71
   1  -7   2  915.01   21.63
   1   7   2  937.57   23.96
   1   7   2  918.73   22.60
  -1  -7  -2  901.44   22.62
  -1   7  -2  878.67   21.64
  -1   7  -2  952.53   22.94
  -1   7  -3   46.36    3.66
   1  -7   3   38.60    3.51
  -1   7  -3   42.20    2.31
   1   7   3   49.52    3.76
  -1  -7  -3   36.66    2.95
   1   7   3   44.58    3.16
  -1   7  -3   39.24    3.09
  -1   7  -3   43.47    2.29
  -1   7  -4  331.28   11.51
   1  -7   4  330.30   11.68
  -1  -7  -4  343.13   11.61
  -1   7  -4  317.91    8.30
   1   7   4  344.86   11.71
  -1  -7  -4  318.58   10.31
   1   7   4  327.63   10.49
   1  -7   4  325.92   10.93
  -1   7  -4  320.18    8.24
  -1   7  -5   14.30    2.26
   1  -7   5   10.82    2.48
  -1  -7  -5   11.76    2.30
   1   7   5   13.99    2.43
  -1   7  -5   14.89    1.06
   1   7   5    9.08    1.88
  -1  -7  -5    7.95    1.60
   1  -7   5   10.06    2.11
   1   7   5   19.04    2.87
  -1   7  -6    6.79    1.86
   1  -7   6    5.82    2.00
  -1  -7  -6    6.02    1.80
   1   7   6    7.34    1.80
  -1  -7  -6    6.25    1.61
   1   7   6    7.23    1.76
   1   7   6    7.85    1.94
   1  -7   6    5.80    2.09
  -1   7  -7  161.04    8.40
   1  -7   7  141.29    8.10
  -1  -7  -7  160.02    7.98
   1   7   7  154.95    7.88
  -1  -7  -7  163.31    7.39
   1   7   7  166.26    7.43
   1  -7   7  158.92    8.15
   1   7   7  163.92    8.07
  -1   7  -8   10.95    2.54
   1  -7   8   12.59    2.73
  -1   7  -8   10.17    0.84
  -1  -7  -8   11.47    2.40
   1   7   8   15.84    2.57
  -1  -7  -8   14.83    2.46
   1  -7   8   15.41    3.32
   1   7   8   13.71    2.75
  -1   7  -8   11.59    0.83
   1   7   9  230.50    8.94
  -1   7  -9  216.80   10.59
   1  -7   9  215.43   10.67
  -1  -7  -9  203.13    9.90
   1   7   9  221.05   10.17
  -1   7  -9  200.61    5.70
  -1  -7  -9  238.28   10.02
   1   7   9  209.06    9.93
   1  -7   9  231.18   10.81
   1  -7  10    1.97    1.93
   1   7  10    1.19    1.43
  -1   7 -10    1.15    0.59
   1   7  10    0.77    1.35
  -1  -7 -10    1.77    1.66
  -1  -7 -10    0.82    1.11
   1   7  10   -1.36    1.94
   1  -7  10    1.73    2.31
  -1   7 -11  172.98    5.30
  -1  -7 -11  162.04    9.29
   1  -7  11  172.09   10.21
   1   7  11  183.30    8.66
   1   7  11  174.96    9.62
   1  -7  11  180.01   10.49
  -1  -7 -12   88.27    6.94
  -1   7 -12   85.74    3.42
   1  -7  12   93.63    7.68
   1   7  12   94.09    6.23
   1  -7  12  108.16    8.32
  -1  -7 -13   54.11    5.58
   1   7  13   61.94    5.26
   1  -7  13   57.07    6.29
   1  -7  13   56.90    6.63
  -1  -7 -14   22.92    3.81
   1   7  14   26.39    3.56
   1  -7  14   21.99    4.31
   1  -7  14   31.11    5.19
  -1  -7 -15   15.41    3.51
   1  -7  15   11.44    3.36
   1   7  15   18.81    3.14
   1  -7  15   20.61    4.92
  -1  -7 -16   20.65    3.99
   1  -7  16   12.00    3.43
   1  -8 -17   26.25    4.84
  -1  -8  17   20.40    4.00
   1  -8 -16   -1.36    2.11
  -1  -8  16    0.17    1.87
   1  -8 -15   47.41    5.94
  -1  -8  15   47.80    6.03
  -1  -8  15   62.45    7.39
   1  -8 -14    0.10    1.98
   1   8 -14    0.99    1.43
  -1  -8  14   -0.02    1.83
  -1  -8  14    1.54    2.61
   1  -8 -13  227.31   12.60
   1   8 -13  241.45    9.88
  -1  -8  13  201.12   11.49
  -1   8  13  206.24    7.71
  -1  -8  13  235.59   13.08
  -1   8  12    1.87    0.93
  -1  -8  12    2.38    2.00
   1  -8 -12    1.03    2.14
   1   8 -12    3.64    1.63
   1  -8 -12    4.06    1.53
  -1  -8  12    3.06    2.79
  -1   8  11  129.73    5.28
  -1  -8  11  126.29    8.36
   1  -8 -11  145.68    9.29
   1   8 -11  149.79    7.19
   1  -8 -11  128.18    6.98
  -1  -8  11  144.97    9.33
  -1   8  10   59.70    3.05
  -1  -8  10   58.36    5.39
   1   8 -10   64.57    4.50
   1  -8 -10   65.75    6.13
   1  -8 -10   57.14    4.23
  -1  -8  10   61.14    5.84
   1   8  -9   48.34    4.75
  -1  -8   9   42.32    4.53
  -1   8   9   45.29    2.42
  -1   8   9   45.83    4.79
   1  -8  -9   47.36    5.10
   1  -8  -9   46.56    3.53
   1  -8  -9   43.36    4.64
  -1  -8   9   45.80    4.85
  -1  -8   8    1.74    1.69
   1   8  -8    2.86    1.67
  -1   8   8    2.23    0.70
  -1   8   8   -0.18    1.56
   1  -8  -8    5.54    2.15
   1  -8  -8    2.23    0.83
   1  -8  -8    2.78    1.41
  -1  -8   8    0.68    1.91
  -1  -8   7    5.53    2.05
   1   8  -7    4.93    2.09
  -1   8   7    1.41    0.60
  -1   8   7    1.98    1.57
   1  -8  -7    1.34    1.87
   1  -8  -7    1.30    0.82
   1  -8  -7    1.89    1.65
  -1  -8   7   -0.65    1.96
  -1  -8   6   71.22    5.17
   1   8  -6   72.20    5.13
  -1   8   6   74.22    2.55
  -1   8   6   74.52    5.33
   1  -8  -6   72.55    5.42
   1  -8  -6   71.16    3.38
   1  -8  -6   67.24    5.07
  -1   8   6   72.28    2.54
  -1  -8   6   79.08    5.34
  -1   8   6   80.31    5.53
  -1   8   5    2.30    0.57
   1   8  -5    3.56    1.67
  -1  -8   5   -0.84    1.56
  -1   8   5    0.23    1.40
   1  -8  -5   -0.86    1.83
   1  -8  -5    1.40    0.62
   1   8  -5    4.83    1.68
  -1   8   5    2.73    1.86
   1  -8  -5    2.06    1.62
   1   8  -4   12.04    2.27
  -1   8   4   10.83    1.10
  -1  -8   4   14.76    2.49
  -1   8   4    8.29    2.01
   1  -8  -4    6.60    2.26
   1  -8  -4    7.19    0.89
   1  -8  -4    6.49    1.65
   1   8  -4    9.38    2.17
  -1   8   4    9.73    2.57
  -1  -8   3   19.18    2.73
  -1   8   3   15.26    1.43
   1   8  -3   11.09    2.08
  -1   8   3   10.23    2.23
   1  -8  -3   10.82    2.19
  -1   8   3   10.59    0.91
  -1   8   3    8.98    2.34
   1  -8  -3    9.99    2.06
   1   8  -3   16.78    2.25
   1   8  -3   13.56    2.39
   1  -8  -3    9.60    0.88
   1   8  -2   23.41    2.72
  -1   8   2   25.85    1.98
   1  -8  -2   23.52    2.93
  -1   8   2   23.26    2.67
  -1   8   2   28.70    1.44
   1  -8  -2   26.07    2.80
   1  -8  -2   25.55    1.91
   1   8  -2   29.77    2.83
  -1   8   2   28.33    3.05
   1   8  -1  165.10    6.94
   1  -8  -1  163.17    5.78
  -1   8   1  160.97    5.89
   1  -8  -1  154.68    6.80
  -1   8   1  152.29    6.70
   1   8  -1  171.97    6.55
  -1   8   1  162.93    4.79
  -1   8   1  172.37    7.02
   1  -8   0    4.67    1.47
  -1   8   0    4.00    1.03
   1   8   0    4.14    1.56
   1  -8   0    4.80    1.36
  -1   8   0    4.54    1.31
   1   8   0    3.41    1.21
  -1  -8   0    4.24    1.15
   1   8   0    5.87    1.52
  -1   8   0    3.80    1.24
   1  -8   1  282.88    9.33
  -1   8  -1  280.09    9.30
  -1   8  -1  261.53    8.70
   1  -8   1  276.55    8.73
   1   8   1  272.10    9.74
  -1  -8  -1  273.64    8.94
   1   8   1  294.67    9.05
  -1   8  -1  262.32    8.64
   1  -8   2    0.44    1.54
  -1   8  -2    1.29    1.23
   1   8   2    1.74    1.36
  -1   8  -2    1.14    0.96
   1   8   2   -1.00    1.14
  -1   8  -2   -0.47    0.99
  -1  -8  -2    0.41    0.92
  -1   8  -2    0.70    1.00
   1  -8   3  763.05   21.47
  -1   8  -3  780.76   21.23
  -1   8  -3  718.01   18.52
   1   8   3  847.21   21.93
   1   8   3  813.74   20.09
  -1  -8  -3  775.50   20.03
  -1   8  -3  714.26   18.36
  -1   8  -3  779.24   20.53
  -1   8  -4    9.53    2.00
   1  -8   4    6.99    2.11
  -1  -8  -4   10.56    2.46
   1   8   4   10.25    2.29
  -1   8  -4    8.15    1.12
  -1  -8  -4    5.01    1.33
   1   8   4    9.48    1.92
  -1   8  -4    9.40    1.99
  -1   8  -4   11.33    1.28
  -1   8  -5  203.61    9.01
   1  -8   5  196.81    9.05
  -1   8  -5  194.98    5.78
  -1  -8  -5  214.13    9.17
   1   8   5  223.48    9.44
  -1  -8  -5  203.84    7.93
   1   8   5  213.66    8.17
   1   8   5  225.02    9.31
   1  -8   5  207.67    8.69
   1  -8   6   -0.49    1.87
  -1   8  -6    0.97    1.48
  -1  -8  -6    2.12    1.59
  -1   8  -6    2.59    0.60
   1   8   6    4.41    1.81
  -1  -8  -6    1.20    1.16
   1   8   6    2.83    1.44
   1  -8   6    0.46    1.53
   1   8   6    3.91    2.21
   1  -8   7   29.73    3.73
  -1   8  -7   38.95    4.07
   1   8   7   37.39    3.94
  -1  -8  -7   35.07    3.92
   1   8   7   35.76    3.41
  -1  -8  -7   28.54    3.14
   1   8   7   36.44    4.04
   1  -8   7   29.11    3.66
  -1   8  -8   47.93    4.67
   1  -8   8   46.31    4.78
   1   8   8   43.72    4.22
  -1  -8  -8   32.57    3.71
  -1  -8  -8   39.02    3.68
   1   8   8   37.31    4.02
   1  -8   8   43.45    4.40
   1  -8   9   -1.78    2.35
   1   8   9    1.30    1.18
   1   8   9    3.36    1.89
  -1  -8  -9    1.50    1.76
  -1  -8  -9    1.86    1.52
   1   8   9    1.35    1.74
   1  -8   9    0.25    2.26
   1  -8  10  335.32   14.84
   1   8  10  345.31   12.48
  -1  -8 -10  323.85   13.92
  -1  -8 -10  364.54   13.79
   1   8  10  339.34   14.11
   1  -8  10  351.46   14.91
  -1  -8 -11   15.30    3.35
   1  -8  11   12.82    3.39
   1   8  11    9.03    2.21
   1   8  11   13.47    3.07
   1  -8  11   11.34    3.40
  -1  -8 -12   13.21    3.05
   1   8  12   17.08    2.83
   1  -8  12   12.09    3.11
   1   8  12   15.38    3.39
   1  -8  12   16.41    3.93
  -1  -8 -13  104.74    8.05
   1  -8  13  105.63    8.73
   1   8  13  115.49    7.10
   1  -8  13  123.97    9.47
  -1  -8 -14    7.94    2.76
   1   8  14    9.51    2.25
   1  -8  14    7.82    3.03
   1  -8  14   13.90    4.16
  -1  -8 -15   25.95    4.52
   1  -8  15   31.77    5.14
   1  -8  15   28.01    5.26
  -1  -8 -16    3.55    2.25
   1  -8  16    4.81    2.42
  -1  -8 -17    3.11    2.49
   1  -9 -16  192.53   12.81
  -1  -9  16  179.37   12.06
   1  -9 -15    6.48    3.40
  -1  -9  15    0.77    1.93
  -1  -9  15    1.28    2.81
   1  -9 -14  333.21   16.20
  -1  -9  14  301.50   15.43
  -1  -9  14  331.58   16.88
   1  -9 -13   11.68    3.32
   1   9 -13    8.24    1.86
  -1  -9  13    9.09    2.95
  -1  -9  13   12.30    3.45
  -1  -9  12  185.80   10.80
  -1   9  12  178.45    6.45
   1  -9 -12  193.24   11.42
   1   9 -12  200.62    8.68
   1  -9 -12  190.42    9.00
  -1  -9  12  200.20   11.58
  -1  -9  11   81.22    6.89
  -1   9  11   91.67    3.93
   1  -9 -11   98.26    7.92
   1   9 -11   99.23    5.83
   1  -9 -11   78.35    5.34
  -1  -9  11   96.20    7.86
  -1   9  10  103.05    4.13
  -1  -9  10  115.50    7.90
   1  -9 -10  112.62    8.32
   1  -9 -10  103.18    5.85
  -1  -9  10  113.59    8.14
  -1  -9   9   29.82    4.01
  -1   9   9   32.15    1.87
   1  -9  -9   32.41    4.23
   1  -9  -9   26.67    2.70
  -1  -9   9   30.55    4.19
  -1   9   8   74.28    2.89
  -1  -9   8   72.66    5.84
   1   9  -8   77.77    5.98
  -1   9   8   67.89    5.95
   1  -9  -8   69.37    6.13
   1  -9  -8   62.25    3.85
  -1  -9   8   72.45    5.99
   1  -9  -8   70.20    5.86
  -1  -9   7  888.21   26.90
   1   9  -7  968.59   27.63
  -1   9   7  961.45   21.41
  -1   9   7  957.05   27.84
   1  -9  -7  947.88   27.89
   1  -9  -7  920.22   23.16
  -1   9   7  932.28   27.58
   1  -9  -7  955.59   27.74
  -1   9   7  912.33   21.34
  -1  -9   7  958.86   27.21
  -1  -9   6    2.37    1.74
  -1   9   6    2.63    0.62
   1   9  -6    2.60    1.48
   1  -9  -6    3.87    1.91
  -1   9   6    4.77    1.78
   1  -9  -6    2.19    0.75
  -1   9   6    2.93    1.84
   1  -9  -6    2.52    1.58
  -1   9   5  537.33   13.34
   1   9  -5  577.24   18.00
  -1  -9   5  542.60   17.48
  -1   9   5  565.62   18.00
   1  -9  -5  576.33   18.15
   1  -9  -5  543.67   13.69
  -1   9   5  563.58   18.01
   1  -9  -5  580.40   18.13
   1   9  -5  581.98   17.57
  -1   9   4  107.78    3.83
   1   9  -4  101.10    6.18
  -1  -9   4  110.06    6.09
   1  -9  -4  102.78    6.39
  -1   9   4  102.25    6.06
   1  -9  -4   87.50    3.31
  -1   9   4  107.25    6.48
   1  -9  -4   91.74    6.21
   1   9  -4  104.22    5.95
  -1   9   3 1524.51   36.01
   1   9  -3 1633.46   39.58
  -1   9   3 1552.75   39.41
   1  -9  -3 1638.08   39.81
  -1   9   3 1570.38   34.86
   1   9  -3 1608.24   38.67
   1   9  -3 1598.80   39.08
  -1  -9   3 1599.95   39.19
  -1   9   3 1609.96   39.57
   1   9  -2  514.05   15.48
  -1   9   2  486.83   13.18
   1  -9  -2  480.74   15.24
  -1   9   2  481.17   15.24
  -1   9   2  484.49   11.82
   1   9  -2  497.65   14.60
  -1   9   2  510.78   15.44
   1   9  -1  170.12    7.39
   1  -9  -1  162.18    6.19
  -1   9   1  167.42    6.35
   1  -9  -1  171.50    7.45
  -1   9   1  156.51    7.17
  -1   9   1  170.11    5.22
   1   9  -1  185.00    7.09
  -1   9   1  182.87    7.52
   1  -9   0  937.89   23.68
   1   9   0  984.92   24.67
  -1   9   0  934.03   23.84
  -1   9   0  897.16   24.10
   1  -9   0  929.92   24.18
   1   9   0  890.06   24.77
   1   9   0  978.03   23.83
  -1   9   0  949.55   24.17
  -1  -9   0  929.08   23.88
   1  -9   1   28.55    2.89
  -1   9  -1   30.64    2.89
   1   9   1   29.52    3.16
  -1   9  -1   31.88    2.75
   1  -9   1   30.61    2.69
   1   9   1   37.02    2.97
  -1   9  -1   32.57    2.78
   1   9   1   31.26    2.83
  -1  -9  -1   30.30    2.66
  -1   9  -2  800.56   21.86
   1  -9   2  843.97   21.91
  -1   9  -2  766.86   20.16
   1   9   2  818.44   22.49
   1   9   2  815.68   20.64
  -1  -9  -2  813.67   20.79
  -1   9  -2  802.42   21.23
  -1   9  -2  741.11   19.98
  -1   9  -3  169.01    7.90
   1  -9   3  165.34    8.01
   1   9   3  190.12    8.46
  -1   9  -3  169.19    6.22
  -1  -9  -3  149.57    6.62
   1   9   3  182.53    7.12
  -1   9  -3  170.21    7.41
  -1   9  -3  177.91    6.17
  -1   9  -4 1467.08   36.88
   1  -9   4 1449.44   36.99
  -1   9  -4 1349.91   32.94
   1   9   4 1565.20   37.61
  -1  -9  -4 1480.47   35.07
   1   9   4 1556.22   35.21
  -1   9  -4 1453.51   35.96
  -1   9  -4 1361.71   32.82
   1  -9   5  147.93    7.99
  -1   9  -5  155.87    7.93
  -1  -9  -5  164.65    8.14
  -1   9  -5  146.11    4.99
   1   9   5  152.93    7.99
   1   9   5  165.80    6.96
  -1  -9  -5  136.14    6.42
   1   9   5  169.13    8.21
  -1   9  -6  523.84   17.67
   1  -9   6  516.08   17.91
   1   9   6  567.14   18.03
  -1  -9  -6  543.90   17.83
  -1   9  -6  503.11   12.66
  -1  -9  -6  492.83   15.54
   1   9   6  554.11   15.96
   1  -9   6  527.21   17.06
   1   9   6  563.12   17.79
   1  -9   7  516.09   17.86
  -1   9  -7  529.41   17.82
  -1  -9  -7  484.89   17.14
   1   9   7  508.49   17.47
  -1   9  -7  483.03   11.72
   1   9   7  525.23   15.84
  -1  -9  -7  495.02   15.64
   1  -9   7  496.95   16.96
   1   9   7  498.39   17.24
  -1   9  -8  107.34    7.23
   1  -9   8   97.24    7.21
   1   9   8  104.10    7.03
  -1  -9  -8  102.74    7.07
  -1  -9  -8   97.05    6.06
   1   9   8  116.62    7.48
   1  -9   8  101.06    7.20
   1  -9   9  222.33   11.33
   1   9   9  224.01   10.85
  -1  -9  -9  213.54   10.78
  -1  -9  -9  235.93   10.06
   1   9   9  219.54   10.70
   1  -9   9  213.31   10.85
   1   9  10   47.67    4.14
   1  -9  10   48.04    5.49
  -1  -9 -10   47.75    5.02
  -1  -9 -10   41.82    4.26
   1   9  10   50.91    5.25
   1  -9  10   43.16    5.21
  -1  -9 -11  342.61   15.06
   1  -9  11  341.30   15.89
   1   9  11  369.27   13.21
   1  -9  11  362.91   16.04
   1   9  11  373.57   15.59
  -1  -9 -12   16.12    3.36
   1   9  12   24.48    3.39
   1  -9  12   21.66    4.33
   1  -9  12   24.03    4.32
   1   9  12   24.91    4.29
  -1  -9 -13  154.71   10.10
   1   9  13  164.58    8.58
   1  -9  13  162.25   11.00
   1  -9  13  176.28   11.49
  -1  -9 -14  129.90    9.72
   1   9  14  160.55    8.58
   1  -9  14  159.60   11.12
   1  -9  14  162.44   11.51
  -1  -9 -15   54.67    6.39
   1  -9  15   64.42    7.28
   1  -9  15   69.27    8.06
  -1  -9 -16  213.63   12.96
  -1  -9 -17    0.19    2.28
   1 -10 -16   39.43    6.10
  -1 -10  16   36.85    5.80
   1 -10 -15  225.13   13.85
  -1 -10  15  226.54   13.68
  -1 -10  15  263.54   15.31
   1 -10 -14    5.77    2.40
  -1 -10  14   -0.15    2.39
   1  10 -13   98.20    5.76
   1 -10 -13   82.36    7.60
  -1 -10  13   83.40    7.49
  -1 -10  13   99.46    8.50
  -1 -10  12   54.66    5.97
   1  10 -12   62.87    4.76
   1 -10 -12   60.31    6.52
   1 -10 -12   52.84    4.53
  -1 -10  12   59.56    6.63
  -1  10  11   25.12    1.73
  -1 -10  11   24.41    3.95
   1  10 -11   29.04    3.14
   1 -10 -11   27.59    4.33
   1 -10 -11   22.02    2.70
  -1 -10  11   24.52    4.10
  -1  10  10  951.60   21.75
  -1 -10  10  897.15   28.83
   1 -10 -10  962.94   30.12
   1 -10 -10  858.39   24.62
  -1 -10  10  968.88   29.74
  -1 -10   9    3.16    2.39
  -1  10   9    4.71    0.81
   1 -10  -9    3.42    2.36
   1 -10  -9    5.35    1.38
  -1 -10   9    2.67    1.86
  -1 -10   8  760.51   24.45
  -1  10   8  802.11   18.33
   1 -10  -8  790.24   25.42
   1 -10  -8  747.76   20.33
  -1  10   8  785.78   18.30
  -1  10   7    2.81    0.67
  -1 -10   7    2.69    1.69
   1  10  -7    4.93    1.91
  -1  10   7    3.72    0.74
   1 -10  -7    4.08    2.05
  -1  10   7    4.94    2.01
   1 -10  -7    2.57    0.96
  -1  10   7    3.39    1.95
  -1  10   6 1302.71   29.79
  -1 -10   6 1269.67   35.18
   1  10  -6 1362.33   35.89
  -1  10   6 1333.37   35.91
   1 -10  -6 1330.19   36.16
   1 -10  -6 1323.72   30.63
  -1  10   6 1316.71   35.81
   1  10  -6 1335.36   35.13
  -1 -10   5    4.65    1.81
  -1  10   5    5.00    0.88
   1  10  -5    5.00    1.56
  -1  10   5    5.88    1.85
   1 -10  -5    4.25    2.07
   1 -10  -5    3.68    0.75
  -1  10   5    6.92    2.26
   1  10  -5    8.46    2.24
  -1 -10   4  823.69   23.37
  -1  10   4  801.62   19.71
   1  10  -4  831.30   23.92
   1 -10  -4  860.84   24.02
  -1  10   4  831.80   23.77
  -1  10   4  821.11   18.95
   1 -10  -4  777.13   18.85
  -1  10   4  833.77   23.73
   1  10  -4  827.14   23.17
   1  10  -3  343.51   12.45
  -1  10   3  327.47    9.68
   1 -10  -3  316.57   12.15
  -1  10   3  327.81   12.18
  -1  10   3  332.11    8.52
   1  10  -3  320.99   11.47
   1  10  -3  332.90   12.02
  -1  10   3  340.73   12.36
  -1 -10   3  326.37   11.91
   1  10  -2 1213.74   30.89
  -1  10   2 1138.50   28.21
   1 -10  -2 1195.77   30.75
  -1  10   2 1118.76   30.49
  -1  10   2 1150.88   26.59
   1  10  -2 1217.38   29.77
  -1  10   2 1228.35   30.81
   1 -10  -1   26.20    2.29
   1  10  -1   29.60    3.12
  -1  10   1   30.35    2.56
  -1  10   1   25.36    2.84
   1 -10  -1   29.70    3.17
   1  10  -1   27.77    2.85
  -1  10   1   28.58    1.88
  -1  10   1   33.03    3.28
   1  10  -1   31.92    2.89
  -1  10   0  323.24   10.63
   1 -10   0  304.13   10.41
   1  10   0  308.30   11.07
   1 -10   0  312.55   10.76
  -1  10   0  300.38   10.83
   1  10   0  301.45   11.23
   1  10   0  349.58   10.60
  -1 -10   0  304.59   10.40
  -1  10   0  298.66    9.08
  -1  10   0  323.92   10.87
   1 -10   1  191.71    7.84
   1  10   1  210.13    8.08
  -1  10  -1  193.41    7.96
   1  10   1  197.70    8.50
   1 -10   1  189.11    7.40
  -1  10  -1  190.78    7.57
   1  10   1  197.87    7.43
  -1 -10  -1  196.09    7.50
  -1  10  -1  194.43    7.57
   1 -10   2    1.45    1.37
  -1  10  -2    1.80    1.28
   1  10   2    0.78    1.31
  -1  10  -2    1.67    1.16
   1  10   2    2.73    1.64
  -1 -10  -2    1.01    1.09
  -1  10  -2    1.14    1.15
  -1  10  -2    1.48    1.37
  -1  10  -3 1629.23   39.34
   1 -10   3 1563.48   39.08
  -1  10  -3 1467.05   36.34
   1  10   3 1586.49   39.71
   1  10   3 1591.32   37.16
  -1 -10  -3 1512.85   37.05
  -1  10  -3 1624.75   38.45
  -1  10  -3 1496.71   36.17
  -1  10  -4  120.07    6.83
   1 -10   4  112.43    6.87
   1  10   4  124.92    7.14
  -1  10  -4  110.52    4.78
   1  10   4  124.32    5.90
  -1 -10  -4   95.65    5.23
  -1  10  -4  111.74    6.22
  -1  10  -4  117.39    4.78
  -1  10  -5   99.25    6.33
   1 -10   5   90.01    6.29
   1  10   5   99.80    6.48
  -1 -10  -5   98.34    6.41
  -1  10  -5   89.36    3.97
   1  10   5   92.90    5.10
  -1 -10  -5   96.46    5.23
   1  10   5   93.38    6.26
   1 -10   6  893.29   26.93
  -1  10  -6  945.72   27.03
   1  10   6  955.54   27.13
  -1 -10  -6  910.74   26.80
  -1  10  -6  855.98   21.37
  -1 -10  -6  887.28   24.30
   1  10   6  984.63   24.65
   1  10   6  955.79   26.88
  -1  10  -7   38.73    4.44
   1 -10   7   35.57    4.42
  -1  10  -7   39.12    1.98
  -1 -10  -7   40.21    4.40
   1  10   7   36.25    4.04
   1  10   7   37.77    3.48
  -1 -10  -7   30.90    3.13
   1  10   7   45.48    4.56
   1 -10   7   36.21    4.21
   1 -10   8 1663.65   43.46
  -1  10  -8 1610.63   34.80
   1  10   8 1685.68   43.02
  -1 -10  -8 1621.36   42.65
  -1  10  -8 1498.43   34.82
  -1 -10  -8 1659.38   40.30
   1  10   8 1699.23   40.44
   1  10   8 1628.04   42.55
   1 -10   8 1644.44   42.47
   1 -10   9    6.39    2.36
  -1 -10  -9    6.10    2.27
  -1 -10  -9    4.31    1.55
   1 -10   9    4.22    2.17
   1  10   9    6.26    2.53
   1 -10  10  986.41   32.06
   1  10  10 1080.29   28.21
  -1 -10 -10  990.67   31.11
  -1 -10 -10 1083.31   29.74
   1  10  10 1036.38   31.26
   1 -10  10 1023.30   31.78
  -1 -10 -11    5.97    2.60
   1  10  11    8.88    2.14
   1 -10  11    3.28    2.38
   1  10  11    1.18    1.88
   1 -10  11    5.19    2.68
  -1 -10 -12  431.49   18.20
   1  10  12  474.21   15.98
   1 -10  12  423.60   19.00
   1 -10  12  470.16   19.59
   1  10  12  452.24   18.60
  -1 -10 -13    6.07    2.53
   1  10  13   10.15    2.31
   1 -10  13   15.85    3.82
   1 -10  13   10.17    3.25
  -1 -10 -14  213.67   12.98
   1 -10  14  223.83   13.69
   1 -10  14  240.33   14.19
  -1 -10 -15  129.30   10.01
   1 -10  15  135.78   10.50
  -1 -10 -16   71.05    7.46
   1 -11 -15    6.41    3.10
  -1 -11  15   10.77    3.67
   1 -11 -14  435.09   19.70
  -1 -11  14  394.40   18.67
  -1 -11  14  453.97   20.36
   1 -11 -13    4.10    2.59
  -1 -11  13   -0.27    2.00
  -1 -11  13    0.18    2.66
   1 -11 -12  291.04   14.86
   1  11 -12  308.04   11.34
  -1 -11  12  266.09   14.04
  -1 -11  12  296.93   14.91
  -1  11  11   28.22    1.61
  -1 -11  11   25.75    4.14
   1 -11 -11   27.30    4.47
   1 -11 -11   27.53    3.01
  -1 -11  11   31.54    5.32
  -1  11  10  425.59   10.30
  -1 -11  10  387.57   16.58
   1 -11 -10  422.75   17.60
   1 -11 -10  405.09   13.23
  -1 -11  10  434.15   17.61
  -1  11  10  396.19   10.20
  -1  11   9   26.18    1.54
  -1 -11   9   34.51    4.34
  -1  11   9   26.67    1.54
   1 -11  -9   25.71    4.00
   1 -11  -9   22.61    2.42
  -1  11   8   79.58    3.05
  -1  11   8   77.92    2.98
  -1 -11   8   76.50    6.45
   1 -11  -8   75.92    6.77
   1 -11  -8   67.83    3.94
  -1  11   8   80.73    6.85
  -1 -11   7   41.45    4.40
  -1  11   7   37.82    2.03
   1  11  -7   38.34    4.28
   1 -11  -7   36.82    4.34
  -1  11   7   39.96    4.31
   1 -11  -7   39.84    2.63
  -1  11   7   37.56    4.39
   1  11  -6    3.98    1.86
  -1 -11   6    3.68    1.91
  -1  11   6    2.72    0.80
  -1  11   6   -1.26    1.53
   1 -11  -6    4.26    2.35
   1 -11  -6    1.23    0.64
  -1  11   6    3.05    1.95
   1  11  -6    6.52    2.20
  -1  11   5  202.31    6.53
   1  11  -5  220.28   10.04
  -1 -11   5  193.91    9.33
  -1  11   5  205.68    9.84
   1 -11  -5  207.85    9.87
   1 -11  -5  204.36    6.22
  -1  11   5  221.58   10.13
   1  11  -5  209.14    9.46
  -1 -11   4   69.91    5.21
   1  11  -4   71.48    5.52
  -1  11   4   68.46    3.47
  -1  11   4   76.18    5.53
   1 -11  -4   72.52    5.66
  -1  11   4   69.96    2.90
   1  11  -4   72.31    5.06
   1  11  -4   69.08    5.01
  -1  11   4   77.23    5.65
   1 -11  -4   61.61    2.77
  -1 -11   3    8.91    2.10
   1  11  -3    4.87    1.66
  -1  11   3    7.30    1.34
  -1  11   3    5.77    1.77
   1 -11  -3    7.57    2.23
  -1  11   3    5.04    0.78
  -1  11   3    5.44    1.99
   1  11  -3    4.48    1.63
   1  11  -3    5.61    1.62
   1  11  -2  525.26   16.42
  -1  11   2  480.14   14.00
   1 -11  -2  480.94   16.05
  -1  11   2  478.35   16.00
  -1  11   2  487.64   12.46
  -1  11   2  508.73   16.20
   1  11  -2  509.16   15.23
  -1  11   1   10.98    2.19
   1  11  -1    8.97    1.88
   1 -11  -1    9.70    2.06
   1 -11  -1    9.60    1.71
   1  11  -1    9.39    2.13
  -1  11   1    9.52    1.62
   1  11  -1   12.68    2.01
  -1  11   1   12.29    2.24
  -1  11   1   12.14    1.26
   1 -11   0 1358.62   33.36
  -1  11   0 1290.44   33.58
   1  11   0 1463.93   34.87
   1  11   0 1399.77   34.99
   1 -11   0 1367.60   33.93
  -1  11   0 1321.61   34.08
   1  11   0 1363.59   33.23
  -1  11   0 1323.03   33.87
  -1  11   0 1325.34   31.70
   1 -11   1    7.02    1.88
   1  11   1    5.39    1.37
  -1  11  -1    3.86    1.38
  -1  11  -1    6.06    1.63
   1 -11   1    5.23    1.63
   1  11   1    6.04    1.87
   1  11   1    4.42    1.36
  -1  11  -1    4.81    1.62
  -1 -11  -1    5.70    1.37
   1 -11   2 1318.06   33.21
  -1  11  -2 1327.22   33.58
   1  11   2 1370.54   34.40
  -1  11  -2 1213.61   31.69
   1  11   2 1256.53   31.72
  -1 -11  -2 1284.22   31.82
  -1  11  -2 1343.60   32.90
  -1  11  -2 1228.58   31.60
   1  11   2 1358.44   32.82
   1 -11   3   54.72    4.62
  -1  11  -3   61.76    4.71
   1  11   3   56.28    4.74
  -1  11  -3   53.21    3.52
   1  11   3   53.50    3.78
  -1 -11  -3   47.19    3.62
  -1  11  -3   56.04    4.30
  -1  11  -3   56.22    3.59
   1 -11   4 1130.05   31.14
  -1  11  -4 1191.42   31.48
   1  11   4 1221.39   32.27
  -1  11  -4 1075.16   27.67
  -1 -11  -4 1110.89   28.77
   1  11   4 1201.45   29.00
  -1  11  -4 1193.23   30.58
  -1  11  -4 1092.63   27.55
  -1  11  -5    1.09    1.30
   1 -11   5    4.62    1.87
  -1  11  -5    0.34    0.72
  -1 -11  -5    1.35    1.68
   1  11   5    4.10    1.63
  -1 -11  -5    1.83    1.06
   1  11   5    1.12    1.08
  -1  11  -5    6.50    1.91
  -1  11  -5    1.28    0.85
   1  11   5    4.82    2.11
  -1  11  -6  328.80   13.42
   1 -11   6  303.08   13.13
   1  11   6  334.43   13.50
  -1  11  -6  306.17    9.14
  -1 -11  -6  314.42   13.23
   1  11   6  340.81   11.52
  -1 -11  -6  295.40   11.04
   1  11   6  327.44   13.24
   1 -11   7  100.61    7.24
  -1  11  -7   95.38    3.72
   1  11   7  105.17    7.15
  -1 -11  -7  100.21    7.10
   1  11   7  103.48    5.73
  -1 -11  -7   95.32    5.65
   1  11   7   91.41    6.81
   1 -11   8  139.77    9.04
  -1 -11  -8  150.01    9.13
  -1  11  -8  144.77    4.44
  -1 -11  -8  127.75    7.04
   1  11   8  158.12    7.75
   1 -11   8  132.59    8.55
   1  11   8  150.92    9.00
   1 -11   9  140.95    9.11
  -1 -11  -9  141.17    8.97
  -1 -11  -9  145.02    7.58
   1 -11   9  145.68    8.80
   1  11   9  140.65    8.76
   1 -11  10   10.07    3.09
  -1 -11 -10   11.33    3.14
  -1 -11 -10   10.49    2.32
   1  11  10    7.59    2.73
   1 -11  10    6.56    2.82
  -1 -11 -11    2.32    2.24
   1  11  11    1.82    1.64
   1 -11  11    3.55    2.39
   1  11  11    4.12    2.57
   1 -11  11   -1.87    2.48
  -1 -11 -12   50.45    5.88
   1 -11  12   55.51    6.36
   1  11  12   55.32    4.60
   1  11  12   57.26    6.37
   1 -11  12   54.85    6.37
  -1 -11 -13   11.59    3.03
   1  11  13   12.87    2.44
   1 -11  13   10.71    3.01
   1 -11  13   12.04    3.84
  -1 -11 -14  124.06    9.95
   1 -11  14  130.35   10.35
   1 -11  14  140.09   10.69
  -1 -11 -15    8.01    2.86
   1 -11  15    8.19    3.18
  -1 -11 -16  289.38   15.87
   1 -12 -15   63.14    7.39
  -1 -12  15   51.41    6.60
   1 -12 -14    0.62    2.36
  -1 -12  14    0.86    2.58
  -1 -12  14    1.92    2.57
   1 -12 -13    8.67    2.76
  -1 -12  13    9.50    3.01
  -1 -12  13    7.58    2.74
   1  12 -12   12.05    2.33
   1 -12 -12    8.46    3.30
  -1 -12  12    8.47    3.28
  -1 -12  12    5.88    2.81
  -1 -12  11   30.58    4.42
   1 -12 -11   32.53    3.13
   1 -12 -11   36.40    5.17
  -1 -12  10   -1.27    2.04
  -1  12  10    0.30    0.34
  -1  12  10    0.34    0.37
   1 -12 -10    1.82    1.14
   1 -12 -10    1.70    2.56
  -1 -12   9    0.88    1.68
  -1  12   9    5.99    0.77
  -1  12   9    5.75    0.76
   1 -12  -9    2.41    1.82
   1 -12  -9    4.53    1.19
  -1  12   8  295.54    7.77
  -1  12   8  279.03    7.77
  -1 -12   8  264.71   12.76
   1 -12  -8  290.06   13.59
   1 -12  -8  270.62    9.17
  -1  12   8  291.29   13.55
  -1 -12   7    2.18    1.80
  -1  12   7   -0.03    0.53
   1 -12  -7   -0.83    1.77
   1 -12  -7   -0.18    0.71
  -1  12   7   -2.43    2.35
  -1  12   6   74.76    3.47
   1  12  -6   84.82    6.25
  -1 -12   6   75.91    5.93
  -1  12   6   81.01    6.16
   1 -12  -6   78.94    6.29
   1 -12  -6   80.63    3.54
   1  12  -6   80.32    5.90
  -1  12   6   87.04    6.56
  -1  12   5    0.79    0.77
  -1 -12   5   -0.96    1.76
   1  12  -5    0.04    1.30
  -1  12   5   -0.05    1.37
   1 -12  -5    0.05    1.92
  -1  12   5   -0.03    0.62
  -1  12   5   -0.72    1.64
   1  12  -5    1.17    1.41
   1 -12  -5   -0.16    0.54
   1  12  -4   55.27    4.88
  -1  12   4   61.56    3.46
   1 -12  -4   68.07    5.46
  -1  12   4   64.37    5.25
  -1  12   4   68.10    2.86
   1  12  -4   55.48    4.49
  -1  12   4   60.35    5.19
   1  12  -4   59.16    4.83
  -1 -12   4   50.66    4.65
  -1  12   3   45.56    3.13
   1  12  -3   48.28    4.42
  -1  12   3   43.26    4.13
   1 -12  -3   45.80    4.36
  -1  12   3   42.89    2.29
   1  12  -3   38.43    3.67
   1  12  -3   44.47    4.08
  -1  12   3   42.20    4.15
   1  12  -2  147.57    7.59
  -1  12   2  127.07    5.90
  -1  12   2  133.06    7.35
   1  12  -2  128.57    6.87
   1 -12  -2  132.98    7.28
  -1  12   2  134.41    4.76
  -1  12   2  130.87    7.26
   1  12  -2  131.05    6.50
   1  12  -1  222.70    9.55
  -1  12   1  220.99    8.52
   1 -12  -1  212.75    9.20
   1  12  -1  207.45    9.22
  -1  12   1  213.22    9.31
   1  12  -1  226.92    8.73
  -1  12   1  214.14    6.94
  -1  12   1  236.98    9.56
   1 -12  -1  215.85    8.11
  -1  12   0   19.83    2.59
   1  12   0   24.38    3.12
   1 -12   0   22.21    2.79
   1 -12   0   21.28    2.52
  -1  12   0   25.21    2.82
   1  12   0   22.52    2.84
   1  12   0   22.49    2.66
  -1  12   0   24.57    2.91
  -1  12   0   22.63    2.12
   1 -12   1  230.78    9.27
   1  12   1  240.16    9.52
  -1  12  -1  230.74    9.43
  -1  12  -1  218.64    9.02
   1  12   1  229.01    9.94
   1  12   1  230.25    8.64
  -1 -12  -1  230.39    8.78
  -1  12  -1  221.92    7.94
  -1  12  -1  222.09    8.91
   1  12   2    5.08    1.61
   1 -12   2    4.41    1.75
  -1  12  -2    4.30    1.61
   1  12   2    3.11    1.30
  -1  12  -2    5.87    1.59
   1  12   2    4.49    1.48
  -1 -12  -2    1.76    1.02
  -1  12  -2    3.65    1.53
  -1  12  -2    6.79    1.71
   1 -12   3   43.09    3.99
  -1  12  -3   47.00    4.17
   1  12   3   45.03    4.31
  -1  12  -3   43.72    3.29
  -1 -12  -3   41.37    3.30
   1  12   3   37.83    3.15
  -1  12  -3   49.99    4.06
   1  12   3   42.54    3.57
  -1  12  -3   44.27    3.27
  -1  12  -4    5.55    2.13
   1 -12   4    2.04    1.65
   1  12   4    7.64    2.45
  -1  12  -4    5.61    1.36
   1  12   4    8.45    1.90
   1  12   4    7.54    2.44
  -1  12  -4    7.30    1.71
  -1 -12  -4    4.52    1.38
  -1  12  -4    4.30    1.64
  -1  12  -5   39.13    4.21
   1 -12   5   37.41    4.30
   1  12   5   41.29    4.37
  -1  12  -5   40.63    2.89
  -1 -12  -5   37.42    3.25
   1  12   5   46.41    3.64
  -1  12  -5   43.06    4.11
   1  12   5   43.19    4.51
  -1  12  -5   38.55    2.76
   1 -12   6    2.20    2.13
  -1  12  -6    7.11    2.48
  -1  12  -6    5.75    1.27
  -1 -12  -6    7.66    2.58
   1  12   6    6.86    2.20
  -1 -12  -6    2.75    1.37
   1  12   6    6.30    1.90
  -1  12  -6    4.72    1.28
   1  12   6    8.82    2.82
   1 -12   7   38.39    4.59
  -1  12  -7   39.70    2.45
  -1 -12  -7   36.54    4.58
  -1 -12  -7   33.93    3.36
   1  12   7   41.99    3.76
  -1  12  -7   40.12    2.44
   1  12   7   36.10    4.67
   1 -12   8  468.41   18.16
  -1  12  -8  460.57   11.72
  -1 -12  -8  455.65   17.85
  -1 -12  -8  491.97   15.90
   1  12   8  491.77   15.76
   1  12   8  494.09   18.20
  -1  12  -8  441.58   11.60
   1 -12   9    5.41    2.46
  -1 -12  -9    2.16    2.02
  -1 -12  -9    3.47    1.53
   1 -12   9    0.45    1.94
   1  12   9    4.09    2.28
   1 -12  10   23.92    4.18
  -1 -12 -10   26.91    4.16
  -1 -12 -10   23.37    3.20
   1  12  10   29.75    4.21
   1 -12  10   25.71    4.31
  -1 -12 -11   10.20    2.86
   1  12  11   21.06    2.85
   1 -12  11   16.21    4.10
   1  12  11   21.09    4.11
   1 -12  11   15.89    3.81
  -1 -12 -12   60.95    6.51
   1 -12  12   65.72    7.19
   1  12  12   64.61    4.91
   1 -12  12   67.88    7.17
   1  12  12   57.29    6.40
  -1 -12 -13   11.08    3.20
   1 -12  13   19.58    4.29
   1  12  13    9.76    3.43
   1 -12  13    9.09    3.07
  -1 -12 -14   17.98    4.24
   1 -12  14   19.08    4.40
   1 -12  14   24.90    4.83
  -1 -12 -15   38.39    5.59
  -1 -13  14   28.23    4.97
   1 -13 -14   29.96    5.06
  -1 -13  13    6.13    2.74
   1 -13 -13    2.64    2.16
  -1 -13  12  113.10    9.14
   1 -13 -12  120.66    9.58
   1  13 -12  126.75    6.61
  -1 -13  11   -3.75    2.70
   1 -13 -11    0.16    2.00
  -1 -13  10   82.63    7.28
   1 -13 -10   82.03    4.74
   1 -13 -10   79.94    7.39
  -1  13   9   40.20    1.97
  -1 -13   9   41.63    4.87
  -1  13   9   45.50    2.02
   1 -13  -9   45.48    5.50
   1 -13  -9   39.88    3.04
  -1  13   8   27.15    1.81
  -1 -13   8   26.39    4.03
   1 -13  -8   33.03    4.94
   1 -13  -8   23.66    2.28
  -1  13   8   28.86    4.70
   1 -13  -7    1.51    2.01
  -1  13   7    2.58    0.76
  -1 -13   7   -0.73    1.72
   1 -13  -7    0.57    0.66
  -1  13   7    4.57    2.37
   1 -13  -6    0.11    1.92
  -1 -13   6    0.97    1.66
  -1  13   6    1.62    0.73
   1 -13  -6    0.68    0.56
  -1  13   6    1.05    1.96
  -1  13   5   15.99    1.79
  -1 -13   5   17.42    3.11
   1  13  -5   20.20    2.97
  -1  13   5   23.16    3.33
   1 -13  -5   17.83    3.18
  -1  13   5   18.15    1.53
   1  13  -5   17.96    2.71
  -1  13   5   13.75    2.81
   1 -13  -5   16.61    1.49
   1  13  -5   16.92    2.82
   1  13  -4   48.95    4.80
  -1  13   4   48.08    3.33
  -1  13   4   55.60    5.07
   1 -13  -4   56.74    5.29
  -1  13   4   53.80    2.65
   1  13  -4   48.42    4.46
  -1  13   4   57.92    5.12
  -1 -13   4   51.78    4.80
   1  13  -4   50.12    4.63
   1  13  -3   68.98    5.34
  -1  13   3   59.33    3.85
   1  13  -3   59.80    4.60
  -1  13   3   56.77    5.06
   1 -13  -3   64.32    5.45
  -1  13   3   59.37    2.90
   1  13  -3   67.04    5.07
  -1  13   3   61.11    5.30
   1  13  -3   59.22    4.67
   1  13  -2   80.17    5.65
  -1  13   2   74.63    4.59
   1 -13  -2   74.99    5.56
  -1  13   2   73.09    5.39
   1  13  -2   68.14    5.03
   1  13  -2   70.20    4.86
  -1  13   2   74.21    3.47
  -1  13   2   83.42    5.84
   1  13  -1   51.86    4.54
  -1  13   1   52.98    4.02
  -1  13   1   57.66    4.69
   1 -13  -1   56.85    4.59
   1  13  -1   54.84    4.51
   1  13  -1   58.76    4.24
  -1  13   1   56.09    3.09
  -1  13   1   56.52    4.57
   1 -13  -1   49.56    3.67
   1  13   0  576.77   18.08
  -1  13   0  573.47   17.30
   1 -13   0  547.71   16.58
  -1  13   0  536.17   17.45
   1 -13   0  582.52   17.57
   1  13   0  580.28   18.36
   1  13   0  546.20   16.45
  -1  13   0  553.68   17.38
  -1  13   0  536.03   15.04
   1  13   1    3.65    1.49
  -1  13  -1    2.69    1.16
   1 -13   1    1.80    1.50
   1  13   1    2.21    1.42
  -1  13  -1    3.82    1.64
   1  13   1    3.44    1.45
  -1  13  -1    3.66    1.32
  -1  13  -1    6.55    1.79
  -1 -13  -1    3.69    1.45
   1 -13   2  139.76    7.31
   1  13   2  145.31    7.15
  -1  13  -2  136.20    7.47
   1  13   2  133.43    7.72
  -1  13  -2  129.56    6.59
   1  13   2  135.39    6.48
  -1  13  -2  157.05    7.53
  -1  13  -2  131.16    6.55
  -1 -13  -2  150.11    6.77
   1  13   3   16.35    2.48
   1 -13   3   14.13    2.77
  -1  13  -3   13.88    2.37
   1  13   3   15.06    2.82
  -1  13  -3   13.12    2.05
   1  13   3   13.42    2.14
  -1 -13  -3   11.86    1.97
  -1  13  -3   13.84    2.16
  -1  13  -3   17.15    2.67
  -1  13  -4  179.47    9.17
   1 -13   4  156.31    8.53
  -1  13  -4  158.01    6.94
   1  13   4  176.61    9.47
  -1 -13  -4  174.86    7.60
   1  13   4  169.81    7.48
  -1  13  -4  156.60    6.81
  -1  13  -4  185.70    8.76
   1  13   4  167.96    9.16
   1 -13   5    1.34    1.83
  -1  13  -5    1.70    1.33
  -1  13  -5    2.90    1.06
   1  13   5    2.48    1.17
  -1  13  -5    4.81    1.94
  -1  13  -5    1.47    1.09
   1  13   5    0.53    2.12
  -1 -13  -5    1.56    0.88
   1 -13   6  361.99   14.91
  -1  13  -6  352.79   10.92
   1  13   6  395.12   12.91
  -1 -13  -6  340.88   12.29
   1  13   6  377.42   15.25
  -1  13  -6  352.05   10.88
   1 -13   7  159.13    9.44
  -1  13  -7  152.63    5.76
  -1 -13  -7  153.20    9.27
   1  13   7  159.66    7.60
  -1 -13  -7  160.01    7.72
   1  13   7  161.07    9.52
  -1  13  -7  146.08    5.61
   1 -13   8   15.35    3.40
  -1 -13  -8   13.06    3.17
  -1  13  -8   19.00    1.62
   1  13   8   20.40    2.84
  -1 -13  -8   17.30    2.67
  -1  13  -8   18.85    1.60
   1  13   8   20.01    3.78
   1 -13   9   24.35    4.00
  -1  13  -9   20.88    1.24
  -1  13  -9   25.01    1.31
  -1 -13  -9   19.71    3.68
  -1 -13  -9   19.10    2.81
  -1  13  -9   22.09    1.27
   1  13   9   18.90    3.38
   1 -13  10   -1.25    1.94
  -1 -13 -10   -0.29    1.97
  -1 -13 -10    0.74    1.22
   1  13  10   -1.45    2.27
  -1 -13 -11   41.90    5.45
   1  13  11   45.15    4.00
   1 -13  11   41.80    5.62
   1  13  11   49.35    5.90
   1 -13  11   48.13    5.81
  -1 -13 -12    2.28    1.98
   1  13  12    5.73    1.91
   1 -13  12    3.26    2.25
   1  13  12    3.36    2.73
   1 -13  12    7.27    3.14
  -1 -13 -13    1.51    2.20
   1 -13  13    8.72    3.39
   1  13  13    3.10    2.77
   1 -13  13    9.42    3.41
  -1 -13 -14   16.01    3.83
  -1 -14  14   -0.92    2.09
   1 -14 -13  140.68   10.84
  -1 -14  13  139.65   10.53
   1 -14 -12   87.93    8.51
  -1 -14  12   74.84    7.58
   1 -14 -11  242.59   13.83
  -1 -14  11  238.13   13.26
   1 -14 -10   62.53    6.97
  -1 -14  10   62.36    6.41
  -1 -14   9   55.42    6.02
  -1  14   9   56.83    2.47
  -1  14   9   58.81    2.47
   1 -14  -9   56.73    6.19
   1 -14  -9   58.90    3.58
  -1  14   9   59.12    6.47
  -1  14   8  564.33   14.39
  -1 -14   8  541.66   20.61
   1 -14  -8  574.89   21.75
   1 -14  -8  562.08   15.28
  -1  14   8  584.03   21.71
   1 -14  -7    6.34    2.29
  -1 -14   7   14.89    3.35
  -1  14   7   11.84    1.46
   1 -14  -7   10.36    1.46
  -1  14   7    9.68    2.93
   1 -14  -6  768.75   24.88
  -1  14   6  724.99   19.10
  -1 -14   6  721.12   23.90
   1  14  -6  728.20   23.31
   1 -14  -6  746.33   18.36
  -1  14   6  745.10   24.57
  -1 -14   5    8.88    2.50
  -1  14   5    6.55    1.39
   1 -14  -5    6.13    2.63
  -1  14   5    6.75    1.15
   1  14  -5    7.30    2.27
  -1  14   5    7.95    2.58
  -1  14   4  296.64   10.44
   1  14  -4  338.53   13.90
   1 -14  -4  323.97   13.65
  -1  14   4  324.09   13.69
   1  14  -4  315.76   12.29
  -1  14   4  330.89    9.09
  -1  14   4  316.24   13.49
   1  14  -4  305.45   12.40
  -1  14   3  132.22    6.36
   1  14  -3  156.58    8.70
   1 -14  -3  144.79    8.35
  -1  14   3  139.51    8.19
   1  14  -3  137.72    7.58
  -1  14   3  143.94    5.27
  -1  14   3  146.80    8.41
   1  14  -3  155.55    8.36
   1  14  -3  137.98    7.47
   1  14  -2  305.01   12.39
  -1  14   2  266.34   10.27
   1  14  -2  280.29   11.52
   1 -14  -2  270.28   11.67
  -1  14   2  274.80   11.83
  -1  14   2  278.61    8.51
   1  14  -2  271.78   10.90
  -1  14   2  289.92   12.01
   1  14  -1   49.06    4.53
  -1  14   1   53.41    4.22
  -1  14   1   48.65    4.40
   1  14  -1   49.69    4.44
   1 -14  -1   56.17    4.77
   1  14  -1   50.63    4.00
  -1  14   1   53.27    3.17
  -1  14   1   62.82    5.04
  -1  14   0  109.98    6.28
   1  14   0  116.96    6.89
   1 -14   0  106.51    6.08
  -1  14   0  103.64    6.50
   1 -14   0  111.36    6.52
   1  14   0  117.20    7.18
  -1  14   0  106.67    5.11
   1  14   0  109.84    6.00
  -1  14   0  100.79    6.27
   1  14   1  153.74    7.80
  -1  14  -1  136.19    7.35
   1 -14   1  135.53    7.12
   1  14   1  144.60    8.06
  -1  14  -1  128.54    7.04
   1  14   1  137.58    6.67
  -1  14  -1  131.68    6.05
  -1  14  -1  128.69    6.89
   1  14   2   -0.67    1.19
   1 -14   2   -0.44    1.44
  -1  14  -2    1.43    1.25
  -1  14  -2   -0.29    1.05
   1  14   2    0.43    1.26
   1  14   2    3.11    1.63
  -1  14  -2    2.42    1.49
  -1 -14  -2   -0.03    0.93
  -1  14  -2    4.67    1.96
   1 -14   3  523.32   17.93
  -1  14  -3  563.58   18.53
   1  14   3  540.33   17.07
   1  14   3  558.85   19.23
  -1  14  -3  498.80   16.09
   1  14   3  526.34   16.02
  -1  14  -3  548.80   17.72
  -1 -14  -3  528.25   16.24
  -1  14  -3  503.21   16.01
   1 -14   4   27.84    3.70
  -1  14  -4   34.41    4.08
  -1  14  -4   33.23    3.11
   1  14   4   34.20    3.30
   1  14   4   37.06    4.60
  -1  14  -4   31.03    3.58
   1  14   4   31.41    3.35
  -1  14  -4   28.72    2.96
  -1 -14  -4   26.32    2.83
   1 -14   5   92.25    6.80
  -1  14  -5   79.94    4.68
   1  14   5   90.36    5.41
  -1 -14  -5   89.47    5.40
   1  14   5   99.68    7.26
  -1  14  -5  100.49    6.55
  -1  14  -5   87.89    4.82
   1 -14   6  807.80   26.11
  -1  14  -6  824.98   21.61
   1  14   6  888.24   23.58
  -1 -14  -6  778.20   22.90
   1  14   6  844.79   26.76
  -1  14  -6  800.47   21.35
   1 -14   7  101.41    7.86
  -1  14  -7  102.29    4.77
  -1 -14  -7  100.44    6.04
   1  14   7  111.63    6.29
   1  14   7  116.21    8.26
  -1  14  -7  100.16    4.70
   1 -14   8  656.03   23.26
  -1 -14  -8  680.04   23.54
  -1  14  -8  635.01   16.50
  -1 -14  -8  643.29   20.00
   1  14   8  687.20   20.22
   1  14   8  652.80   23.22
  -1  14  -8  637.06   16.47
   1 -14   9   16.37    3.68
  -1  14  -9   13.47    1.17
  -1 -14  -9   12.89    3.49
  -1 -14  -9   15.86    2.79
   1  14   9   18.61    3.88
  -1  14  -9   13.98    1.21
   1 -14  10  186.58   11.64
  -1 -14 -10  180.69   11.39
  -1 -14 -10  196.72    9.63
   1  14  10  202.32   11.76
  -1 -14 -11    2.55    2.21
   1 -14  11    2.42    2.75
   1  14  11    2.07    2.36
  -1 -14 -12  214.02   13.27
   1 -14  12  235.95   13.97
   1  14  12  238.81   13.92
  -1 -14 -13   28.32    5.10
   1 -14  13   21.54    4.24
   1  14  13   25.17    4.70
   1 -15 -13   29.52    5.11
  -1 -15  13   21.27    4.36
   1 -15 -12  271.93   15.27
  -1 -15  12  251.29   14.44
   1 -15 -11  106.42    9.13
  -1 -15  11   89.70    8.35
   1 -15 -10  122.69    9.59
  -1 -15  10  115.91    9.01
   1 -15  -9  290.93   14.82
  -1 -15   9  265.01   13.83
  -1  15   9  270.67    7.49
  -1  15   9  304.91   15.10
  -1 -15   8   41.13    5.19
  -1  15   8   42.23    2.54
   1 -15  -8   36.91    5.41
   1 -15  -8   38.72    2.72
  -1  15   8   46.45    5.75
   1 -15  -7  708.95   24.55
  -1 -15   7  658.13   23.40
  -1  15   7  681.14   17.82
   1 -15  -7  678.64   17.42
   1  15  -7  666.80   22.76
  -1  15   7  720.43   24.64
   1 -15  -6    5.70    2.63
  -1  15   6    1.67    0.92
  -1 -15   6    0.97    1.70
  -1  15   6    3.45    2.33
   1  15  -6    4.25    2.08
  -1  15   5  478.30   14.74
   1  15  -5  521.38   17.34
   1 -15  -5  532.63   19.29
  -1  15   5  532.07   13.45
   1  15  -5  498.17   17.69
  -1 -15   5  475.44   18.16
  -1  15   5  508.44   19.02
  -1  15   4    3.41    1.33
   1  15  -4    3.86    1.56
   1 -15  -4    3.88    2.22
  -1  15   4    0.54    0.88
   1  15  -4    0.48    1.54
  -1  15   4    4.24    2.23
  -1  15   3  340.15   11.99
   1 -15  -3  352.83   14.37
   1  15  -3  360.53   13.68
  -1  15   3  358.14   14.57
  -1  15   3  351.07   10.19
  -1  15   3  357.72   14.51
   1  15  -3  347.49   13.17
   1  15  -2  212.87   10.43
  -1  15   2  190.94    8.56
  -1  15   2  200.54   10.13
   1  15  -2  206.91    9.82
   1 -15  -2  199.81    9.96
   1  15  -2  205.27    9.25
  -1  15   2  200.82    6.99
  -1  15   2  197.05   10.02
   1  15  -1  239.21   10.84
  -1  15   1  228.44    9.67
  -1  15   1  208.39   10.22
   1  15  -1  222.33   10.51
   1 -15  -1  226.67   10.44
  -1  15   1  215.66    7.67
   1  15  -1  223.44    9.51
  -1  15   1  228.92   10.51
   1  15   0  331.02   13.04
  -1  15   0  311.37   12.14
  -1  15   0  304.03   12.49
   1  15   0  313.09   13.10
  -1  15   0  310.87   10.24
   1  15   0  318.19   11.48
  -1  15   0  317.33   12.47
   1 -15   0  294.53   11.45
   1 -15   1   18.08    2.83
   1  15   1   22.51    3.11
  -1  15  -1   18.68    2.81
  -1  15  -1   19.88    3.09
   1  15   1   23.06    3.30
   1  15   1   22.38    2.86
  -1  15  -1   19.39    2.38
  -1  15  -1   23.57    3.20
   1 -15   2  441.55   15.52
  -1  15  -2  454.60   16.16
   1  15   2  466.62   15.75
   1  15   2  444.26   16.76
  -1  15  -2  421.10   14.83
   1  15   2  429.84   14.12
  -1 -15  -2  426.19   14.32
  -1  15  -2  448.86   15.68
  -1  15  -2  426.18   13.97
  -1  15  -2  428.50   14.77
   1  15   3    3.54    1.38
   1 -15   3    5.08    1.90
  -1  15  -3    7.27    2.24
  -1  15  -3    6.66    1.88
   1  15   3    4.96    1.65
  -1 -15  -3    4.66    1.39
  -1  15  -3    7.35    1.87
  -1  15  -3    8.46    2.18
   1 -15   4  169.96    9.42
   1  15   4  182.94    8.68
  -1  15  -4  169.94    7.80
   1  15   4  174.56    7.95
  -1  15  -4  191.69    9.57
  -1 -15  -4  177.48    8.03
  -1  15  -4  173.84    7.83
   1  15   4  173.42    9.94
   1 -15   5  184.34   10.13
  -1  15  -5  175.76    7.70
   1  15   5  201.97    8.65
  -1 -15  -5  181.20    8.38
   1  15   5  177.45    8.58
   1  15   5  180.89   10.24
  -1  15  -5  182.87    7.80
   1 -15   6  488.93   18.80
  -1  15  -6  487.36   14.57
  -1 -15  -6  459.49   15.60
   1  15   6  511.89   16.02
   1  15   6  451.36   15.74
   1  15   6  507.29   19.25
  -1  15  -6  484.68   14.45
   1 -15   7  396.30   16.65
  -1  15  -7  378.44   11.81
   1  15   7  408.48   13.81
  -1 -15  -7  369.38   13.48
   1  15   7  393.84   16.81
  -1  15  -7  374.50   11.73
   1 -15   8   40.39    5.34
  -1  15  -8   42.86    2.82
  -1 -15  -8   35.80    3.71
   1  15   8   47.80    4.29
   1  15   8   47.85    5.74
  -1  15  -8   37.40    2.70
   1 -15   9  629.15   24.15
   1  15   9  681.59   20.95
  -1 -15  -9  652.55   20.71
   1  15   9  680.54   24.64
   1 -15  10    0.88    2.28
   1  15  10   -0.49    2.20
   1 -15  11  396.62   18.80
   1  15  11  411.00   18.71
   1 -15  12   22.57    4.81
   1  15  12   21.50    4.59
   1  15  13  174.15   12.18
   1 -16 -12    2.23    2.23
  -1 -16  12    4.46    2.71
   1 -16 -11  312.57   16.48
  -1 -16  11  286.58   15.54
   1 -16 -10   85.54    8.10
  -1 -16  10   88.53    8.04
   1 -16  -9  120.97    9.45
  -1 -16   9  102.31    8.59
  -1  16   9  134.18    9.86
   1 -16  -8    8.84    2.63
  -1 -16   8    7.43    2.44
  -1  16   8   12.69    3.56
   1  16  -8   13.48    3.09
   1  16  -7    6.85    2.01
   1 -16  -7   10.65    3.35
  -1  16   7    6.12    1.22
  -1 -16   7    6.96    2.84
   1 -16  -7    6.66    1.14
   1  16  -7    9.42    2.66
  -1  16   7    9.19    3.16
   1  16  -6   12.06    2.42
   1 -16  -6   13.01    3.18
  -1  16   6   14.32    1.84
  -1 -16   6    9.27    2.48
  -1  16   6   17.28    3.68
   1  16  -6   14.78    3.10
  -1  16   5    9.58    1.78
   1  16  -5   11.59    2.41
   1 -16  -5    6.47    2.38
  -1  16   5   10.33    1.39
   1  16  -5    6.76    2.36
  -1  16   5   11.47    3.00
  -1  16   4   58.37    4.15
   1 -16  -4   71.33    6.21
   1  16  -4   64.67    5.23
  -1  16   4   67.21    3.30
  -1  16   4   66.95    6.08
   1  16  -4   62.76    5.21
  -1  16   3  168.21    7.95
   1  16  -3  172.69    9.13
   1 -16  -3  179.76    9.97
   1  16  -3  179.00    8.89
  -1  16   3  180.35    6.43
  -1  16   3  179.87   10.04
  -1  16   2   50.24    4.19
  -1  16   2   60.02    5.44
   1 -16  -2   57.14    5.30
   1  16  -2   55.15    4.95
  -1  16   2   56.69    3.33
   1  16  -2   51.25    4.44
  -1  16   2   59.47    5.42
   1  16  -1 1202.47   32.58
  -1  16   1 1094.25   30.24
   1 -16  -1 1142.07   31.55
  -1  16   1 1060.54   31.52
   1  16  -1 1132.09   32.02
   1  16  -1 1094.29   29.85
  -1  16   1 1083.58   27.34
  -1  16   1 1089.39   31.48
   1  16   0   98.21    6.70
  -1  16   0   90.38    6.13
   1  16   0   95.44    6.87
  -1  16   0   88.92    6.42
  -1  16   0   93.60    4.94
   1  16   0   91.47    5.70
  -1  16   0  103.13    6.71
   1 -16   0   92.98    5.89
   1  16   1 1681.62   41.41
  -1  16  -1 1552.94   40.80
   1 -16   1 1495.48   39.69
  -1  16  -1 1466.30   40.14
   1  16   1 1572.02   38.99
  -1  16  -1 1518.86   37.72
  -1  16  -1 1497.71   39.98
   1  16   2    9.66    2.34
   1 -16   2   11.84    2.51
  -1  16  -2   10.89    2.51
  -1  16  -2   13.46    2.37
   1  16   2   16.64    2.61
  -1  16  -2   11.06    2.04
  -1  16  -2   11.53    2.31
  -1  16  -2   11.09    2.48
   1  16   3  676.90   20.74
   1 -16   3  635.82   21.02
  -1  16  -3  597.05   19.37
   1  16   3  639.16   19.06
  -1  16  -3  632.62   19.44
  -1 -16  -3  660.97   19.47
  -1  16  -3  613.95   19.42
   1  16   3  667.71   22.46
   1  16   4    1.99    1.46
   1 -16   4    2.46    2.18
  -1  16  -4    1.08    1.06
   1  16   4   -0.62    1.58
  -1 -16  -4   -1.84    1.64
  -1  16  -4   -0.68    1.29
   1  16   4   -0.50    2.02
   1 -16   5  376.37   15.97
   1  16   5  397.44   14.38
  -1  16  -5  379.02   13.26
   1  16   5  442.73   14.34
  -1 -16  -5  379.20   13.55
   1  16   5  409.67   16.88
  -1  16  -5  393.38   13.31
   1 -16   6   30.24    4.39
   1  16   6   35.60    3.66
  -1  16  -6   31.55    2.95
   1  16   6   38.94    3.74
   1  16   6   36.03    4.79
  -1 -16  -6   31.42    3.34
  -1  16  -6   35.65    3.15
   1 -16   7  173.64   10.68
  -1  16  -7  179.02    7.34
   1  16   7  200.30    8.91
  -1 -16  -7  166.79    8.36
   1  16   7  175.08    8.63
   1  16   7  194.50   11.47
  -1  16  -7  186.24    7.45
   1 -16   8    7.86    2.99
   1  16   8    6.99    1.98
  -1 -16  -8    2.97    1.17
  -1  16  -8    6.77    1.42
   1  16   8    4.39    2.43
   1 -16   9   25.77    4.72
   1  16   9   26.08    3.54
   1  16   9   25.61    4.69
   1 -16  10   96.86    8.55
   1  16  10   89.97    8.20
   1 -16  11   10.59    3.95
   1  16  11    8.84    3.56
   1 -16  12   10.42    3.51
   1  16  12   15.38    3.98
   1 -17 -11   37.20    5.72
  -1 -17  11   39.76    5.63
   1 -17 -10    6.50    3.27
  -1 -17  10    6.36    3.03
   1 -17  -9   52.47    6.50
  -1 -17   9   53.78    6.25
  -1  17   9   52.93    6.56
   1  17  -9   49.87    5.91
   1  17  -8   -1.63    1.37
   1 -17  -8   -0.30    2.18
  -1 -17   8   -0.32    2.00
   1  17  -8    0.94    1.87
  -1  17   8   -2.89    2.51
   1 -17  -7    1.86    2.07
   1  17  -7   -0.56    1.20
  -1 -17   7   -0.72    2.27
   1  17  -7    1.05    1.87
  -1  17   7   -2.25    2.36
   1 -17  -6    7.13    2.92
   1  17  -6    5.16    1.84
  -1 -17   6    6.31    2.49
  -1  17   6    3.91    1.27
   1  17  -6    6.82    2.47
  -1  17   6    8.42    3.07
  -1  17   5   62.91    4.28
   1 -17  -5   59.43    5.85
   1  17  -5   60.32    5.19
  -1  17   5   69.28    3.38
  -1  17   5   57.57    5.97
   1  17  -5   54.04    5.22
  -1  17   4    6.89    1.75
   1 -17  -4    4.70    2.45
   1  17  -4    3.40    1.66
  -1  17   4    4.26    0.78
   1  17  -4    6.80    2.33
  -1  17   4    5.68    2.70
  -1  17   3   99.57    6.07
   1 -17  -3  107.65    7.76
   1  17  -3   97.59    6.88
  -1  17   3  106.44    4.70
   1  17  -3   94.89    6.50
  -1  17   3  100.04    7.44
  -1  17   2   23.75    3.01
   1  17  -2   28.90    3.72
   1 -17  -2   26.11    3.83
  -1  17   2   24.08    2.18
   1  17  -2   23.71    3.23
  -1  17   2   26.42    3.90
  -1  17   1   27.83    3.46
  -1  17   1   32.62    4.13
  -1  17   1   34.92    2.93
   1  17  -1   35.09    3.75
  -1  17   1   31.02    4.25
  -1  17   0  216.92   10.21
  -1  17   0  206.75   10.41
  -1  17   0  221.44    8.40
   1  17   0  215.37    9.44
  -1  17   0  212.11   10.39
   1  17   1   16.74    2.99
  -1  17  -1   15.11    2.75
   1 -17   1   15.62    2.94
  -1  17  -1   15.87    2.85
  -1  17  -1   17.46    2.41
  -1  17  -1   18.48    3.17
   1 -17   2   70.97    5.61
   1  17   2   81.74    6.05
  -1  17  -2   71.50    5.47
   1  17   2   77.05    5.12
  -1  17  -2   77.67    5.63
  -1  17  -2   68.68    4.76
   1 -17   3    5.69    2.30
   1  17   3    8.05    2.24
  -1  17  -3    6.54    2.00
   1  17   3    8.83    1.96
  -1  17  -3    6.05    1.77
  -1 -17  -3    4.92    1.41
  -1  17  -3    6.04    2.13
   1  17   3   11.14    3.16
   1 -17   4   69.31    6.17
   1  17   4   81.84    5.92
  -1  17  -4   70.87    5.21
   1  17   4   83.24    5.32
  -1 -17  -4   80.81    5.31
   1  17   4   80.71    7.12
  -1  17  -4   72.11    5.25
   1 -17   5  137.55    9.01
   1  17   5  136.75    7.80
  -1  17  -5  131.18    7.07
   1  17   5  159.28    7.81
  -1  17  -5  143.82    7.26
   1  17   5  148.10    9.71
  -1 -17  -5  138.56    7.29
   1  17   6    0.90    1.14
   1 -17   6   -1.19    1.97
  -1  17  -6    3.47    1.43
   1  17   6    0.54    1.25
  -1 -17  -6    2.53    1.42
  -1  17  -6    1.82    1.32
   1  17   6   -1.37    2.50
   1 -17   7   21.12    4.05
   1  17   7   19.83    2.93
   1  17   7   25.97    3.27
   1  17   7   26.64    4.56
  -1 -17  -7   20.46    2.83
  -1  17  -7   18.55    2.42
   1 -17   8   13.29    3.63
   1  17   8    9.00    2.07
  -1 -17  -8    8.44    1.97
   1  17   8   12.43    3.09
  -1  17  -8    9.08    1.68
   1 -17   9   77.38    7.70
   1  17   9   82.17    5.80
   1  17   9   76.07    7.58
   1 -17  10    4.33    2.72
   1  17  10    8.03    3.03
   1 -17  11   37.35    5.72
   1  17  11   48.93    6.36
   1  17  12   13.08    3.94
   1 -18 -11   48.18    6.75
  -1 -18  11   42.83    6.04
   1  18 -11   54.71    6.58
   1 -18 -10    3.99    2.26
  -1 -18  10    4.09    3.28
   1  18 -10    5.98    2.68
   1 -18  -9   43.81    5.97
  -1 -18   9   33.29    5.23
   1  18  -9   34.16    5.11
  -1  18   9   38.55    6.06
   1 -18  -8    3.07    2.30
  -1 -18   8   -0.71    2.17
  -1  18   8   -0.38    2.28
   1  18  -8    0.58    2.00
   1  18  -7    5.70    2.08
   1 -18  -7    9.38    3.30
  -1 -18   7    5.58    2.75
   1  18  -7    7.81    2.81
  -1  18   7   12.60    3.66
   1  18  -6    3.05    1.77
   1 -18  -6    3.45    2.25
  -1  18   6    2.34    2.32
   1  18  -6   -0.05    1.86
  -1  18   5    0.11    0.99
   1 -18  -5    0.08    1.84
   1  18  -5   -3.07    1.87
  -1  18   5    2.97    1.06
   1  18  -5   -2.56    1.79
  -1  18   5    1.49    2.10
  -1  18   4   77.63    5.22
   1 -18  -4   77.20    6.78
  -1  18   4   86.52    4.06
   1  18  -4   80.04    6.19
  -1  18   4   78.85    7.02
  -1  18   3   56.64    4.63
   1 -18  -3   62.59    6.14
  -1  18   3   55.43    3.37
   1  18  -3   55.46    5.01
  -1  18   3   64.40    6.36
  -1  18   2   11.38    2.39
  -1  18   2   10.94    1.56
  -1  18   2   11.41    2.96
   1  18  -2   10.58    2.52
  -1  18   1  246.26   11.05
   1  18  -1  228.75   10.30
  -1  18   1  246.09    8.87
  -1  18   1  236.09   11.70
  -1  18   0   12.52    2.50
   1  18   0    9.56    2.21
  -1  18   0    8.89    2.49
  -1  18   0   13.01    2.17
  -1  18  -1  353.73   14.55
  -1  18  -1  372.35   12.76
   1  18   1  366.18   13.48
  -1  18  -1  366.22   14.57
   1 -18   1  374.12   14.34
   1 -18   2   -0.72    1.47
  -1  18  -2   -1.04    1.34
   1  18   2    1.70    1.41
  -1  18  -2   -1.97    1.32
  -1  18  -2    1.81    1.61
   1  18   2   -0.04    1.96
   1  18   3  290.67   12.40
   1 -18   3  253.75   12.14
  -1  18  -3  240.77   11.12
   1  18   3  266.33   10.75
  -1  18  -3  263.23   10.97
   1  18   3  281.32   13.67
  -1  18  -3  255.94   11.33
   1 -18   4  135.15    8.86
   1  18   4  148.58    8.50
  -1  18  -4  139.13    7.71
   1  18   4  148.74    7.55
  -1 -18  -4  138.30    7.41
  -1  18  -4  129.83    7.72
  -1  18  -4  148.77    7.94
   1  18   4  145.28    9.74
   1 -18   5   14.52    3.31
   1  18   5   14.51    2.67
  -1  18  -5   15.99    2.47
   1  18   5   14.47    2.53
   1  18   5   17.42    4.02
  -1 -18  -5   14.29    2.34
  -1  18  -5   13.83    2.38
   1  18   6    6.01    1.84
   1 -18   6    8.89    2.82
  -1  18  -6    5.33    1.56
   1  18   6    5.73    1.69
  -1  18  -6    7.89    2.00
  -1 -18  -6    5.88    1.69
   1  18   6    5.22    2.41
   1  18   7    4.11    1.76
   1 -18   7    2.45    2.18
   1  18   7    5.25    1.63
   1  18   7    4.26    2.59
  -1 -18  -7    0.98    1.07
  -1  18  -7    2.07    1.26
   1 -18   8    3.99    2.65
   1  18   8    4.30    1.79
   1  18   8   12.50    3.52
   1 -18   9   27.37    4.86
   1  18   9   24.96    3.38
   1  18   9   27.33    4.86
   1 -18  10   11.83    3.89
   1  18  10   14.01    3.98
   1  18  11    1.01    2.09
   1 -19 -10    7.59    3.22
  -1 -19  10    5.08    2.78
   1  19 -10    6.10    2.59
   1 -19  -9  320.34   16.89
   1  19  -9  327.98   15.95
  -1  19   9  325.73   17.36
  -1 -19   9  287.85   15.73
   1 -19  -8   10.83    3.80
  -1 -19   8    5.66    2.79
   1  19  -8   15.25    3.58
  -1  19   8   10.75    3.96
   1 -19  -7  267.19   14.49
  -1  19   7  248.24   14.29
   1  19  -7  234.23   12.64
   1 -19  -6    0.37    2.23
   1  19  -6    0.85    1.74
  -1  19   6    3.11    2.10
   1 -19  -5  563.84   21.94
  -1  19   5  554.60   14.73
  -1  19   5  547.92   21.82
   1  19  -5  526.04   19.71
  -1  19   4   -0.93    1.21
   1 -19  -4   -0.43    1.82
  -1  19   4   -1.13    1.14
   1  19  -4   -0.14    1.52
  -1  19   4   -2.31    1.95
  -1  19   3  355.16   13.78
   1 -19  -3  363.39   16.12
  -1  19   3  380.74   11.45
   1  19  -3  371.08   14.82
  -1  19   3  359.19   16.21
  -1  19   2   32.34    3.75
  -1  19   2   34.52    2.87
  -1  19   2   37.45    4.74
   1  19  -2   33.01    3.90
  -1  19   1  103.22    7.04
   1  19  -1  104.74    6.71
  -1  19   1  113.50    5.72
  -1  19   1  112.98    8.00
   1  19   0    3.11    1.59
  -1  19   0    0.76    1.59
  -1  19   0    2.82    1.47
   1  19   1   14.44    2.77
  -1  19  -1    5.58    1.78
  -1  19  -1    7.68    2.37
  -1  19  -2   91.63    6.69
  -1  19  -2   95.04    5.84
   1  19   2   99.03    6.17
  -1  19  -2   94.42    6.72
   1  19   2   99.62    7.81
   1 -19   2   97.88    7.04
   1 -19   3   37.70    4.78
  -1  19  -3   46.54    4.66
   1  19   3   42.35    4.08
   1  19   3   43.85    5.65
  -1  19  -3   43.52    4.55
  -1  19  -3   41.27    4.15
   1 -19   4    3.61    2.18
  -1  19  -4    2.46    1.61
   1  19   4    5.68    1.87
  -1  19  -4    6.92    2.14
  -1  19  -4    1.11    1.41
   1  19   4    8.30    3.01
   1  19   5   88.11    6.58
   1 -19   5   94.67    7.85
  -1  19  -5   84.32    5.93
   1  19   5  100.97    6.30
  -1  19  -5   92.38    6.19
  -1 -19  -5   89.80    5.96
   1  19   5   81.74    7.79
  -1  19  -5   84.72    6.48
   1 -19   6   57.45    6.28
   1  19   6   64.33    5.00
  -1  19  -6   50.37    4.37
   1  19   6   54.50    6.50
   1 -19   7   81.74    7.61
   1  19   7   78.97    5.63
   1  19   7   93.08    8.37
   1 -19   8    1.42    1.98
   1  19   8    4.05    1.49
   1  19   8    2.86    3.00
   1 -19   9  548.87   22.97
   1  19   9  540.72   18.33
   1  19   9  537.67   23.22
   1 -19  10    3.27    2.77
   1  19  10    3.35    2.29
   1  20 -10   72.52    7.43
   1 -20  -9  120.06   10.27
  -1  20   9  110.55   10.00
   1  20  -9   97.95    8.61
   1 -20  -8  298.14   16.28
   1  20  -8  277.49   14.61
  -1  20   8  304.15   16.59
   1 -20  -7    8.27    3.11
   1  20  -7    1.55    2.25
  -1  20   7   10.57    3.54
   1 -20  -6  294.18   15.46
  -1  20   6  287.65   15.38
   1  20  -6  274.83   13.60
   1 -20  -5   21.64    4.39
  -1  20   5   21.75    4.36
   1  20  -5   25.50    3.87
   1 -20  -4  416.21   18.34
  -1  20   4  439.14   12.62
   1  20  -4  425.11   16.94
  -1  20   4  420.34   18.62
  -1  20   3  148.61    8.50
   1  20  -3  169.99    9.43
  -1  20   3  168.30    6.70
  -1  20   3  176.39   11.04
  -1  20   2   62.63    5.39
   1  20  -2   62.48    5.41
  -1  20   2   66.79    4.10
  -1  20   2   63.61    6.44
   1  20  -1  129.37    7.68
  -1  20   1  132.41    6.39
  -1  20   1  135.34    9.15
   1  20   0   16.74    2.88
  -1  20   0   18.59    2.55
  -1  20   0   13.36    3.16
  -1  20  -1  327.80   12.16
   1  20   1  329.72   13.00
   1  20   1  349.09   15.82
  -1  20  -1  311.62   14.14
   1 -20   2    1.63    1.83
   1  20   2    1.13    1.37
  -1  20  -2    4.77    2.24
   1  20   2    2.14    2.31
  -1  20  -2    1.25    1.30
  -1  20  -3  790.17   25.40
   1  20   3  822.90   24.17
   1  20   3  847.71   28.76
   1 -20   3  805.55   26.69
  -1  20  -3  840.27   24.68
  -1  20  -3  811.22   25.59
   1 -20   4   40.77    5.35
  -1  20  -4   46.92    4.68
   1  20   4   51.14    4.45
  -1  20  -4   47.58    4.74
  -1  20  -4   50.09    4.87
   1  20   4   44.70    5.77
   1 -20   5  280.71   14.34
   1  20   5  317.27   12.44
  -1  20  -5  308.46   12.61
   1  20   5  309.58   15.99
  -1  20  -5  281.71   12.95
   1 -20   6   86.52    7.90
   1  20   6   98.76    6.29
  -1  20  -6   82.84    6.78
  -1  20  -6  103.94    6.36
   1  20   6  104.35    9.00
   1 -20   7   60.80    6.92
   1  20   7   61.61    5.01
   1  20   7   62.62    7.13
   1 -20   8  157.53   11.17
   1  20   8  154.26   11.49
   1 -20   9   40.18    6.18
   1  20   9   46.95    6.56
   1  21  -9    7.54    3.24
   1 -21  -8   34.92    6.02
  -1  21   8   45.91    6.58
   1  21  -8   39.87    5.37
   1 -21  -7   61.66    7.20
  -1  21   7   68.25    7.62
   1  21  -7   65.22    6.67
   1 -21  -6    5.30    2.89
   1  21  -6    0.01    1.78
  -1  21   6    2.24    2.40
   1  21  -5   59.80    5.99
  -1  21   5   62.81    6.79
   1  21  -4   85.20    6.98
  -1  21   4   86.70    8.21
   1  21  -3   70.16    6.02
  -1  21   3   81.56    7.55
   1  21  -2   76.84    6.16
  -1  21   2   80.01    4.64
  -1  21   2   81.31    7.45
  -1  21   1   17.91    2.34
   1  21  -1   15.77    2.94
  -1  21   1   15.44    3.46
  -1  21   0  480.41   15.33
   1  21   0  480.37   17.21
   1  21   0  475.71   19.66
  -1  21   0  444.20   18.46
   1  21   1    9.64    2.44
  -1  21  -1   10.51    2.31
   1  21   1    6.94    3.18
  -1  21  -1    5.06    2.20
  -1  21  -2  301.29   12.09
   1  21   2  304.48   12.35
  -1  21  -2  287.90   13.50
   1  21   2  306.46   15.39
   1 -21   3   11.06    3.22
   1  21   3   11.05    2.53
   1  21   3   15.02    3.73
  -1  21  -3   10.10    2.63
  -1  21  -3   12.04    2.46
   1 -21   4  354.37   16.38
   1  21   4  378.78   14.06
  -1  21  -4  370.53   14.83
  -1  21  -4  372.43   15.06
   1  21   4  388.87   18.21
   1 -21   5    2.62    2.10
   1  21   5    4.48    1.80
  -1  21  -5    2.21    1.46
   1  21   5   -1.10    2.44
  -1  21  -5    2.10    1.58
   1 -21   6  135.61   10.06
   1  21   6  159.82    8.29
  -1  21  -6  136.78    9.06
   1  21   6  144.77   11.04
   1 -21   7   31.42    4.77
   1  21   7   35.68    5.51
  -1  21  -7   32.97    4.46
   1 -21   8   12.63    3.82
   1  21   8   17.22    4.47
   1  22  -8   20.65    4.13
   1 -22  -7   -0.59    2.24
   1  22  -7    3.06    2.21
  -1  22   7   -4.16    2.94
   1  22  -6  128.22    9.17
  -1  22   6  127.44   10.44
   1  22  -5    1.58    2.04
  -1  22   5    1.97    2.65
  -1  22   4   41.24    5.75
   1  22  -4   45.72    5.12
   1  22  -3    6.62    2.46
  -1  22   3   13.95    3.74
   1  22  -2    3.85    1.93
  -1  22   2    9.68    3.35
   1  22  -1   12.54    2.83
  -1  22   1   18.28    2.41
   1  22  -1   13.52    3.22
  -1  22   1   26.39    4.33
  -1  22   0    6.73    1.90
   1  22   0    5.44    2.20
  -1  22   0    4.30    2.18
   1  22   0    2.67    2.08
   1  22   1   35.47    4.14
  -1  22  -1   36.55    3.78
   1  22   1   33.72    5.21
  -1  22  -1   23.43    3.89
   1  22   2   13.96    2.67
  -1  22  -2   17.55    3.49
  -1  22  -2   15.61    2.61
   1  22   2   17.90    3.92
   1  22   3    3.74    1.68
  -1  22  -3   13.79    3.07
  -1  22  -3    7.20    2.02
   1  22   3    6.96    2.86
   1 -22   4    3.82    2.35
   1  22   4    1.78    1.80
  -1  22  -4    2.23    1.88
  -1  22  -4   -1.01    1.34
   1  22   4    1.61    2.28
   1 -22   5    3.19    2.50
   1  22   5    2.84    1.28
   1  22   5    1.13    2.28
  -1  22  -5    8.76    2.47
  -1  22  -5    3.13    1.86
   1 -22   6   61.17    6.78
  -1  22  -6   56.46    5.74
   1  22   6   62.32    7.31
   1 -22   7   -5.23    3.15
  -1  22  -7   -0.68    1.82
  -1  22  -8    7.31    2.65
  -1  22  -9   -2.57    2.22
   1  23  -8    4.46    2.80
   1  23  -7   20.90    4.11
   1  23  -6    0.56    2.00
  -1  23   6   -2.92    2.30
   1  23  -5   13.74    3.43
  -1  23   5   13.68    4.05
   1  23  -4   -0.31    1.94
  -1  23   4   -0.78    2.19
  -1  23   3   24.93    4.32
   1  23  -3    0.51    1.56
   1  23  -2   14.47    3.02
   1  23  -2   10.24    3.16
  -1  23   2   22.98    4.56
   1  23  -1    4.39    2.37
  -1  23   1    4.04    2.85
   1  23  -1   -0.19    2.01
   1  23   0  146.06    8.64
   1  23   0  136.21   10.19
  -1  23   0  147.55   10.05
  -1  23  -1    4.84    1.60
   1  23   1    7.78    2.38
  -1  23  -1    1.21    1.86
   1  23   1    2.77    2.53
   1  23   2    2.03    1.42
   1  23   2   -0.76    2.07
  -1  23  -2    3.40    1.32
  -1  23  -2   -1.62    2.37
   1  23   3    2.50    1.53
  -1  23  -3    0.35    1.27
  -1  23  -3    1.89    1.72
   1  23   3    6.39    3.34
  -1  23  -4   24.35    3.34
   1  23   4   31.22    5.23
  -1  23  -4   31.79    4.36
   1 -23   5    8.93    3.20
  -1  23  -5    6.48    2.20
   1  23   5    4.28    2.90
   1 -23   6   29.07    5.12
  -1  23  -6   24.84    3.99
  -1  23  -7   10.97    2.96
  -1  23  -8   16.20    3.71
   1  24  -7    1.70    2.14
   1  24  -6  328.33   16.19
   1  24  -5    0.75    1.73
  -1  24   5    0.12    2.35
   1  24  -4  275.85   13.90
  -1  24   4  283.96   16.19
   1  24  -4  304.25   15.39
  -1  24   3   13.72    3.90
   1  24  -3   13.59    3.18
   1  24  -3   24.23    4.74
   1  24  -2  145.95    9.27
   1  24  -2  155.84   11.00
  -1  24   2  163.00   11.50
   1  24  -1   -2.11    1.98
   1  24  -1   -0.91    2.14
   1  24   0   46.00    4.98
   1  24   0   33.72    5.25
  -1  24   0   34.48    5.15
  -1  24  -1   -1.10    2.20
   1  24   1    0.07    2.31
   1  24   2    2.89    1.98
  -1  24  -2    0.93    1.75
   1  24   2    0.17    2.10
  -1  24  -3   48.90    4.82
   1  24   3   53.06    6.75
  -1  24  -3   48.85    5.50
   1  24   4   31.26    5.72
  -1  24  -4   29.47    4.06
  -1  24  -5    1.82    1.52
  -1  24  -6  145.67    9.59
  -1  24  -7    1.25    1.62
  -1  24  -8  244.66   13.87
   1  25  -6    1.00    2.10
   1  25  -5  103.81    8.29
   1  25  -5  106.58    8.86
   1  25  -4   52.03    5.77
   1  25  -4   66.40    7.16
   1  25  -3  117.68    8.63
  -1  25   3  139.27   11.00
   1  25  -3  143.23   10.50
   1  25  -2  202.37   11.36
  -1  25   2  217.00   13.67
   1  25  -2  214.88   13.26
   1  25  -1   28.32    4.05
   1  25  -1   22.43    4.43
  -1  25   1   28.35    5.08
   1  25   0  415.05   16.65
  -1  25   0  400.59   18.83
   1  25   0  423.73   19.90
  -1  25  -1    7.48    2.67
   1  25   1    2.36    2.43
  -1  25  -2  365.53   16.98
   1  25   2  351.76   18.51
   1  26  -5    5.94    2.27
   1  26  -4   43.86    5.25
   1  26  -4   38.57    5.66
   1  26  -3   17.36    3.52
   1  26  -3   27.18    4.90
  -1  26   2   38.83    6.10
   1  26  -2   29.80    4.99
  -1  26   1  160.45   11.61
   1  26  -1  153.22   11.61
  -1  26   0    7.07    2.68
   1  26   0    4.99    2.30
  -1  26  -1   90.21    8.18
  -1  26  -2   -1.16    2.05
  -1  27   0    1.78    2.29
  -1  27  -1   -3.46    2.46
   2   0 -17    0.03    1.82
   2   0 -16  148.83   10.07
   2   0 -15    2.70    2.08
  -2   0  15    0.02    1.35
   2   0 -14  984.35   29.59
  -2   0  14  863.54   26.30
   2   0 -13    2.54    2.01
  -2   0  13   -0.15    1.27
   2   0 -13    1.45    1.32
   2   0 -12  872.92   26.04
   2   0 -12  837.59   23.48
  -2   0  12  764.57   23.07
   2   0 -11   -0.65    1.71
  -2   0  11   -0.28    1.15
   2   0 -11    0.03    1.07
   2   0 -11    0.71    1.27
   2   0 -10 1780.33   43.84
   2   0 -10 1724.14   41.05
  -2   0  10 1575.95   40.69
   2   0  -9    0.16    1.47
  -2   0   9    1.35    1.17
   2   0  -9    0.63    0.83
   2   0  -8  846.96   23.62
   2   0  -8  780.66   21.01
  -2   0   8  805.27   21.09
   2   0  -7    0.72    1.37
   2   0  -7    1.29    0.87
  -2   0   7    0.84    1.03
   2   0  -6  283.01   11.17
   2   0  -6  317.26    9.51
   2   0  -5   -1.58    0.83
   2   0  -4    2.39    1.00
   2   0  -4    3.72    1.47
   2   0  -3    6.84    1.52
  -2   0   3    6.31    1.35
   2   0  -2   70.22    3.43
  -2   0   2   60.63    2.63
  -2   0   2   82.31    3.46
   2   0  -1    2.73    1.38
   2   0  -1   -0.12    0.57
  -2   0   1    3.99    1.12
   2   0   0 9999.00  213.83
  -2   0   0 9905.03  213.83
  -2   0  -1   -0.59    1.00
   2   0   1    0.83    1.29
   2   0   2 1541.78   35.80
  -2   0  -2 1512.16   35.75
   2   0   3    0.37    1.44
  -2   0  -3    2.20    1.32
   2   0   4 1446.82   34.39
  -2   0  -4 1535.61   36.64
   2   0   4 1601.02   36.79
   2   0   5    2.41    1.71
   2   0   5    1.18    0.78
  -2   0  -5   -0.28    1.36
   2   0   6 3379.30   76.51
   2   0   6 3235.98   73.59
  -2   0  -6 3401.35   76.80
   2   0   6 3323.37   73.44
   2   0   7    0.22    1.43
   2   0   7    0.72    0.81
  -2   0  -7    0.79    1.17
   2   0   7    0.95    0.90
   2   0   8  943.52   26.02
   2   0   8  841.79   22.39
  -2   0  -8  949.61   26.20
   2   0   8  877.93   22.54
   2   0   9   -0.90    1.65
   2   0   9   -1.06    0.95
  -2   0  -9    2.30    1.63
   2   0   9    0.21    0.93
   2   0  10  278.48    9.95
   2   0  10  321.37   13.28
   2   0  11    0.58    0.93
   2   0  11   -0.90    1.71
   2   0  12   40.37    3.58
   2   0  12   47.31    5.25
   2   0  13    3.78    2.16
   2   0  14  137.71    9.49
   2   0  15   -2.03    2.33
   2   0  16  259.02   14.21
   2   0  17    1.43    2.16
   2   1 -17   16.30    3.61
   2  -1 -17   17.45    3.81
   2   1 -16  110.11    8.26
   2  -1 -16  110.78    8.68
  -2  -1  16   87.91    6.63
   2   1 -15   82.40    7.07
   2  -1 -15   89.25    7.61
  -2  -1  15   69.38    5.79
  -2   1  15   70.64    5.37
   2  -1 -14   39.89    5.10
   2   1 -14   57.15    5.95
  -2   1  14   37.95    3.87
  -2  -1  14   49.89    4.96
   2   1 -13  435.55   16.47
   2  -1 -13  422.89   16.70
   2   1 -13  409.70   14.74
   2  -1 -13  420.67   14.06
  -2   1  13  359.79   13.60
  -2  -1  13  364.64   14.39
   2  -1 -12    0.63    0.93
   2   1 -12   -1.61    1.78
   2  -1 -12    2.74    2.12
   2   1 -12    3.87    1.66
  -2   1  12    1.50    1.42
  -2  -1  12    2.09    1.57
   2   1 -11   62.74    5.22
   2  -1 -11   60.27    5.20
   2  -1 -11   62.66    4.11
  -2  -1  11   61.55    4.51
   2   1 -11   66.42    4.65
  -2   1  11   53.49    3.95
   2  -1 -11   66.31    5.50
   2   1 -11   66.29    5.33
   2   1 -10  198.27    9.61
   2  -1 -10  213.01   10.08
   2   1 -10  184.71    8.21
  -2  -1  10  194.55    8.46
  -2   1  10  187.11    7.78
   2  -1 -10  187.35    7.70
   2  -1 -10  208.86   10.07
   2  -1  -9  167.89    8.45
   2   1  -9  164.01    8.18
   2  -1  -9  155.13    6.47
   2   1  -9  154.76    6.96
  -2   1   9  148.32    6.34
  -2  -1   9  149.76    6.96
   2  -1  -8  398.20   13.95
   2   1  -8  381.34   13.43
  -2  -1   8  371.28   11.96
   2  -1  -8  352.40   11.08
  -2   1   8  370.93   11.18
   2   1  -8  381.85   12.07
   2   1  -7   16.75    2.84
   2  -1  -7   15.88    2.67
   2   1  -7   19.73    2.14
  -2  -1   7   18.37    2.23
   2  -1  -7   16.50    1.78
  -2   1   7   20.77    2.01
   2  -1  -6  737.91   21.18
   2   1  -6  753.78   19.37
   2  -1  -6  728.40   18.38
   2  -1  -5    2.01    1.82
   2   1  -5    0.54    0.87
   2  -1  -5    0.85    0.63
   2  -1  -4  665.14   16.36
   2   1  -4  676.23   17.16
   2  -1  -4  670.64   17.03
   2   1  -4  664.46   17.60
  -2  -1   4  724.91   17.60
   2   1  -3   21.34    2.27
  -2  -1   3   15.68    1.78
   2  -1  -3   21.16    1.88
   2  -1  -2 2115.96   46.40
   2   1  -2 2203.65   47.20
  -2  -1   2 2193.31   47.13
  -2   1   2 2069.41   46.32
   2   1  -2 1986.31   46.09
  -2   1   2 2051.99   45.51
  -2   1   1   74.96    3.36
  -2  -1   1   87.18    3.78
   2   1  -1   92.77    3.99
   2  -1  -1   74.83    3.43
   2  -1   0 1208.28   28.77
  -2   1   0 1236.44   28.75
  -2  -1   0 1264.81   29.28
   2   1   0 1293.23   29.46
   2   1   1  105.01    4.60
  -2  -1  -1  105.46    4.47
   2  -1   1  101.65    4.42
  -2   1  -1   98.33    4.17
   2  -1   2  116.40    5.29
   2   1   2  128.19    5.69
  -2  -1  -2  130.44    5.38
  -2   1  -2  125.12    5.34
  -2   1  -3   29.24    2.53
  -2  -1  -3   29.43    2.63
   2   1   3   34.13    2.96
   2  -1   3   31.48    2.80
  -2   1  -4   15.56    2.24
   2   1   4   14.02    2.28
  -2  -1  -4   13.25    2.23
   2  -1   4   15.66    1.52
   2   1   4   17.69    1.85
   2  -1   4   11.73    2.32
   2  -1   5  782.59   21.01
   2  -1   5  723.00   17.95
   2   1   5  746.73   18.98
  -2  -1  -5  745.46   20.83
  -2   1  -5  728.79   20.69
   2   1   5  786.09   20.99
   2  -1   6  219.21    9.59
   2   1   6  225.99    9.37
   2   1   6  222.20    7.82
   2  -1   6  205.35    6.79
  -2  -1  -6  207.91    9.06
  -2   1  -6  231.50    9.54
   2  -1   6  220.32    6.85
   2   1   6  240.87    7.85
   2  -1   7  332.85   12.31
   2   1   7  323.69   11.87
   2  -1   7  286.16    8.96
   2   1   7  304.42    9.96
  -2  -1  -7  337.50   12.35
  -2   1  -7  319.08   12.02
   2  -1   7  302.08    9.06
   2   1   7  323.53   10.06
   2   1   8  465.36   15.51
   2  -1   8  478.20   16.06
   2  -1   8  409.52   12.22
   2   1   8  434.60   13.27
  -2  -1  -8  477.85   16.04
  -2   1  -8  478.33   16.04
   2   1   8  439.90   13.30
   2  -1   8  447.31   12.48
   2  -1   9   17.17    2.92
   2   1   9   20.29    3.09
   2  -1   9   14.05    1.74
   2   1   9   15.11    2.02
  -2   1  -9   23.06    3.36
  -2  -1  -9   15.55    2.89
   2   1   9   19.30    2.34
   2   1  10  607.92   17.61
   2  -1  10  589.62   16.53
   2  -1  10  593.93   20.23
   2   1  10  629.27   20.13
   2  -1  11    3.71    1.21
   2   1  11    2.98    1.21
   2  -1  11    6.29    2.26
   2   1  11    2.55    1.76
   2   1  12  845.24   23.73
   2  -1  12  816.13   26.78
   2   1  12  847.69   26.68
   2   1  13   58.80    4.65
   2  -1  13   62.82    6.25
   2   1  13   59.53    6.01
   2   1  14  296.15   14.27
   2  -1  14  289.47   14.47
   2  -1  15   66.95    6.88
   2   1  15   89.99    7.70
   2  -1  16  126.42    9.84
   2   1  16  129.79    9.64
   2  -1  17   45.56    5.98
   2   1  17   42.63    5.60
   2  -2 -18   -3.39    2.50
   2   2 -17   54.02    5.78
   2  -2 -17   51.10    6.14
   2   2 -16    3.46    2.21
   2  -2 -16    2.99    2.43
  -2  -2  16   -1.11    1.63
  -2  -2  16    2.64    3.06
   2  -2 -15   11.68    3.02
   2   2 -15   13.70    3.29
  -2  -2  15   10.81    2.47
  -2  -2  15   13.92    4.05
   2  -2 -14    6.08    2.52
   2   2 -14    7.11    2.44
  -2   2  14    8.40    1.97
  -2  -2  14    8.67    2.35
   2  -2 -13    1.89    2.05
   2   2 -13    0.29    1.56
   2   2 -13   -0.49    1.14
  -2   2  13    0.24    1.10
  -2  -2  13    2.43    2.10
   2  -2 -12   62.02    5.68
   2   2 -12   50.55    4.87
  -2   2  12   56.02    4.05
   2   2 -12   53.54    4.60
  -2  -2  12   49.57    4.44
   2   2 -12   69.45    5.53
   2   2 -11   35.60    4.14
   2  -2 -11   33.81    4.32
   2  -2 -11   28.65    2.66
  -2  -2  11   29.50    3.34
   2   2 -11   31.42    3.43
  -2   2  11   30.75    2.98
   2  -2 -11   36.29    4.21
   2   2 -10  158.99    8.26
   2  -2 -10  166.06    8.86
   2   2 -10  153.08    7.49
   2  -2 -10  160.28    6.50
  -2  -2  10  146.19    7.49
  -2   2  10  155.29    6.49
   2  -2 -10  174.34    9.00
   2   2  -9  133.46    7.44
   2  -2  -9  127.95    7.59
   2  -2  -9  118.21    5.29
   2   2  -9  134.12    6.60
  -2   2   9  123.67    5.37
  -2  -2   9  128.26    6.57
   2  -2  -9  134.48    7.59
   2   2  -8   27.66    3.37
   2  -2  -8   20.27    3.08
  -2   2   8   28.40    2.26
   2   2  -8   23.70    2.61
   2  -2  -8   21.81    1.96
  -2  -2   8   31.91    3.17
   2  -2  -7  327.11   12.04
   2  -2  -7  286.40    8.80
  -2  -2   7  317.78   10.48
   2   2  -7  322.31   10.63
   2  -2  -6    3.77    1.94
  -2  -2   6    4.35    1.65
   2  -2  -6    1.51    0.63
   2   2  -6    1.60    1.06
  -2  -2   6    4.81    2.07
   2  -2  -5  359.25   12.12
   2   2  -5  344.14   10.65
   2  -2  -5  343.82    9.13
  -2  -2   5  360.15   11.24
   2  -2  -4    4.01    1.85
   2  -2  -4    5.54    0.84
   2   2  -4    7.27    1.48
   2  -2  -4    6.90    1.19
   2   2  -4    5.12    1.72
  -2  -2   4    3.81    1.37
   2  -2  -3   94.16    4.87
   2  -2  -3   83.86    3.43
  -2  -2   3   94.76    3.96
   2   2  -3   90.63    4.00
   2   2  -3   93.14    4.34
   2   2  -2  206.22    6.85
  -2  -2   2  205.65    6.69
   2   2  -2  167.34    5.75
  -2   2   2  200.27    5.54
   2  -2  -1    4.16    1.00
  -2   2   1    2.92    0.84
   2   2  -1    3.31    1.43
  -2  -2   1    4.45    1.22
   2  -2   0 2161.12   49.79
  -2  -2   0 2262.21   50.65
  -2   2   0 2232.78   49.76
   2   2   0 2376.16   51.07
   2   2   1    8.45    1.78
  -2  -2  -1    8.77    1.57
  -2   2  -1    7.08    1.24
   2  -2   1    6.46    1.53
   2  -2   2   60.66    3.56
   2   2   2   61.82    3.89
  -2  -2  -2   60.07    3.51
  -2   2  -2   67.52    3.52
  -2  -2  -3   27.08    2.78
   2   2   3   30.01    3.13
  -2   2  -3   33.54    2.77
   2  -2   3   29.55    3.18
   2  -2   4   10.86    2.24
  -2   2  -4    9.38    1.74
   2   2   4   13.19    2.13
  -2  -2  -4   13.47    1.98
   2  -2   4   11.27    1.03
   2   2   4   13.23    1.68
   2  -2   5   89.61    5.65
   2   2   5   96.58    4.67
   2  -2   5   88.57    3.31
   2   2   5   96.74    5.61
  -2  -2  -5   90.54    5.43
  -2   2  -5   85.39    5.38
   2  -2   6  591.09   17.63
   2   2   6  562.76   15.72
   2  -2   6  534.16   13.50
  -2   2  -6  557.85   17.22
   2   2   6  573.11   17.37
  -2  -2  -6  583.20   17.37
   2  -2   6  545.48   13.51
   2   2   7  305.12   11.29
   2  -2   7  315.62   11.95
   2  -2   7  257.57    7.98
   2   2   7  292.91    9.96
  -2   2  -7  313.45   11.82
  -2  -2  -7  301.68   11.67
   2   2   7  318.70   10.11
   2  -2   8   46.82    4.56
   2   2   8   44.63    4.19
   2  -2   8   41.41    2.50
   2   2   8   46.28    3.45
  -2  -2  -8   46.81    4.28
  -2   2  -8   48.95    4.54
   2   2   8   50.40    3.62
   2   2   9  184.36    8.88
   2  -2   9  169.00    8.89
   2   2   9  173.88    7.52
   2  -2   9  168.85    6.07
  -2  -2  -9  183.54    9.23
  -2   2  -9  180.93    9.30
   2   2   9  179.70    7.64
   2   2  10   -0.01    1.19
   2  -2  10   -0.84    1.78
   2   2  10    2.97    1.77
   2   2  10   -0.44    1.18
   2   2  11  113.64    6.28
   2  -2  11  102.21    7.39
   2   2  11  112.11    7.27
   2   2  12    1.36    1.27
   2   2  12    1.71    1.67
   2  -2  12    0.47    1.76
   2   2  13  151.24    8.02
   2   2  13  160.80    9.67
   2  -2  13  166.56   10.30
   2  -2  14   15.88    3.64
   2   2  14    5.78    2.77
   2  -2  15   30.69    4.95
   2   2  15   30.93    4.55
   2  -2  16    0.93    2.04
   2   2  16    3.53    2.20
   2  -2  17    2.45    2.00
   2   2  17   -0.09    1.80
   2  -3 -18   76.24    7.91
   2  -3 -17   -0.86    2.30
   2   3 -16   39.61    5.02
   2  -3 -16   30.86    4.93
  -2  -3  16   26.04    3.89
  -2  -3  16   40.29    6.00
   2  -3 -15    2.60    2.08
   2   3 -15    5.04    2.42
  -2  -3  15    5.06    2.24
  -2  -3  15    3.69    2.58
   2   3 -14    1.45    1.60
   2  -3 -14    3.03    2.47
  -2   3  14    1.14    1.23
  -2  -3  14    2.05    1.69
  -2  -3  14    4.95    2.83
   2  -3 -13   20.07    3.56
   2   3 -13   20.17    3.34
  -2   3  13   19.67    2.44
  -2  -3  13   25.31    3.63
   2   3 -13   24.08    3.41
  -2  -3  13   27.03    4.60
   2   3 -12   -0.21    1.47
   2  -3 -12    1.27    1.91
  -2   3  12    0.78    1.20
   2   3 -12    1.25    1.14
  -2  -3  12    1.83    1.95
  -2  -3  12    0.99    2.72
   2   3 -11    5.00    1.79
   2  -3 -11    8.49    2.48
  -2   3  11    5.71    1.29
  -2  -3  11    8.03    2.23
   2   3 -11    3.53    1.44
  -2  -3  11   11.93    3.21
   2   3 -10  102.13    6.65
   2  -3 -10  106.16    7.30
   2   3 -10   93.56    5.99
  -2   3  10   91.91    4.54
  -2  -3  10   98.85    6.08
   2  -3 -10  104.07    7.02
  -2  -3  10  108.41    7.54
   2   3  -9    9.00    2.41
   2  -3  -9    5.13    2.13
   2  -3  -9    3.14    1.10
  -2   3   9    7.13    1.38
  -2  -3   9   10.73    2.39
   2   3  -9    4.38    1.58
  -2  -3   9    9.28    2.97
   2  -3  -9    3.77    1.99
   2  -3  -8  205.50    9.59
   2  -3  -8  179.09    6.29
   2   3  -8  210.54    8.58
  -2  -3   8  206.13    8.41
   2  -3  -8  214.54    9.88
  -2   3   8  199.34    6.43
  -2  -3   8  215.64    9.59
   2  -3  -7   12.04    2.64
   2   3  -7   13.04    2.18
  -2  -3   7   20.73    2.62
   2  -3  -7    8.78    1.15
   2  -3  -7    8.92    2.12
  -2  -3   7   11.70    2.65
   2  -3  -6  109.68    6.26
   2  -3  -6   99.53    3.54
   2   3  -6  113.10    5.51
  -2  -3   6  104.27    5.79
  -2  -3   6  112.29    5.32
   2  -3  -5   23.42    3.23
   2   3  -5   36.19    2.96
   2  -3  -5   23.58    1.43
  -2  -3   5   24.40    2.79
   2  -3  -4  596.81   16.58
   2  -3  -4  560.58   12.94
   2   3  -4  570.85   15.45
   2  -3  -4  537.21   13.78
  -2  -3   4  570.80   15.39
   2   3  -4  546.47   15.63
   2  -3  -3   40.08    3.61
   2  -3  -3   46.94    2.25
   2   3  -3   56.05    3.64
   2   3  -3   56.01    3.36
   2   3  -3   45.44    3.09
   2  -3  -2   20.78    2.67
   2   3  -2   40.61    3.21
   2  -3  -2   21.96    1.60
  -2  -3   2   41.72    2.84
   2   3  -2   29.36    2.25
  -2   3   2   30.71    1.67
   2  -3  -1   26.75    2.55
  -2  -3   1   32.11    2.53
   2   3  -1   34.93    2.71
   2  -3  -1   27.75    1.74
  -2   3   1   28.69    1.69
  -2   3   0  580.44   14.08
   2  -3   0  531.68   14.05
  -2  -3   0  587.21   15.23
   2   3   0  619.05   15.75
   2  -3   1  264.45    8.67
   2  -3   1  264.90    8.13
  -2   3  -1  276.14    8.06
   2   3   1  294.62    9.01
  -2  -3  -1  280.74    8.79
   2  -3   1  254.96    7.01
   2  -3   2    1.32    1.46
   2   3   2    0.81    1.58
  -2  -3  -2    2.26    1.19
  -2   3  -2    0.44    0.97
   2  -3   3  106.55    5.40
  -2  -3  -3  105.08    5.10
   2   3   3  109.65    5.25
  -2   3  -3  106.86    4.90
   2  -3   4    3.28    1.78
   2  -3   4    2.52    0.49
   2   3   4    2.41    1.12
  -2  -3  -4    1.54    1.14
  -2   3  -4    3.73    1.54
   2   3   4    3.32    1.66
   2  -3   5  176.13    7.74
   2  -3   5  151.80    4.08
   2   3   5  149.80    6.31
   2   3   5  148.56    6.99
  -2   3  -5  165.33    7.39
  -2  -3  -5  155.73    7.16
   2  -3   5  152.49    4.08
   2  -3   6   62.29    4.79
   2  -3   6   46.44    1.89
   2   3   6   63.15    4.11
  -2  -3  -6   61.80    4.65
   2   3   6   61.71    4.57
  -2   3  -6   50.97    4.26
   2  -3   7   24.66    3.41
   2  -3   7   22.83    1.37
   2   3   7   23.11    2.57
  -2  -3  -7   24.84    3.17
  -2   3  -7   24.54    3.14
   2   3   7   24.38    2.58
   2   3   8  205.04    9.34
   2  -3   8  205.58    9.74
   2   3   8  200.23    8.35
  -2  -3  -8  211.44    9.73
  -2   3  -8  202.01    9.78
   2   3   8  206.72    8.44
   2  -3   9   39.38    4.45
   2   3   9   45.22    4.43
   2   3   9   41.57    3.60
  -2  -3  -9   43.89    4.56
  -2   3  -9   42.68    4.56
   2   3   9   44.60    3.82
   2   3  10  535.95   17.39
   2   3  10  585.89   19.09
   2  -3  10  580.33   19.92
   2   3  10  575.89   17.76
   2   3  11   19.64    2.91
   2  -3  11   19.84    3.55
   2   3  11   24.45    3.64
   2   3  11   20.41    3.10
   2   3  12   22.21    3.03
   2   3  12   24.56    3.58
   2  -3  12   21.35    3.69
   2   3  13    1.73    1.51
   2   3  13    6.28    2.72
   2  -3  13    0.84    2.13
   2   3  14  112.14    8.22
   2  -3  14  118.45    9.01
   2  -3  15    5.43    2.31
   2   3  15    8.45    2.94
   2  -3  16   12.07    3.51
   2   3  16   10.22    2.93
   2   3  17    1.57    1.99
   2  -3  17    4.92    2.92
   2  -4 -18    6.98    3.31
   2  -4 -17  139.22   10.58
   2   4 -16  110.04    8.06
   2  -4 -16  109.91    9.21
  -2  -4  16   93.96    7.56
  -2  -4  16  113.43    9.83
   2   4 -15   45.49    5.15
   2  -4 -15   54.01    6.35
  -2  -4  15   39.17    4.97
  -2  -4  15   50.80    6.56
   2   4 -14   92.75    6.85
   2  -4 -14   82.75    7.45
  -2   4  14   77.87    4.68
  -2  -4  14   72.97    6.28
  -2  -4  14   93.61    8.17
   2  -4 -13   32.15    4.72
   2   4 -13   35.10    4.42
  -2  -4  13   36.81    4.49
  -2   4  13   32.67    2.92
  -2  -4  13   41.53    5.61
   2  -4 -12  702.75   23.41
   2   4 -12  732.77   22.15
   2   4 -12  694.65   21.86
  -2   4  12  635.24   17.87
  -2  -4  12  596.95   21.11
  -2  -4  12  721.86   24.05
   2   4 -11    2.65    1.63
   2  -4 -11    0.67    1.97
  -2   4  11    2.30    0.96
  -2  -4  11    3.31    1.88
   2   4 -11    2.86    1.60
  -2  -4  11    3.95    2.59
   2   4 -10  319.59   12.15
   2  -4 -10  301.42   13.03
  -2  -4  10  278.92   11.51
   2   4 -10  292.41   11.84
  -2   4  10  287.70    8.95
   2  -4 -10  321.90   13.26
  -2  -4  10  328.90   13.37
   2   4  -9  105.80    6.52
   2  -4  -9   99.79    6.94
  -2  -4   9   99.64    6.07
   2   4  -9  104.59    6.19
   2  -4  -9  107.19    7.01
  -2  -4   9  109.31    7.05
  -2   4   9   91.77    3.96
   2  -4  -8  232.59   10.50
   2   4  -8  235.93    9.68
  -2  -4   8  228.73    9.44
   2  -4  -8  235.63   10.53
  -2  -4   8  232.54   10.40
   2  -4  -7  584.94   19.30
  -2  -4   7  617.23   18.14
   2   4  -7  637.78   18.48
   2  -4  -7  621.91   19.51
  -2  -4   7  610.69   18.87
   2  -4  -6    2.83    1.53
   2   4  -6    4.22    1.47
  -2  -4   6    7.40    1.72
   2  -4  -6    6.55    1.90
  -2  -4   6    6.19    1.99
   2  -4  -5 1417.21   35.82
   2   4  -5 1411.04   34.55
  -2  -4   5 1388.13   34.61
   2  -4  -5 1414.29   35.86
   2  -4  -4    6.66    2.05
   2   4  -4    5.97    1.54
   2   4  -4    4.67    1.71
   2   4  -4    9.34    1.86
   2  -4  -4    7.26    0.94
  -2  -4   4    7.17    1.72
   2   4  -3 1200.95   28.97
   2  -4  -3 1247.78   29.81
   2  -4  -3 1149.30   26.14
   2   4  -3 1196.48   28.56
   2   4  -3 1193.35   29.00
   2  -4  -2  209.97    8.28
   2   4  -2  297.60    9.01
  -2   4   2  282.45    6.12
  -2  -4   2  277.67    8.61
   2  -4  -1  526.38   14.02
   2  -4  -1  563.66   15.19
   2  -4  -1  528.23   13.20
  -2  -4   1  594.07   15.36
  -2   4   1  569.66   13.19
   2   4  -1  635.87   15.59
   2  -4   0   11.85    1.70
   2  -4   0    8.62    1.48
  -2   4   0   11.97    1.24
   2   4   0   14.79    2.18
   2  -4   0   10.68    1.35
  -2  -4   0   12.24    1.84
  -2   4   0   11.32    1.00
   2  -4   1  527.07   14.78
   2  -4   1  508.24   13.73
  -2  -4  -1  556.37   15.10
   2   4   1  603.54   15.55
  -2   4  -1  545.26   14.10
   2  -4   2  845.07   21.61
   2  -4   2  819.03   19.26
  -2   4  -2  817.23   20.60
   2   4   2  866.46   21.47
  -2  -4  -2  837.31   21.31
   2  -4   2  792.17   19.78
   2  -4   3   15.45    2.48
  -2  -4  -3   16.81    2.20
   2   4   3   19.52    2.58
  -2   4  -3   17.11    2.15
   2  -4   3   11.57    0.96
   2  -4   4 1356.16   32.94
  -2   4  -4 1275.61   32.20
  -2  -4  -4 1337.58   32.42
   2   4   4 1277.15   32.25
   2   4   4 1251.08   31.66
   2  -4   5    1.41    1.63
   2   4   5   -0.35    1.45
  -2  -4  -5    1.11    1.29
  -2   4  -5    1.14    1.08
   2   4   5    5.28    1.69
   2  -4   6  292.58   11.44
   2   4   6  289.85   10.43
  -2  -4  -6  303.01   11.24
   2   4   6  290.22   11.11
  -2   4  -6  281.32   11.07
   2  -4   7   59.09    5.03
   2   4   7   60.66    4.45
  -2   4  -7   61.24    4.83
   2   4   7   64.47    5.03
  -2  -4  -7   60.74    4.88
   2   4   7   68.50    4.64
   2  -4   8  301.16   12.66
   2   4   8  313.93   11.97
   2   4   8  298.84   11.29
  -2   4  -8  319.34   12.85
  -2  -4  -8  325.45   12.68
   2   4   8  308.87   11.39
   2  -4   9  802.07   24.61
   2   4   9  774.87   23.16
   2   4   9  753.01   22.24
  -2  -4  -9  781.50   23.87
   2   4   9  777.37   22.43
   2   4  10   42.61    3.99
   2   4  10   45.28    4.67
   2  -4  10   42.75    4.97
   2   4  10   46.34    4.23
   2   4  11  466.56   16.23
   2  -4  11  456.24   18.06
   2   4  11  482.89   17.22
   2   4  11  478.51   16.32
   2   4  12   15.09    2.85
   2   4  12   22.55    3.72
   2  -4  12   15.70    3.36
   2   4  13  253.31   11.61
   2   4  13  265.64   12.64
   2  -4  13  258.79   13.54
   2   4  14   18.02    3.60
   2  -4  14   18.54    4.01
   2   4  15  191.11   11.18
   2  -4  15  167.81   11.52
   2   4  16   69.91    6.75
   2  -4  16   63.43    7.05
   2  -5 -17  143.09   10.87
  -2  -5  17  125.11    9.19
   2  -5 -16    9.64    3.14
   2   5 -16   13.04    3.08
  -2  -5  16   11.33    3.07
  -2  -5  16   15.13    4.04
   2   5 -15  312.14   13.83
   2  -5 -15  303.88   15.54
  -2  -5  15  246.64   13.01
  -2  -5  15  312.96   16.20
   2  -5 -14   -0.34    2.16
   2   5 -14   -2.36    2.19
  -2  -5  14   -0.40    1.82
  -2  -5  14    4.31    2.91
  -2  -5  13  566.47   21.16
   2   5 -13  691.55   21.77
   2  -5 -13  669.52   23.67
   2  -5 -13  631.38   20.79
  -2   5  13  613.95   17.05
  -2  -5  13  700.68   24.40
  -2   5  12   15.17    1.74
  -2  -5  12   15.81    3.22
   2  -5 -12   17.63    3.48
   2   5 -12   15.40    2.89
   2  -5 -12   16.86    2.76
  -2  -5  12   15.52    3.21
   2   5 -11 1254.93   32.69
   2  -5 -11 1209.29   34.47
   2   5 -11 1225.99   33.06
  -2  -5  11 1066.97   32.15
  -2  -5  11 1265.89   35.01
  -2   5  11 1132.63   27.72
   2  -5 -10   -2.15    1.77
   2   5 -10    0.88    1.60
  -2   5  10    1.13    0.73
  -2  -5  10    0.35    1.55
   2   5 -10    0.34    1.11
  -2  -5  10   -2.91    2.14
   2  -5  -9  999.55   29.18
  -2  -5   9  928.33   27.29
   2   5  -9  969.87   27.72
   2  -5  -9 1038.75   29.34
  -2  -5   9 1043.75   29.04
   2  -5  -8   74.99    5.97
  -2  -5   8   70.66    5.10
   2   5  -8   78.90    5.39
   2  -5  -8   74.50    5.78
  -2  -5   8   74.46    5.63
   2  -5  -7  636.23   20.68
  -2   5   7  655.00   20.63
   2   5  -7  689.47   19.98
  -2  -5   7  661.91   19.56
  -2  -5   7  672.84   20.11
   2  -5  -7  638.44   20.44
  -2   5   6    4.89    2.01
   2  -5  -6    1.04    1.74
  -2  -5   6    6.79    1.87
   2   5  -6    5.40    1.55
   2  -5  -6    4.20    1.78
  -2  -5   6    5.23    1.91
   2  -5  -5   74.51    5.45
  -2   5   5   77.15    5.16
   2   5  -5   98.45    5.37
   2  -5  -5   73.19    5.44
  -2  -5   5   75.08    5.00
   2  -5  -4   62.52    4.32
  -2   5   4   60.28    4.28
   2   5  -4   56.22    3.81
   2   5  -4   57.31    3.94
   2  -5  -4   62.40    4.37
   2  -5  -4   58.50    2.19
   2   5  -4   57.88    3.74
  -2   5   3   16.85    2.39
   2  -5  -3   13.39    2.30
   2   5  -3   22.85    2.48
   2  -5  -3   14.52    0.97
   2  -5  -3   18.83    2.44
   2   5  -3   20.55    2.33
   2   5  -3   24.01    2.81
   2  -5  -2   92.91    3.43
   2  -5  -2  104.27    5.19
  -2   5   2  101.99    5.06
   2   5  -2  111.30    5.31
   2  -5  -2   97.15    5.00
  -2  -5   2  106.18    5.03
   2  -5  -1  406.75   11.66
   2  -5  -1  443.81   13.06
  -2   5   1  451.15   13.05
   2   5  -1  529.04   13.65
  -2   5   1  454.65   10.72
   2  -5  -1  412.92   12.78
  -2  -5   1  490.34   13.35
   2  -5   0   17.44    1.90
   2  -5   0   16.27    2.06
   2   5   0   24.17    2.53
  -2   5   0   22.20    1.62
   2  -5   0   16.53    1.84
  -2   5   0   19.83    1.45
  -2  -5   0   20.02    2.12
   2  -5   1 1399.58   32.30
   2  -5   1 1305.54   31.09
  -2   5  -1 1325.79   32.20
  -2  -5  -1 1351.27   32.27
  -2   5  -1 1362.29   31.06
   2   5   1 1497.50   32.78
   2  -5   1 1273.29   30.97
  -2   5  -1 1298.19   30.54
   2  -5   2    8.32    1.99
  -2   5  -2    9.66    1.83
   2  -5   2    3.58    0.94
  -2   5  -2   11.10    1.62
  -2  -5  -2   10.28    1.78
   2   5   2    7.89    1.86
   2  -5   2    6.06    1.03
   2  -5   2    8.04    1.39
  -2   5  -3 3849.37   88.47
   2  -5   3 4166.23   88.86
   2   5   3 3870.91   88.18
   2  -5   3 3946.67   84.74
  -2  -5  -3 3910.69   88.13
   2   5   3 3999.14   88.22
  -2   5  -3 3887.90   87.69
   2  -5   3 3909.03   84.72
   2  -5   3 3926.77   86.94
   2  -5   4    6.66    2.07
   2   5   4   11.33    1.89
  -2   5  -4    6.30    1.64
  -2   5  -4    7.40    1.80
  -2  -5  -4    7.46    1.63
   2   5   4    6.57    1.91
   2  -5   4    8.14    1.97
   2  -5   5 2494.88   59.38
  -2   5  -5 2546.94   59.24
  -2   5  -5 2400.54   58.52
  -2  -5  -5 2548.24   58.62
   2   5   5 2552.51   58.55
   2   5   5 2401.26   58.13
   2  -5   6    1.74    1.79
   2   5   6    0.79    1.34
  -2   5  -6    0.68    1.30
  -2   5  -6    1.12    1.14
  -2  -5  -6    0.21    1.04
   2   5   6    0.96    1.43
   2  -5   7  800.63   24.18
  -2   5  -7  805.37   23.99
   2   5   7  809.72   23.05
  -2  -5  -7  779.13   23.35
  -2   5  -7  809.60   23.96
   2   5   7  820.55   23.50
   2   5   7  834.18   22.94
   2  -5   8   74.72    5.90
   2   5   8   85.96    5.56
  -2   5  -8   76.76    5.84
  -2  -5  -8   76.64    5.75
  -2   5  -8   83.97    6.08
   2   5   8   83.92    5.45
   2  -5   9  526.74   19.15
   2   5   9  562.76   18.11
   2   5   9  521.96   17.41
  -2  -5  -9  573.37   19.02
   2   5   9  531.52   17.53
   2   5  10   38.21    3.79
   2   5  10   42.13    4.10
   2  -5  10   47.13    4.97
   2   5  10   39.62    3.91
   2   5  11   31.41    3.80
   2   5  11   34.56    4.31
   2  -5  11   35.81    4.67
   2   5  11   33.34    3.95
   2   5  12  119.18    7.50
   2   5  12  127.17    8.01
   2  -5  12  136.57    9.24
   2   5  12  131.40    7.82
   2   5  13    8.10    2.81
   2  -5  13    8.48    3.11
   2  -5  14   34.78    5.31
   2   5  14   35.91    4.64
   2   5  15   82.72    7.23
   2  -5  15   74.36    7.70
   2  -5  16    1.54    2.02
   2   5  16    5.90    2.72
   2  -6 -17  190.01   12.66
  -2  -6  17  173.01   11.06
   2  -6 -16   35.14    5.44
  -2  -6  16   34.43    4.83
   2   6 -15  122.85    8.22
   2  -6 -15  114.22    9.56
  -2  -6  15  100.16    8.10
  -2  -6  15  140.78   10.67
   2   6 -14   20.97    3.23
   2  -6 -14   16.08    3.53
  -2  -6  14   19.01    3.40
  -2  -6  14   18.25    4.03
  -2  -6  13    1.71    1.95
   2   6 -13    4.10    2.15
   2  -6 -13    3.88    2.25
   2  -6 -13   -0.58    1.17
  -2  -6  13    0.46    2.21
  -2  -6  12    9.04    2.61
   2  -6 -12    7.51    2.77
   2   6 -12    7.78    2.26
   2  -6 -12    6.77    1.80
  -2  -6  12    2.62    2.13
  -2  -6  11   39.46    4.48
   2   6 -11   41.61    4.34
   2  -6 -11   35.83    4.93
   2  -6 -11   34.68    3.45
  -2  -6  11   31.84    4.61
  -2  -6  10    0.27    1.57
   2   6 -10   -0.07    1.51
   2  -6 -10    2.59    2.07
   2  -6 -10    0.73    1.15
  -2  -6  10    2.75    2.32
   2   6  -9  314.21   12.33
  -2  -6   9  286.46   11.83
  -2   6   9  297.00   12.78
   2  -6  -9  309.80   13.37
   2  -6  -9  256.24    9.76
   2  -6  -9  306.29   13.07
  -2  -6   9  301.05   12.76
  -2  -6   8    0.86    1.49
   2   6  -8   -0.19    1.36
  -2   6   8    5.48    2.10
   2  -6  -8    1.79    1.85
   2  -6  -8    0.48    0.86
   2  -6  -8    1.61    1.52
  -2  -6   8    0.71    1.82
  -2   6   7  807.39   23.86
   2  -6  -7  774.02   23.92
  -2  -6   7  778.36   22.73
   2   6  -7  816.90   23.19
   2  -6  -7  774.76   23.64
  -2  -6   7  781.66   23.04
  -2   6   6   30.78    3.77
   2  -6  -6   31.06    3.84
  -2  -6   6   32.15    3.36
   2   6  -6   32.86    3.46
   2  -6  -6   30.73    3.81
  -2  -6   6   33.03    3.58
   2  -6  -5 1912.41   47.41
  -2   6   5 1910.03   47.35
   2   6  -5 1916.55   46.54
   2  -6  -5 1931.98   47.31
   2   6  -5 1924.74   46.35
   2   6  -5 1928.11   46.52
   2  -6  -4   43.27    4.21
  -2   6   4   49.48    4.05
   2   6  -4   47.68    3.90
   2   6  -4   49.10    3.93
   2  -6  -4   45.89    4.14
   2   6  -4   40.28    3.47
  -2   6   3 1573.81   38.14
   2  -6  -3 1566.79   38.11
   2  -6  -3 1511.29   33.94
   2   6  -3 1580.91   37.77
   2  -6  -3 1610.95   38.25
   2   6  -3 1565.21   37.23
   2   6  -3 1554.95   37.51
   2  -6  -2  148.34    5.01
  -2   6   2  157.01    6.93
   2  -6  -2  151.76    6.96
   2   6  -2  199.82    7.47
  -2  -6   2  173.94    6.93
   2  -6  -2  141.69    6.74
   2   6  -2  168.94    7.10
   2  -6  -1  366.14   10.44
   2  -6  -1  379.51   11.70
  -2   6   1  361.21   11.58
  -2   6   1  380.91    9.16
   2   6  -1  416.67   12.09
   2  -6  -1  378.38   11.67
  -2  -6   1  398.83   11.89
  -2   6   0   36.45    2.66
   2  -6   0   25.24    2.38
   2  -6   0   27.12    2.52
  -2   6   0   36.67    2.82
  -2   6   0   28.11    1.83
   2   6   0   35.58    2.97
  -2  -6   0   27.78    2.59
   2  -6   0   27.40    2.38
   2  -6   1  172.10    6.83
  -2   6  -1  167.76    6.81
   2  -6   1  152.26    6.06
  -2   6  -1  167.40    5.96
   2   6   1  207.82    7.51
  -2  -6  -1  178.20    7.08
  -2   6  -1  185.59    6.08
   2  -6   1  154.40    5.90
  -2   6  -1  182.45    5.98
   2  -6   2  854.71   22.43
  -2   6  -2  828.47   22.30
   2  -6   2  852.11   20.17
  -2   6  -2  831.65   21.38
  -2  -6  -2  891.54   22.48
   2   6   2  881.54   22.24
   2  -6   2  822.53   20.10
   2  -6   3  142.62    7.04
  -2   6  -3  143.51    6.87
   2  -6   3  141.03    4.42
   2   6   3  149.18    7.04
   2   6   3  155.98    6.87
  -2  -6  -3  140.32    6.61
   2  -6   3  135.48    5.92
   2  -6   3  137.94    4.35
   2  -6   4  113.21    6.24
  -2   6  -4  110.34    6.10
   2   6   4  120.92    6.14
   2   6   4  120.82    6.02
  -2  -6  -4  128.17    6.05
   2  -6   4  113.82    5.54
   2  -6   5   68.50    5.29
  -2   6  -5   68.89    5.12
   2   6   5   82.17    5.21
   2   6   5   73.25    5.06
  -2  -6  -5   68.57    4.81
   2  -6   5   70.85    4.82
   2  -6   6    0.61    1.53
  -2   6  -6    1.87    1.60
   2   6   6    0.10    1.06
  -2  -6  -6   -0.72    1.12
   2   6   6    0.99    1.47
   2  -6   6    3.28    1.94
   2  -6   7  238.53   11.06
  -2   6  -7  254.78   11.23
   2   6   7  256.23   10.59
   2   6   7  261.85   10.74
  -2  -6  -7  252.99   10.55
   2   6   7  264.15   10.63
   2  -6   7  251.29   10.76
   2  -6   8    8.98    2.47
  -2   6  -8    8.03    2.12
   2   6   8    4.97    1.59
   2   6   8    9.48    2.20
  -2  -6  -8    5.66    1.77
   2   6   8    4.43    1.92
   2  -6   9  885.27   27.53
   2   6   9  897.11   25.67
   2   6   9  866.48   25.74
  -2  -6  -9  946.15   27.06
   2   6   9  878.58   25.81
   2   6  10    5.03    1.93
   2   6  10    3.19    1.77
   2  -6  10    2.95    2.47
   2   6  10    0.72    1.45
   2   6  11  700.76   22.50
   2   6  11  731.38   22.58
   2  -6  11  701.74   24.35
   2   6  11  693.26   22.38
   2   6  12   23.56    3.67
   2  -6  12   18.64    3.74
   2   6  12   18.47    3.30
   2   6  13  443.86   17.38
   2  -6  13  434.42   19.09
   2  -6  13  475.83   19.79
   2  -6  14    3.82    3.02
   2   6  14    3.35    2.17
   2   6  15  316.05   14.81
   2  -6  15  319.71   16.82
   2  -6  15  357.67   17.87
   2  -6  16   71.58    7.74
   2   6  16   68.84    6.56
  -2  -7  17   13.85    3.64
   2  -7 -16   11.53    3.43
  -2  -7  16    6.99    2.71
   2   7 -15   90.93    6.85
   2  -7 -15   84.13    8.10
  -2  -7  15   65.32    6.58
  -2  -7  15   87.68    8.48
   2   7 -14   -0.47    1.46
   2  -7 -14   -0.11    2.07
  -2  -7  14    1.77    1.71
  -2  -7  14   -1.51    2.47
  -2  -7  13   29.59    4.21
   2   7 -13   40.55    4.29
   2  -7 -13   35.08    5.05
   2  -7 -13   38.83    3.96
  -2  -7  13   43.25    5.57
  -2  -7  12   14.80    3.14
   2   7 -12   18.52    3.13
   2  -7 -12   17.79    3.66
   2  -7 -12   14.42    2.37
  -2  -7  12   18.43    3.89
  -2  -7  11   55.21    5.28
   2   7 -11   58.66    4.94
   2  -7 -11   67.17    6.25
   2  -7 -11   67.31    4.61
  -2  -7  11   59.66    5.84
  -2  -7  10    1.65    1.79
   2   7 -10    0.88    1.30
   2  -7 -10   -0.08    1.92
   2  -7 -10    0.47    1.00
  -2  -7  10    0.50    2.03
  -2  -7   9   16.46    3.23
   2   7  -9   13.84    2.94
   2  -7  -9   11.66    3.07
   2  -7  -9    9.16    1.70
  -2  -7   9    9.13    2.90
  -2  -7   8   34.79    3.82
   2   7  -8   39.64    4.01
   2  -7  -8   36.33    4.29
  -2   7   8   32.86    4.01
   2  -7  -8   30.08    2.50
   2  -7  -8   30.09    3.84
  -2  -7   8   30.77    3.70
   2   7  -7   40.12    3.96
  -2  -7   7   39.96    3.97
   2  -7  -7   32.45    4.12
  -2   7   7   37.10    4.09
   2  -7  -7   28.35    2.16
   2  -7  -7   38.01    4.13
  -2  -7   7   33.04    3.82
   2   7  -6  260.96   10.43
  -2   7   6  250.86   10.88
   2  -7  -6  253.03   10.97
   2  -7  -6  238.84    6.94
  -2  -7   6  245.58   10.03
   2  -7  -6  246.58   10.69
   2   7  -5   13.10    2.45
   2  -7  -5    7.12    2.40
  -2   7   5   11.59    2.26
   2  -7  -5    8.86    0.78
   2   7  -5   10.10    2.28
   2   7  -5    8.79    2.07
   2  -7  -5    9.39    2.30
  -2   7   4  244.01    9.79
   2  -7  -4  244.58    9.81
   2   7  -4  220.20    9.25
   2   7  -4  229.14    9.19
   2  -7  -4  244.74    9.76
   2   7  -4  238.61    9.21
   2  -7  -3   19.75    2.91
  -2   7   3   15.43    2.42
   2  -7  -3   16.25    1.15
   2   7  -3   16.92    2.42
   2   7  -3   21.10    2.83
   2   7  -3   19.96    2.50
   2  -7  -3   16.67    2.42
  -2   7   2  251.59    7.54
   2  -7  -2  268.83    7.64
   2   7  -2  283.70   10.04
  -2   7   2  267.85    9.73
   2  -7  -2  273.16    9.95
   2   7  -2  287.25    9.91
  -2  -7   2  271.57    9.64
   2  -7  -2  270.96    9.82
   2  -7  -1   18.99    1.86
  -2   7   1   13.69    1.44
   2  -7  -1   20.75    2.51
  -2   7   1   20.32    2.42
  -2   7   1   21.09    1.26
  -2  -7   1   21.90    2.38
   2   7  -1   26.74    2.86
   2  -7  -1   19.27    2.29
  -2   7   0   27.01    2.39
   2  -7   0   23.40    2.24
   2  -7   0   19.93    2.23
  -2   7   0   26.01    2.52
  -2   7   0   21.37    1.62
   2   7   0   27.34    2.65
  -2  -7   0   25.04    2.53
   2  -7   0   21.05    2.13
  -2   7  -1    8.84    1.68
   2  -7   1    4.37    1.52
  -2   7  -1    1.08    0.88
   2  -7   1    5.23    1.19
   2   7   1    4.67    1.52
  -2   7  -1    4.62    1.15
   2  -7   1    1.53    0.86
  -2   7  -1    4.96    1.24
  -2  -7  -1    3.53    1.21
   2  -7   2    9.21    1.88
  -2   7  -2   10.28    1.94
  -2   7  -2    5.50    0.93
   2  -7   2    9.07    1.30
  -2  -7  -2    7.26    1.61
   2   7   2    9.06    1.83
  -2   7  -2   11.22    1.69
   2  -7   2    7.16    1.16
   2  -7   3 1041.34   27.33
  -2   7  -3 1043.71   27.25
   2  -7   3 1005.04   23.67
   2   7   3 1050.79   27.48
  -2  -7  -3 1048.27   26.81
   2   7   3 1068.46   26.69
   2  -7   4  107.67    6.56
  -2   7  -4  119.54    6.75
   2   7   4  128.53    6.67
   2   7   4  127.35    6.49
  -2  -7  -4  111.99    6.07
   2  -7   4  109.25    5.70
   2  -7   5  134.33    7.42
  -2   7  -5  143.25    7.53
   2   7   5  133.40    7.01
   2   7   5  137.03    6.81
  -2  -7  -5  132.96    6.67
   2  -7   5  148.57    6.84
  -2   7  -6   50.04    4.52
   2  -7   6   46.59    4.68
   2   7   6   51.81    4.32
   2   7   6   46.56    4.11
  -2  -7  -6   45.04    3.91
   2  -7   6   44.56    4.26
  -2   7  -7  116.51    7.21
   2  -7   7  113.94    7.48
   2   7   7  112.32    6.86
   2   7   7  114.37    6.63
  -2  -7  -7  114.28    6.67
   2   7   7  111.46    6.75
   2  -7   7  115.21    6.92
   2  -7   8   87.43    6.62
  -2   7  -8   81.50    6.09
   2   7   8   80.25    5.71
   2   7   8   83.33    5.74
  -2  -7  -8   78.46    5.59
   2  -7   8   81.06    6.01
   2   7   8   77.28    5.61
   2  -7   9  117.03    8.18
   2   7   9  121.62    7.39
  -2  -7  -9  120.33    7.45
   2   7   9  127.83    7.53
   2  -7   9  127.15    8.21
   2   7  10   69.75    5.63
   2   7  10   73.84    5.52
   2  -7  10   72.11    6.37
   2   7  10   66.67    5.43
   2  -7  10   76.62    6.40
   2  -7  11    5.33    2.47
   2   7  11    8.15    2.37
   2  -7  11    8.36    3.33
   2   7  11    4.29    2.35
   2   7  12  210.84   10.56
   2  -7  12  202.84   12.03
   2   7  12  216.76   11.01
   2  -7  12  232.37   12.69
   2  -7  13   -3.09    2.41
   2   7  13    5.53    2.10
   2   7  13    1.52    1.93
   2  -7  13    1.39    2.69
   2  -7  14    2.59    2.25
   2   7  14    1.27    1.67
   2  -7  14    2.72    2.65
   2  -7  15   39.40    6.01
   2   7  15   37.73    4.79
   2  -7  15   47.55    6.79
  -2  -8  17   19.72    4.05
   2  -8 -16    9.89    3.55
  -2  -8  16    6.63    2.80
   2  -8 -15   20.53    4.58
   2   8 -15   15.87    3.37
  -2  -8  15   19.70    4.09
  -2  -8  15   22.22    4.77
   2   8 -14    7.17    2.28
   2  -8 -14    8.75    3.19
  -2  -8  14    7.60    2.76
  -2  -8  14    2.90    2.23
   2   8 -13    1.24    1.42
   2  -8 -13    1.62    2.24
  -2  -8  13    0.81    1.69
  -2  -8  13    1.67    2.24
  -2  -8  12    1.41    2.05
   2   8 -12    2.74    1.45
   2  -8 -12   -0.52    1.93
   2  -8 -12    3.43    1.50
  -2  -8  12    4.23    2.44
  -2  -8  11   18.90    3.47
   2  -8 -11   14.81    3.39
   2  -8 -11   13.68    2.20
  -2  -8  11   17.76    4.04
  -2  -8  10   84.36    6.29
   2  -8 -10   90.86    7.25
   2  -8 -10   84.98    4.87
  -2  -8  10   90.47    6.97
  -2  -8   9  131.22    7.90
   2   8  -9  142.28    8.25
   2  -8  -9  142.08    8.99
   2  -8  -9  117.84    5.70
  -2  -8   9  138.45    8.47
  -2  -8   8    5.30    2.01
   2   8  -8    6.74    2.00
  -2   8   8    7.54    2.05
   2  -8  -8    7.52    2.30
   2  -8  -8    5.61    1.12
   2  -8  -8    7.93    2.21
  -2  -8   8    5.47    1.73
   2   8  -7  115.84    6.82
  -2   8   7  104.86    6.88
   2  -8  -7   93.14    6.72
   2  -8  -7   84.62    3.81
  -2  -8   7  105.13    6.54
   2  -8  -7  107.62    6.90
  -2  -8   6   10.05    2.27
   2   8  -6    9.31    2.16
  -2   8   6    9.31    2.36
   2  -8  -6    4.16    2.15
   2  -8  -6    5.78    0.78
   2  -8  -6   10.23    2.41
   2   8  -6    6.80    2.12
  -2   8   5  354.96   13.38
   2  -8  -5  359.09   13.44
   2   8  -5  365.60   13.05
   2  -8  -5  345.76   13.19
   2   8  -5  354.86   12.63
   2   8  -5  339.15   12.53
   2  -8  -4   11.10    2.55
  -2   8   4   11.58    2.30
   2   8  -4   15.13    2.48
   2  -8  -4    7.58    1.99
   2   8  -4   16.69    2.58
   2   8  -4   11.28    2.14
  -2   8   3  386.50   13.47
   2  -8  -3  420.02   13.82
   2  -8  -3  390.30   10.12
   2   8  -3  452.22   13.97
   2   8  -3  423.04   13.39
   2   8  -3  411.77   13.33
   2  -8  -3  412.57   13.74
   2  -8  -2    1.93    1.56
  -2   8   2    3.52    1.51
  -2   8   2    2.23    0.78
   2  -8  -2    1.76    0.79
   2   8  -2    2.70    1.49
   2   8  -2    3.80    1.79
   2  -8  -2    2.60    1.51
   2  -8  -1  373.93   10.82
  -2   8   1  369.31   10.81
  -2   8   1  366.72   11.96
   2  -8  -1  398.65   12.33
  -2   8   1  356.50    9.08
   2   8  -1  412.57   12.44
  -2  -8   1  399.94   12.35
   2  -8  -1  362.84   11.94
  -2   8   0   31.38    2.61
   2  -8   0   29.16    2.69
  -2   8   0   32.11    2.77
   2  -8   0   28.00    2.77
  -2   8   0   33.07    2.04
   2   8   0   36.42    3.23
  -2  -8   0   30.45    2.80
   2  -8   0   26.46    2.55
  -2   8  -1   75.70    4.55
   2  -8   1   67.91    4.50
   2  -8   1   77.96    4.26
  -2   8  -1   74.68    3.92
   2   8   1   95.15    5.14
  -2  -8  -1   83.71    4.82
  -2   8  -1   79.73    4.02
   2  -8   1   79.28    4.01
  -2   8  -2   81.16    4.88
   2  -8   2   83.43    5.06
   2   8   2   87.63    5.30
  -2   8  -2   83.99    3.91
   2  -8   2   85.09    3.92
  -2  -8  -2   87.72    4.86
   2   8   2   87.01    4.86
  -2   8  -2   87.70    4.36
  -2   8  -3   25.66    3.00
   2  -8   3   18.78    2.83
   2   8   3   24.77    2.99
   2  -8   3   23.63    1.77
  -2   8  -3   20.62    1.75
  -2  -8  -3   19.36    2.51
   2   8   3   21.54    2.80
  -2   8  -4   60.25    4.54
   2  -8   4   60.44    4.78
   2   8   4   69.96    4.88
  -2  -8  -4   71.77    4.60
   2   8   4   67.95    4.55
   2  -8   4   61.50    4.13
  -2   8  -5   72.35    5.37
   2  -8   5   66.35    5.46
   2   8   5   79.39    5.50
   2   8   5   77.88    5.22
  -2  -8  -5   65.89    4.78
   2  -8   5   65.65    4.77
  -2   8  -6   66.86    5.36
   2  -8   6   67.90    5.60
   2   8   6   72.10    5.35
   2   8   6   75.74    5.08
  -2  -8  -6   71.92    4.97
   2  -8   6   63.85    4.84
  -2   8  -7  113.07    7.28
   2  -8   7  117.47    7.64
   2   8   7  125.95    7.42
  -2  -8  -7  118.73    6.78
   2   8   7  122.24    6.97
   2  -8   7  110.82    6.96
   2   8   7  124.55    7.38
   2  -8   8   -0.28    1.78
   2   8   8    3.89    1.78
   2   8   8    1.88    1.50
  -2  -8  -8    1.01    1.17
   2   8   8    1.30    1.58
   2  -8   8    3.03    1.96
   2  -8   9  165.69    9.77
   2   8   9  170.96    9.15
  -2  -8  -9  171.97    9.03
   2  -8   9  171.55    9.65
   2   8   9  167.54    9.02
   2   8  10   11.84    2.58
   2  -8  10   12.73    3.57
   2  -8  10   12.26    3.23
   2   8  10   13.92    2.90
   2  -8  11  252.62   13.30
   2   8  11  264.19   11.56
   2   8  11  253.59   12.09
   2  -8  11  283.62   13.57
   2  -8  12    2.19    2.01
   2   8  12    4.94    1.99
   2  -8  12    4.53    2.91
   2   8  12    7.12    2.66
   2  -8  13  101.01    8.64
   2   8  13  108.01    7.62
   2   8  13   96.32    7.61
   2  -8  13  112.53    9.03
   2   8  14    1.83    1.84
   2  -8  14   -1.78    2.58
   2  -8  14    2.61    2.83
   2   8  15   20.94    3.87
   2  -8  15    9.06    3.19
   2  -8  15   16.99    4.61
  -2  -9  17   62.61    7.07
   2  -9 -16  102.23    9.51
  -2  -9  16   81.84    7.84
   2  -9 -15  231.33   14.34
  -2  -9  15  219.48   12.98
  -2  -9  15  253.97   14.81
   2  -9 -14   13.93    3.76
   2   9 -14   21.34    3.29
  -2  -9  14   13.52    3.44
  -2  -9  14   21.69    4.44
   2   9 -13  171.17    9.13
   2  -9 -13  182.56   11.65
  -2  -9  13  146.64    9.89
  -2  -9  13  169.38   11.30
  -2  -9  12    4.79    2.65
   2   9 -12    1.39    1.71
   2  -9 -12   -0.46    1.90
   2  -9 -12   -0.36    1.21
  -2  -9  12    0.52    2.31
  -2  -9  11  270.17   13.16
   2  -9 -11  303.48   14.68
   2  -9 -11  322.93   11.11
  -2  -9  11  309.62   14.49
  -2  -9  10   14.96    3.09
   2  -9 -10   19.88    3.84
   2  -9 -10   18.27    2.20
  -2  -9  10   18.17    3.43
  -2  -9   9  194.79   10.20
   2  -9  -9  194.08   10.80
   2  -9  -9  205.64    7.39
  -2  -9   9  205.65   10.67
   2   9  -8  101.29    6.81
  -2  -9   8   91.02    6.45
   2  -9  -8   86.66    7.02
   2  -9  -8   86.52    4.04
   2   9  -7  203.04    9.71
  -2   9   7  173.12    9.40
   2  -9  -7  163.72    9.41
   2  -9  -7  158.14    5.29
   2  -9  -7  179.85    9.42
  -2  -9   7  172.86    8.83
   2   9  -6  263.76   11.07
  -2   9   6  257.83   11.34
   2  -9  -6  258.93   11.44
   2  -9  -6  227.69    6.06
   2   9  -6  242.46   10.50
   2   9  -6  251.76   10.60
   2  -9  -6  253.60   11.12
  -2   9   5   43.38    4.40
   2  -9  -5   48.14    4.80
   2   9  -5   46.15    4.27
   2   9  -5   41.32    4.11
   2   9  -5   50.68    4.36
   2  -9  -5   48.82    4.54
  -2   9   4 1719.81   43.82
   2  -9  -4 1764.41   44.08
   2   9  -4 1791.92   43.93
   2   9  -4 1658.89   42.97
   2   9  -4 1752.77   43.22
   2  -9  -4 1789.41   44.11
  -2   9   3  201.30    9.12
   2  -9  -3  202.78    9.19
   2   9  -3  221.16    9.43
  -2   9   3  185.46    6.16
   2  -9  -3  211.66    6.16
   2   9  -3  222.62    8.98
   2   9  -3  212.53    8.92
   2  -9  -3  195.76    9.13
  -2   9   2 1037.68   25.19
   2  -9  -2 1003.86   25.02
   2   9  -2 1117.08   28.48
  -2   9   2 1045.11   27.90
   2  -9  -2 1118.83   28.32
   2   9  -2 1113.48   27.93
   2  -9  -2 1024.83   27.76
   2  -9  -1  231.52    8.10
  -2   9   1  242.27    8.23
  -2   9   1  236.72    9.20
   2  -9  -1  242.61    9.38
  -2   9   1  225.98    6.38
   2   9  -1  265.09    9.52
  -2  -9   1  271.55    9.58
   2   9  -1  243.05    9.65
   2  -9  -1  228.92    9.02
   2  -9   0  431.22   13.33
  -2   9   0  448.83   13.42
  -2   9   0  429.90   13.52
   2  -9   0  458.99   13.88
   2   9   0  506.36   14.36
   2  -9   0  420.02   13.37
  -2  -9   0  453.83   14.06
   2  -9   1  720.20   20.45
  -2   9  -1  741.14   20.56
   2  -9   1  743.32   19.79
  -2   9  -1  722.27   19.62
   2   9   1  813.63   21.04
  -2  -9  -1  743.22   20.68
  -2   9  -1  753.34   19.59
   2  -9   2  104.92    6.00
  -2   9  -2  106.63    5.90
  -2   9  -2  103.86    4.68
   2  -9   2   99.47    4.77
   2   9   2  114.18    6.50
  -2  -9  -2  103.11    5.69
   2   9   2  110.17    5.75
  -2   9  -2  101.76    5.25
   2  -9   3 1576.80   38.60
  -2   9  -3 1487.28   38.37
  -2   9  -3 1483.57   34.87
   2  -9   3 1490.32   34.78
   2   9   3 1603.38   39.05
  -2  -9  -3 1546.67   37.65
   2   9   3 1564.74   37.68
  -2   9  -3 1505.23   36.93
  -2   9  -4   -0.40    1.39
   2  -9   4   -0.52    1.66
  -2   9  -4    0.93    0.83
   2   9   4   -0.15    1.24
   2   9   4    0.86    1.40
  -2  -9  -4    3.31    1.53
  -2   9  -5  542.66   17.97
   2  -9   5  540.63   18.02
   2   9   5  538.29   17.82
  -2  -9  -5  537.44   16.84
   2   9   5  550.18   16.79
   2  -9   5  508.12   16.53
  -2   9  -6   78.69    5.92
   2  -9   6   71.69    6.03
   2   9   6   80.62    5.99
  -2  -9  -6   77.82    5.35
   2   9   6   82.72    5.67
   2  -9   6   73.87    5.44
  -2   9  -7  395.15   15.35
   2  -9   7  383.93   15.45
   2   9   7  391.13   15.09
  -2  -9  -7  374.34   13.95
   2   9   7  422.19   14.33
   2  -9   7  374.66   14.35
   2   9   7  404.63   14.99
   2  -9   8   17.32    3.27
   2   9   8   21.46    3.24
  -2  -9  -8   22.20    3.13
   2   9   8   22.90    3.28
   2   9   8   20.88    3.49
   2  -9   8   23.13    3.64
   2  -9   9  102.36    7.75
  -2  -9  -9   99.53    6.77
   2   9   9  116.26    7.27
   2  -9   9  102.52    7.53
   2   9   9  106.46    7.30
   2  -9  10    3.40    1.84
   2   9  10    4.88    2.03
   2  -9  10    7.66    2.79
   2   9  11    9.86    2.45
   2  -9  11    3.72    2.19
   2   9  11    8.14    2.36
   2  -9  11    5.74    2.64
   2   9  12  234.22   11.07
   2  -9  12  221.60   12.96
   2  -9  12  247.71   13.21
   2   9  12  228.31   11.94
   2   9  13    2.24    2.06
   2  -9  13   -0.39    2.06
   2   9  13   -0.47    2.14
   2  -9  13    5.17    2.86
   2  -9  14  300.77   16.74
   2   9  14  323.35   14.48
   2  -9  14  351.61   17.50
   2  -9  15   87.69    8.78
   2  -9  15   97.79    9.25
  -2 -10  16   99.48    8.93
   2 -10 -15   27.39    5.15
  -2 -10  15   27.27    4.65
   2 -10 -14  294.93   16.17
   2  10 -14  306.56   12.95
  -2 -10  14  244.16   13.93
  -2 -10  14  302.44   15.94
   2 -10 -13    3.11    2.23
   2  10 -13   10.41    2.55
  -2 -10  13    6.67    2.78
  -2 -10  13    2.63    2.15
   2  10 -12  542.07   17.94
   2 -10 -12  518.10   21.21
  -2 -10  12  463.20   19.35
  -2 -10  12  515.27   20.78
  -2 -10  11    2.59    1.96
   2 -10 -11    0.81    2.29
   2 -10 -11    1.40    1.00
  -2 -10  11   -1.20    2.49
  -2 -10  10  686.31   24.33
   2 -10 -10  785.98   20.42
   2 -10 -10  783.45   26.41
  -2 -10   9    4.75    2.24
   2 -10  -9    0.59    1.91
   2 -10  -9    0.54    0.66
   2 -10  -8  627.39   21.52
   2 -10  -8  582.55   15.00
  -2 -10   8  585.96   20.07
   2  10  -7  300.73   12.58
  -2  10   7  282.44   12.56
   2 -10  -7  263.26   12.39
   2 -10  -7  251.14    7.05
  -2 -10   7  264.30   11.56
  -2  10   6   93.54    6.70
   2 -10  -6   77.94    6.44
   2  10  -6   87.05    6.33
   2  10  -6   89.31    6.28
   2  10  -6   91.81    6.35
   2 -10  -6   88.98    6.56
  -2  10   5  368.45   14.34
   2 -10  -5  370.73   14.46
   2  10  -5  396.02   14.45
   2  10  -5  366.71   13.69
   2  10  -5  399.95   14.13
   2 -10  -5  387.58   14.56
  -2  10   4   19.59    3.00
   2 -10  -4   14.00    2.95
  -2  10   4   13.85    1.22
   2  10  -4   19.83    2.89
   2  10  -4   15.12    2.63
   2 -10  -4   13.78    2.72
   2  10  -4   15.73    2.52
   2  10  -3  288.19   11.38
  -2  10   3  272.91    8.11
  -2  10   3  279.22   11.05
   2 -10  -3  292.73   11.33
   2  10  -3  264.99   10.46
   2 -10  -3  268.59    7.91
   2 -10  -3  283.79   11.09
   2 -10  -2  354.99   10.46
  -2  10   2  343.42   10.62
   2  10  -2  386.96   13.35
   2 -10  -2  361.24   13.15
  -2  10   2  357.83   12.80
   2  10  -2  403.39   13.00
   2 -10  -2  338.60   12.60
   2 -10  -1  125.04    5.55
   2  10  -1  146.88    7.32
  -2  10   1  138.53    5.79
   2 -10  -1  131.56    6.65
  -2  10   1  131.71    6.53
   2  10  -1  142.57    6.58
   2 -10  -1  127.70    6.48
  -2  10   1  122.91    4.03
  -2 -10   1  126.74    6.45
   2 -10   0  679.11   18.83
  -2  10   0  664.53   18.69
  -2  10   0  629.29   18.89
   2 -10   0  681.90   19.28
   2  10   0  747.99   19.78
  -2 -10   0  684.74   19.55
   2 -10   1  101.05    5.59
  -2  10  -1  100.35    5.58
  -2  10  -1  105.22    5.23
   2 -10   1   94.66    5.17
   2  10   1  108.69    6.45
  -2 -10  -1  101.36    5.63
   2  10   1  112.65    5.93
  -2  10  -1   98.64    5.06
   2 -10   2  880.07   24.25
  -2  10  -2  845.55   24.12
  -2  10  -2  844.65   22.19
   2  10   2  907.03   25.28
   2 -10   2  868.32   22.21
  -2 -10  -2  895.63   23.89
   2  10   2  897.19   23.68
  -2  10  -2  877.81   23.14
   2 -10   3    4.64    1.82
  -2  10  -3    4.07    1.47
   2  10   3    7.18    2.13
  -2  10  -3    5.00    1.16
   2 -10   3    5.71    1.19
   2  10   3    3.85    1.44
  -2  10  -3    7.69    1.71
  -2 -10  -3    3.94    1.48
  -2  10  -4 1612.15   40.95
   2 -10   4 1610.87   40.86
   2  10   4 1597.28   39.20
  -2 -10  -4 1613.79   39.46
  -2  10  -4 1528.05   35.79
   2  10   4 1591.38   41.03
  -2  10  -5    2.11    1.42
   2 -10   5    1.31    1.88
   2  10   5    3.39    1.75
  -2 -10  -5    0.92    1.26
   2  10   5    3.64    1.57
  -2  10  -6 1178.44   33.60
   2 -10   6 1141.72   33.61
   2  10   6 1247.29   33.97
  -2 -10  -6 1202.14   32.06
   2  10   6 1241.15   32.08
   2 -10   6 1167.79   32.06
   2 -10   7   77.45    6.65
   2  10   7   81.44    6.34
   2  10   7   88.50    5.83
  -2 -10  -7   82.91    5.82
   2 -10   7   81.03    5.97
   2  10   7   89.53    6.51
   2 -10   8  365.08   15.66
   2  10   8  387.87   14.20
  -2 -10  -8  337.51   13.55
   2 -10   8  351.14   14.39
   2  10   8  375.92   14.87
   2 -10   9    3.91    2.17
   2  10   9   10.32    2.25
  -2 -10  -9    9.89    2.40
   2  10   9    4.36    1.92
   2 -10   9    7.08    2.33
   2 -10  10   15.91    3.64
   2  10  10   13.99    3.39
   2 -10  10   11.15    2.92
   2  10  11  164.80    8.84
   2 -10  11  185.87   11.37
   2  10  11  165.14    9.97
   2 -10  11  188.44   11.04
   2  10  12   10.90    2.80
   2 -10  12    4.24    2.99
   2 -10  12    9.63    3.36
   2  10  12    7.46    2.68
   2  10  13   58.65    5.43
   2 -10  13   63.07    7.12
   2  10  13   50.92    5.82
   2 -10  13   53.68    6.38
   2 -10  14   52.41    7.01
   2  10  14   65.74    6.01
   2  10  14   61.31    6.74
   2 -10  14   58.11    6.93
   2 -11 -15    0.96    2.28
  -2 -11  15   -0.67    2.17
   2 -11 -14   34.92    5.82
  -2 -11  14   28.58    4.89
  -2 -11  14   40.03    5.96
   2 -11 -13    6.77    2.22
   2  11 -13   11.75    2.75
  -2 -11  13    9.33    2.91
  -2 -11  13    5.81    2.69
  -2 -11  12    0.68    2.11
   2 -11 -12   -3.84    3.02
  -2 -11  11   21.32    3.83
   2 -11 -11   18.07    3.81
  -2 -11  10  166.54    9.96
   2 -11 -10  150.61    6.16
   2 -11 -10  169.49   10.74
  -2 -11   9    5.53    2.11
   2 -11  -9    5.79    2.56
   2 -11  -9    6.60    1.18
   2 -11  -8  487.80   18.55
   2 -11  -8  429.54   11.32
  -2 -11   8  433.94   16.64
  -2 -11   7    8.37    2.49
   2 -11  -7   14.31    3.31
   2 -11  -7    9.39    0.80
   2  11  -7   16.49    2.82
  -2  11   6  569.62   20.02
   2 -11  -6  583.44   20.45
   2  11  -6  596.32   19.97
   2  11  -6  547.07   18.86
   2  11  -6  589.24   19.40
   2 -11  -6  563.53   19.68
  -2  11   5   24.80    3.51
   2 -11  -5   24.70    3.60
   2  11  -5   29.91    3.70
   2  11  -5   23.47    3.24
   2 -11  -5   29.32    3.68
   2  11  -5   27.86    3.62
   2 -11  -4  991.16   28.04
  -2  11   4  955.96   27.67
   2  11  -4  996.32   27.89
  -2  11   4  942.00   22.47
   2  11  -4  993.98   27.23
   2 -11  -4  955.94   27.56
   2  11  -4  928.49   26.70
   2  11  -3  160.05    8.24
  -2  11   3  129.81    5.25
   2 -11  -3  125.54    7.69
  -2  11   3  145.69    7.76
   2  11  -3  147.37    7.47
   2 -11  -3  138.97    5.09
   2 -11  -3  126.05    7.36
  -2  11   2  933.50   24.41
   2  11  -2 1088.88   28.16
   2 -11  -2  954.95   24.22
  -2  11   2  983.23   27.25
   2 -11  -2 1042.91   27.68
   2  11  -2  999.40   26.85
  -2  11   2  992.23   27.31
   2 -11  -2  984.45   27.29
   2 -11  -1   45.97    3.36
  -2  11   1   52.69    3.57
   2  11  -1   54.35    4.41
   2 -11  -1   53.28    4.31
  -2  11   1   44.49    3.88
   2  11  -1   51.50    3.99
  -2  11   1   62.22    4.78
  -2 -11   1   51.12    4.13
  -2  11   1   51.04    2.34
  -2  11   0  751.37   21.13
   2 -11   0  758.78   21.16
  -2  11   0  730.06   21.48
   2 -11   0  770.44   21.69
   2  11   0  848.21   22.18
  -2 -11   0  795.82   22.18
   2  11   0  814.91   22.80
  -2  11   0  780.11   21.83
  -2  11  -1   17.10    2.21
   2 -11   1   22.54    2.73
  -2  11  -1   23.63    2.60
   2  11   1   25.76    3.31
   2 -11   1   19.79    2.33
   2  11   1   26.28    2.90
  -2  11  -1   21.14    2.36
  -2 -11  -1   24.08    2.73
  -2  11  -1   18.86    2.45
   2 -11   2   83.97    5.60
  -2  11  -2   86.48    5.63
   2 -11   2   83.62    4.56
  -2  11  -2   85.35    4.65
   2  11   2   83.18    5.91
   2  11   2   97.54    5.61
  -2 -11  -2   86.72    5.31
  -2  11  -2   82.34    4.74
  -2  11  -2   84.21    4.97
   2 -11   3   38.77    3.89
  -2  11  -3   34.82    3.65
   2  11   3   40.76    4.01
  -2  11  -3   32.89    2.57
   2  11   3   37.54    3.32
  -2 -11  -3   38.91    3.46
  -2  11  -3   34.76    3.24
   2 -11   4    8.06    2.33
  -2  11  -4    5.21    1.70
  -2 -11  -4    8.49    1.96
   2  11   4    5.28    1.78
   2  11   4    6.25    2.26
  -2  11  -4    8.00    1.27
   2 -11   5   11.32    2.72
  -2  11  -5   16.22    2.84
  -2 -11  -5   10.50    2.02
   2  11   5   12.42    2.46
  -2  11  -5   11.54    1.19
   2  11   5   12.62    2.59
  -2  11  -6  106.39    7.34
   2 -11   6   93.23    7.09
   2  11   6  119.84    7.74
   2  11   6  110.42    6.59
  -2 -11  -6  104.34    6.46
   2 -11   7    6.16    2.03
  -2 -11  -7   11.88    2.34
   2  11   7   11.89    2.47
   2  11   7    8.51    2.43
   2 -11   7    9.93    2.26
   2 -11   8  528.15   20.01
   2  11   8  520.27   17.83
  -2 -11  -8  526.77   17.92
   2 -11   8  523.69   18.62
   2  11   8  526.35   19.14
   2 -11   9    2.77    1.98
   2  11   9    0.62    1.52
   2  11   9    1.60    2.18
   2 -11   9    3.50    2.13
   2 -11  10  716.11   25.28
   2 -11  10  688.41   23.81
   2  11  10  661.19   23.43
   2 -11  11   35.98    5.32
   2 -11  11   30.67    4.65
   2  11  11   30.26    4.47
   2 -11  12  489.75   21.24
   2  11  12  504.83   17.89
   2  11  12  489.53   19.77
   2 -11  12  510.19   20.88
   2  11  13    5.66    2.16
   2 -11  13    3.78    3.05
   2  11  13    6.42    3.02
   2 -11  13    1.08    2.53
   2 -11  14  258.68   15.61
   2  11  14  238.87   13.74
   2 -11  14  281.32   15.72
  -2 -12  15    5.23    2.31
  -2 -12  14   16.55    3.81
   2 -12 -14   25.55    5.13
  -2 -12  13   -1.05    2.47
   2  12 -13    2.62    1.73
   2 -12 -13    3.47    2.50
  -2 -12  12   89.19    7.81
   2 -12 -12   89.76    8.41
  -2 -12  11    6.29    2.65
   2 -12 -11   13.35    3.49
  -2 -12  10   37.89    4.84
   2 -12 -10   40.16    2.68
   2 -12 -10   44.79    5.68
  -2 -12   9    5.90    2.35
   2 -12  -9    7.98    3.10
   2 -12  -9    5.15    0.93
   2 -12  -8  116.02    8.39
   2 -12  -8   95.70    3.36
  -2 -12   8  103.74    7.37
   2  12  -8  105.94    7.47
   2 -12  -7   78.70    6.70
   2  12  -7   74.75    6.00
   2 -12  -6   36.16    4.51
   2  12  -6   35.77    4.29
   2 -12  -5   15.46    3.07
  -2  12   5   19.22    3.04
  -2  12   5   16.01    1.22
   2  12  -5   16.04    2.83
   2  12  -5   16.54    2.92
   2 -12  -5   17.22    3.11
   2  12  -5   15.41    2.89
   2 -12  -4   -1.07    1.93
  -2  12   4   -0.97    1.17
  -2  12   4   -0.53    0.66
   2  12  -4    0.97    1.29
   2  12  -4    2.62    1.86
   2 -12  -4   -1.13    1.55
   2  12  -4   -1.23    1.35
   2  12  -3  359.57   13.73
  -2  12   3  317.96   10.10
   2 -12  -3  374.10   13.79
  -2  12   3  340.86   13.27
   2  12  -3  337.32   12.71
  -2  12   3  335.78   13.16
   2 -12  -3  351.02   13.33
   2 -12  -2   -0.15    0.89
   2  12  -2    0.52    1.63
  -2  12   2    3.22    1.21
   2 -12  -2    0.38    1.48
  -2  12   2    0.68    1.36
  -2  12   2    1.60    0.50
   2  12  -2    0.66    1.36
  -2  12   2    1.69    1.80
   2 -12  -1  197.95    7.74
  -2  12   1  195.65    7.85
   2  12  -1  208.76    9.47
  -2  12   1  183.26    8.70
   2 -12  -1  212.08    9.19
  -2  12   1  199.27    5.98
   2  12  -1  212.04    8.86
  -2  12   1  215.68    9.37
   2 -12   0  402.21   13.21
  -2  12   0  390.66   13.14
   2  12   0  434.48   14.79
   2  12   0  427.17   15.18
  -2  12   0  368.43   13.32
   2 -12   0  410.93   13.82
   2  12   0  423.39   13.96
  -2 -12   0  425.50   14.12
  -2  12   0  408.87   13.79
   2  12   1   10.28    2.09
   2 -12   1    9.22    2.09
  -2  12  -1    7.62    1.67
   2  12   1    6.31    2.11
   2 -12   1    9.07    1.90
  -2  12  -1    8.66    1.76
   2  12   1    9.59    1.98
  -2 -12  -1    8.28    1.87
  -2  12  -1    8.20    1.82
  -2  12  -1    7.20    1.57
   2 -12   2   83.68    5.53
  -2  12  -2   77.46    5.27
  -2  12  -2   72.17    4.44
   2 -12   2   79.16    4.48
   2  12   2   85.56    6.00
   2  12   2   86.69    5.30
  -2 -12  -2   88.88    5.39
  -2  12  -2   76.55    4.62
  -2  12  -2   79.57    4.93
   2 -12   3   41.95    4.43
  -2  12  -3   47.15    4.39
  -2  12  -3   40.33    3.14
   2  12   3   52.70    4.95
   2  12   3   43.11    3.83
  -2 -12  -3   40.65    3.75
  -2  12  -3   44.13    3.28
  -2  12  -3   48.69    4.03
  -2  12  -4   18.05    2.88
   2 -12   4   13.88    2.99
   2  12   4   17.98    2.93
  -2  12  -4   16.53    1.82
   2  12   4   15.99    2.48
  -2  12  -4   18.57    2.56
  -2 -12  -4   13.19    2.23
   2 -12   5   20.04    3.45
  -2  12  -5   27.33    3.67
  -2 -12  -5   21.29    2.80
   2  12   5   24.02    3.24
  -2  12  -5   21.03    1.79
   2  12   5   27.07    3.69
   2 -12   6   86.89    6.78
   2  12   6   91.87    6.03
  -2 -12  -6   84.77    5.79
   2 -12   7   83.16    6.90
   2  12   7   81.22    5.72
  -2 -12  -7   82.28    5.87
   2  12   7   80.00    6.63
   2 -12   8   59.25    6.12
  -2 -12  -8   53.57    4.90
   2  12   8   61.41    5.08
   2  12   8   64.22    6.06
   2 -12   9   12.25    3.24
   2  12   9    6.59    2.14
   2  12   9    9.57    2.75
   2 -12   9    4.57    2.09
   2 -12  10   71.60    7.38
   2 -12  10   62.53    6.59
   2  12  10   74.01    6.72
   2 -12  11   26.55    4.49
   2 -12  11   12.63    3.02
   2  12  11   18.24    3.84
   2  12  12    0.46    1.54
   2 -12  12    6.65    2.91
   2  12  12    5.25    2.86
   2 -12  12    1.14    2.46
   2  12  13   35.00    4.33
   2 -12  13   43.24    6.13
   2  12  13   35.19    5.22
   2 -12  13   37.12    5.60
   2  12  14    1.99    2.33
   2 -12  14   -0.20    2.54
  -2 -13  14   12.58    3.88
   2 -13 -13    0.81    2.48
  -2 -13  13    0.58    1.98
   2 -13 -12    2.71    2.49
  -2 -13  12    2.58    2.91
   2 -13 -11    4.31    2.75
  -2 -13  11    6.72    2.69
   2 -13 -10   21.24    4.11
  -2 -13  10   15.19    3.39
  -2 -13   9    3.77    2.15
   2 -13  -9    1.06    2.18
   2 -13  -9    1.30    0.62
   2  13  -9    1.42    1.94
   2 -13  -8   27.60    4.44
   2  13  -8   28.89    4.00
   2 -13  -7    1.07    1.89
   2  13  -7   -0.90    1.86
   2 -13  -6  276.44   13.09
   2  13  -6  238.23   11.46
   2 -13  -5    6.35    2.45
  -2  13   5    6.76    1.00
   2  13  -5    5.60    2.00
  -2  13   4  208.50   10.44
   2 -13  -4  224.66   10.78
   2  13  -4  235.00   10.93
  -2  13   4  198.83    7.03
  -2  13   4  215.53   10.60
   2  13  -4  223.57   10.40
   2  13  -4  216.79    9.93
   2 -13  -3    8.40    2.33
  -2  13   3    7.39    2.03
   2  13  -3    7.74    2.19
  -2  13   3    7.37    1.43
  -2  13   3    6.62    2.26
   2  13  -3    7.96    2.27
   2  13  -2  523.93   17.28
  -2  13   2  418.13   13.50
   2 -13  -2  449.44   13.42
  -2  13   2  432.63   15.79
   2 -13  -2  477.66   16.32
  -2  13   2  459.62   11.00
   2  13  -2  489.56   15.77
  -2  13   2  453.66   16.11
   2 -13  -1  196.45    8.03
  -2  13   1  193.60    8.12
   2  13  -1  222.75   10.10
  -2  13   1  195.77    9.21
   2 -13  -1  202.14    9.27
  -2  13   1  206.53    6.33
   2  13  -1  215.65    9.28
  -2  13   1  213.20    9.58
   2  13   0   17.70    2.80
   2 -13   0   17.29    2.49
  -2  13   0   16.33    2.37
   2 -13   0   17.13    2.63
  -2  13   0   11.10    2.01
   2  13   0   18.58    3.06
   2  13   0   21.67    2.88
  -2  13   0   12.09    2.28
  -2  13   0   15.66    1.74
  -2 -13   0   17.57    2.59
   2 -13   1  122.27    6.59
  -2  13  -1  107.33    6.27
   2 -13   1  124.22    6.32
  -2  13  -1  109.81    6.20
   2  13   1  123.52    7.49
   2  13   1  131.90    6.74
  -2 -13  -1  128.38    6.85
   2  13   1  131.74    7.31
  -2  13  -1  116.32    6.37
  -2  13  -1  119.30    6.35
   2 -13   2   44.40    4.23
  -2  13  -2   44.83    4.05
   2  13   2   49.64    4.74
  -2  13  -2   43.05    3.67
   2 -13   2   49.54    3.68
   2  13   2   48.77    4.17
  -2  13  -2   44.40    3.77
  -2  13  -2   43.79    3.78
  -2 -13  -2   44.15    4.03
  -2  13  -3   17.18    2.85
   2 -13   3   18.37    2.95
   2  13   3   21.51    3.23
  -2  13  -3   14.39    1.99
   2  13   3   18.97    2.59
  -2 -13  -3   21.42    2.81
  -2  13  -3   11.48    1.77
  -2  13  -3   15.07    2.46
  -2  13  -4    5.41    2.03
   2 -13   4    3.34    2.00
  -2  13  -4    3.87    1.12
   2  13   4    3.41    1.77
  -2  13  -4    5.05    1.80
  -2 -13  -4    2.87    1.36
  -2  13  -4    2.51    1.22
   2 -13   5   -1.09    2.24
  -2  13  -5    2.25    0.87
   2  13   5    0.35    1.48
  -2 -13  -5    1.92    1.38
   2 -13   6    0.96    1.97
  -2  13  -6    1.23    0.71
   2  13   6    1.85    1.44
  -2 -13  -6    2.45    1.40
   2  13   6    1.02    2.07
   2 -13   7    2.09    2.23
  -2 -13  -7    1.10    1.15
   2  13   7    3.56    1.85
   2  13   7    0.72    1.99
   2 -13   8  105.33    8.26
  -2 -13  -8   96.21    6.65
   2  13   8   96.72    6.58
   2  13   8   98.92    7.57
   2 -13   9   31.29    4.83
   2  13   9   32.13    3.98
   2  13   9   29.15    4.42
   2 -13  10   61.60    6.64
   2  13  10   45.59    5.40
   2 -13  10   52.90    5.63
   2 -13  11    3.18    2.59
   2 -13  11   -1.58    2.31
   2  13  11    2.98    2.38
   2 -13  12   69.35    7.51
   2  13  12   65.66    5.51
   2  13  12   71.80    7.20
   2 -13  12   65.98    6.98
   2 -13  13    8.38    3.28
   2  13  13    2.26    2.18
   2 -13  13    4.67    2.31
   2  13  14  134.56   10.52
   2 -14 -13    5.75    3.08
  -2 -14  13   -0.58    2.13
   2 -14 -12  274.93   15.20
  -2 -14  12  239.00   13.82
   2 -14 -11   11.53    3.76
  -2 -14  11    4.90    2.33
   2 -14 -10  286.26   14.94
  -2 -14  10  257.73   13.60
   2  14 -10  278.13   14.02
   2 -14  -9   20.43    4.30
  -2 -14   9   13.71    3.27
   2  14  -9   14.93    3.43
   2 -14  -8  158.76   10.29
   2  14  -8  155.52    9.61
   2 -14  -7  175.21   10.69
   2  14  -7  172.62    9.81
   2 -14  -6   62.61    6.42
  -2  14   6   54.54    2.28
   2  14  -6   66.28    5.83
   2 -14  -5  150.63    9.09
  -2  14   5  137.02    5.09
   2  14  -5  140.93    8.24
   2 -14  -4    1.09    1.93
  -2  14   4    0.22    0.70
  -2  14   4   -0.15    1.77
   2  14  -4   -0.45    1.66
  -2  14   3  224.93    8.38
  -2  14   3  243.12   11.23
   2 -14  -3  256.85   11.50
   2  14  -3  237.65   10.55
  -2  14   3  248.18   11.35
  -2  14   2   78.76    4.88
   2  14  -2   99.40    6.79
  -2  14   2   94.83    6.53
   2 -14  -2   87.62    6.35
   2  14  -2   99.50    6.41
  -2  14   2   99.28    3.35
  -2  14   2   99.70    6.85
   2 -14  -2   92.93    4.95
  -2  14   1  158.95    7.55
   2 -14  -1  169.29    7.46
   2  14  -1  194.03    9.53
   2  14  -1  183.75    9.37
  -2  14   1  151.08    8.22
   2 -14  -1  177.39    8.74
   2  14  -1  186.29    8.61
  -2  14   1  159.74    5.60
  -2  14   1  173.62    8.88
   2 -14   0  266.73   10.38
  -2  14   0  249.90   10.32
   2  14   0  296.04   12.17
  -2  14   0  233.70   10.54
   2  14   0  282.35   12.20
   2 -14   0  279.19   11.05
   2  14   0  280.64   11.02
  -2  14   0  264.81    8.53
  -2 -14   0  263.26   10.93
  -2  14   0  265.40   11.05
   2 -14   1  146.38    7.70
   2  14   1  152.81    8.26
  -2  14  -1  134.57    7.42
   2  14   1  151.63    8.62
  -2  14  -1  144.14    7.47
   2 -14   1  150.19    7.35
   2  14   1  166.47    8.04
  -2 -14  -1  148.24    7.73
  -2  14  -1  148.15    7.62
  -2  14  -1  150.31    7.58
   2 -14   2  683.31   21.21
  -2  14  -2  713.06   21.70
  -2  14  -2  632.24   19.62
   2  14   2  692.36   20.62
  -2  14  -2  652.02   19.82
  -2  14  -2  709.89   20.77
   2  14   2  744.25   21.93
  -2 -14  -2  693.04   20.87
  -2  14  -3   27.10    3.49
   2 -14   3   25.56    3.75
  -2  14  -3   24.64    2.81
   2  14   3   28.94    3.38
  -2 -14  -3   25.21    3.07
  -2  14  -3   28.24    2.98
  -2  14  -3   32.65    3.66
   2 -14   4  608.80   20.61
  -2  14  -4  613.58   20.74
  -2  14  -4  580.54   16.88
  -2 -14  -4  642.44   19.46
   2  14   4  593.91   18.85
  -2  14  -4  592.65   17.05
  -2  14  -4  649.12   19.89
   2 -14   5   11.96    2.76
  -2  14  -5   12.16    1.66
   2  14   5   14.36    2.67
  -2 -14  -5    8.91    2.05
   2 -14   6  471.27   18.45
  -2  14  -6  461.73   12.60
  -2 -14  -6  475.14   16.48
   2  14   6  522.87   17.02
   2  14   6  510.07   19.08
   2 -14   7   30.16    4.63
  -2 -14  -7   28.46    3.44
   2  14   7   22.69    3.31
   2  14   7   28.26    4.36
   2 -14   8  184.34   11.40
   2  14   8  190.40    9.58
   2  14   8  179.68   10.88
   2 -14   9   63.94    6.82
   2  14   9   68.22    5.58
   2  14   9   60.69    6.37
   2 -14  10   58.70    6.76
   2  14  10   60.29    5.55
   2  14  10   49.72    6.12
   2 -14  11  335.12   16.87
   2  14  11  324.37   16.08
   2  14  12    2.06    1.87
   2 -14  12   -0.06    1.99
   2  14  12    1.82    2.13
   2  14  13   81.57    8.07
   2 -14  13   80.30    8.05
   2  14  14   60.69    7.35
  -2 -15  13  274.08   15.43
   2 -15 -12   -0.63    2.48
  -2 -15  12   -2.01    2.30
   2  15 -12    1.76    1.97
   2 -15 -11  380.20   18.32
   2  15 -11  352.08   16.88
  -2 -15  11  332.46   16.49
   2 -15 -10   31.83    5.30
   2  15 -10   20.94    4.25
   2 -15  -9  249.00   13.89
   2  15  -9  248.59   13.02
   2 -15  -8  114.93    9.04
   2  15  -8  103.74    7.88
   2 -15  -7   64.86    6.69
   2  15  -7   62.70    6.07
   2 -15  -6  448.43   18.08
  -2  15   6  428.65   11.05
   2  15  -6  418.76   16.62
   2 -15  -5    7.01    2.57
  -2  15   5    5.78    1.15
  -2  15   5    7.61    3.20
   2  15  -5    6.07    2.23
  -2  15   4  344.17   11.19
   2 -15  -4  406.50   15.81
   2  15  -4  390.65   14.79
  -2  15   4  368.81   15.30
  -2  15   3    0.76    1.46
   2 -15  -3    2.99    2.18
  -2  15   3    4.49    1.36
   2  15  -3    0.50    1.66
  -2  15   3    7.15    2.61
  -2  15   2  535.24   17.15
   2  15  -2  608.46   20.28
  -2  15   2  571.70   19.74
   2 -15  -2  622.00   20.13
   2  15  -2  583.52   19.06
  -2  15   2  598.38   14.30
  -2  15   2  589.46   19.95
   2 -15  -2  572.83   16.79
  -2  15   1  295.48   11.54
   2 -15  -1  316.52   11.36
   2 -15  -1  330.16   13.11
  -2  15   1  296.19   12.60
   2  15  -1  319.01   13.56
   2  15  -1  322.98   12.51
  -2  15   1  316.20    9.22
  -2  15   1  344.70   13.42
  -2  15   0  204.68    9.42
   2  15   0  236.16   10.93
   2 -15   0  220.60    9.44
   2 -15   0  225.46    9.99
  -2  15   0  191.04    9.56
   2  15   0  232.05   10.09
  -2  15   0  220.90   10.09
  -2  15   0  227.00    7.68
   2 -15   1  992.00   27.85
  -2  15  -1  951.17   27.97
   2  15   1 1082.91   29.56
  -2  15  -1  930.51   27.38
   2 -15   1 1038.15   27.71
   2  15   1 1038.78   28.03
  -2  15  -1  953.28   25.26
  -2  15  -1  970.37   27.66
  -2  15  -1 1029.78   28.07
  -2 -15  -1 1014.45   28.18
   2 -15   2   30.42    3.71
  -2  15  -2   22.30    3.11
   2  15   2   30.86    3.74
  -2  15  -2   30.48    3.25
   2  15   2   29.80    3.47
  -2 -15  -2   31.94    3.61
  -2  15  -2   30.59    3.28
  -2  15  -2   28.42    3.28
   2 -15   3  706.93   22.69
  -2  15  -3  717.43   23.01
  -2  15  -3  674.69   20.30
   2  15   3  714.25   21.53
  -2  15  -3  698.62   20.53
   2  15   3  769.49   22.85
  -2  15  -3  736.00   22.25
  -2 -15  -3  754.01   22.04
   2 -15   4   13.54    2.99
  -2  15  -4   12.01    1.92
   2  15   4   14.65    2.59
  -2 -15  -4   11.75    2.40
  -2  15  -4   11.12    1.91
  -2  15  -4   13.24    2.66
   2 -15   5  345.37   14.98
  -2  15  -5  350.00   11.17
  -2 -15  -5  362.55   13.63
   2  15   5  362.25   13.63
  -2  15  -5  351.42   11.28
   2 -15   6  121.16    8.77
  -2  15  -6  125.07    5.21
   2  15   6  150.79    8.07
  -2 -15  -6  130.96    7.55
   2  15   6  132.49    9.11
   2 -15   7  308.54   14.56
  -2  15  -7  262.86    7.45
  -2 -15  -7  291.79   12.12
   2  15   7  307.01   12.49
   2  15   7  304.62   14.42
   2 -15   8  148.70   10.15
   2  15   8  148.07    8.41
   2  15   8  157.20   10.23
   2 -15   9   99.80    8.59
   2  15   9   99.63    7.12
   2  15   9   98.02    8.36
   2 -15  10  159.22   11.09
   2  15  10  144.02    8.68
   2  15  10  138.16   10.08
   2 -15  11   26.30    4.81
   2  15  11   24.30    4.50
   2 -15  12  182.11   12.55
   2  15  12  162.22   11.43
   2  15  13   21.87    4.60
   2 -16 -12    7.80    3.37
   2  16 -12    4.53    2.07
   2 -16 -11    7.86    3.47
   2  16 -11    3.51    2.64
   2 -16 -10   97.79    8.76
   2  16 -10   83.67    7.66
   2 -16  -9   80.57    7.87
   2  16  -9   81.01    7.37
   2 -16  -8   35.77    5.16
   2  16  -8   22.98    3.89
   2 -16  -7  214.35   12.34
   2  16  -7  194.79   11.02
   2 -16  -6   48.18    5.75
  -2  16   6   37.31    2.33
   2  16  -6   38.15    4.66
  -2  16   5  634.93   17.18
   2 -16  -5  676.19   23.49
   2  16  -5  645.38   21.70
  -2  16   5  649.90   23.14
   2 -16  -4    4.45    1.99
  -2  16   4   -1.58    0.85
  -2  16   4    0.98    2.20
   2  16  -4    0.69    1.86
  -2  16   3  628.78   19.03
   2 -16  -3  735.18   23.24
   2  16  -3  692.99   21.91
  -2  16   3  694.07   23.03
  -2  16   2   12.89    2.17
  -2  16   2   11.13    2.49
   2 -16  -2    6.80    2.39
  -2  16   2   11.49    1.22
  -2  16   2   12.45    3.00
   2  16  -2    9.53    2.38
  -2  16   1  573.24   18.81
   2 -16  -1  616.93   18.63
   2 -16  -1  662.16   20.77
  -2  16   1  596.79   20.46
   2  16  -1  653.01   20.12
  -2  16   1  616.53   15.98
  -2  16   1  634.00   20.89
   2 -16   0   15.43    2.47
  -2  16   0   14.34    2.45
  -2  16   0   11.61    2.11
   2 -16   0   17.95    2.88
   2  16   0   16.67    2.78
  -2  16   0   18.46    1.97
  -2  16   0   15.82    2.63
   2 -16   1  119.75    7.21
  -2  16  -1  118.26    7.20
   2 -16   1  134.00    7.27
  -2  16  -1  107.38    6.81
   2  16   1  137.57    7.49
  -2 -16  -1  121.82    7.24
  -2  16  -1  124.20    7.17
  -2  16  -1  112.18    5.60
  -2  16  -1  117.37    7.14
   2 -16   2    1.73    1.64
  -2  16  -2   -0.24    1.52
  -2  16  -2    2.33    1.24
   2  16   2    0.88    1.48
  -2 -16  -2    3.38    1.50
  -2  16  -2    1.81    1.48
  -2  16  -2    1.14    1.20
   2  16   3   24.00    3.43
   2 -16   3   10.70    2.59
  -2  16  -3   15.89    2.49
   2  16   3   20.82    3.12
  -2 -16  -3   16.04    2.59
  -2  16  -3   17.72    2.79
  -2  16  -3   16.70    2.96
   2 -16   4   81.51    6.51
  -2  16  -4   79.05    4.90
  -2 -16  -4   84.68    5.84
   2  16   4   86.19    5.83
  -2  16  -4   82.18    5.01
   2  16   4   93.96    6.40
   2 -16   5    3.23    1.98
  -2  16  -5    4.43    1.23
   2  16   5    3.05    1.86
  -2 -16  -5    2.08    1.45
  -2  16  -5    3.48    1.40
   2 -16   6   33.28    4.71
  -2  16  -6   24.23    2.28
   2  16   6   21.80    3.16
  -2 -16  -6   22.22    3.23
   2  16   6   19.88    3.67
   2 -16   7   66.01    6.78
   2  16   7   70.59    5.71
   2  16   7   67.16    6.71
   2 -16   8   21.63    4.43
   2  16   8   18.64    3.03
   2  16   8   23.44    4.32
   2 -16   9  303.25   15.73
   2  16   9  323.41   13.58
   2  16   9  296.75   15.45
   2 -16  10    8.96    3.01
   2  16  10    9.42    2.62
   2  16  10    7.89    2.99
   2 -16  11  283.94   15.90
   2  16  11  289.80   15.60
   2  16  12   11.05    3.49
   2 -17 -11   44.59    6.06
   2  17 -11   43.59    5.72
   2 -17 -10    4.69    3.07
   2  17 -10    8.26    2.85
   2 -17  -9   50.19    6.60
   2  17  -9   29.87    4.72
   2 -17  -8   79.53    7.86
   2  17  -8   68.65    6.66
   2 -17  -7   10.14    3.40
   2  17  -7    8.62    2.69
   2 -17  -6  174.97   10.96
   2  17  -6  165.12    9.89
   2 -17  -5    4.03    2.18
  -2  17   5    1.78    0.92
  -2  17   5    7.22    2.85
   2  17  -5    6.75    2.57
  -2  17   4   71.85    4.45
   2 -17  -4   81.71    6.87
   2  17  -4   82.38    6.36
  -2  17   4   78.20    6.87
  -2  17   3   41.79    3.74
   2 -17  -3   45.87    5.30
  -2  17   3   45.20    1.81
   2  17  -3   50.65    5.02
  -2  17   3   60.85    5.94
  -2  17   2   21.78    2.75
   2 -17  -2   27.01    3.92
  -2  17   2   23.49    1.75
  -2  17   2   21.54    3.56
   2  17  -2   22.03    3.21
   2 -17  -1    4.71    1.67
  -2  17   1    5.28    1.65
   2 -17  -1    6.65    2.20
  -2  17   1   -2.06    1.92
   2  17  -1    6.34    2.03
  -2  17   1    5.12    1.19
  -2  17   1    8.66    2.59
   2 -17   0    9.66    2.08
  -2  17   0    7.05    1.59
   2 -17   0   12.72    2.60
  -2  17   0    7.22    1.50
   2  17   0   11.95    2.48
  -2  17   0    9.16    1.54
  -2  17   0   10.01    2.23
   2 -17   1   32.36    3.71
  -2  17  -1   23.59    3.25
  -2  17  -1   26.60    3.26
   2  17   1   31.63    3.71
  -2  17  -1   22.45    3.32
  -2  17  -1   29.53    3.51
  -2  17  -1   29.62    2.79
   2 -17   2    1.73    1.64
  -2  17  -2    5.71    1.90
   2  17   2    2.84    1.40
  -2 -17  -2    3.17    1.48
  -2  17  -2    3.17    1.27
  -2  17  -2    4.72    1.87
   2 -17   3  160.19    9.22
  -2  17  -3  148.36    7.74
   2  17   3  159.89    8.32
  -2 -17  -3  168.06    8.70
  -2  17  -3  155.82    7.93
   2 -17   4    1.85    1.87
  -2  17  -4    1.94    1.28
   2  17   4    2.90    1.93
  -2 -17  -4    3.02    1.62
  -2  17  -4    3.54    1.71
   2 -17   5  132.03    8.94
  -2  17  -5  125.30    6.24
   2  17   5  138.86    7.91
   2  17   5  143.22    9.93
  -2  17  -5  136.18    6.49
   2 -17   6   77.51    7.02
   2  17   6   78.33    5.98
   2  17   6   78.02    7.36
   2 -17   7   13.33    3.23
   2  17   7   11.87    2.46
   2  17   7   10.13    3.04
   2 -17   8   23.75    4.63
   2  17   8   26.63    3.54
   2  17   8   30.83    4.80
   2 -17   9    0.32    2.38
   2  17   9    3.56    2.11
   2  17   9    5.81    2.60
   2 -17  10   55.90    6.89
   2  17  10   47.97    5.13
   2  17  10   61.79    6.95
   2 -17  11    0.91    2.36
   2  17  11    1.70    2.12
   2 -18 -10    3.86    3.33
   2  18 -10   -3.11    2.50
   2 -18  -9   29.82    5.33
   2  18  -9   30.92    4.82
   2 -18  -8    3.20    2.75
   2  18  -8    3.61    2.72
   2 -18  -7   35.24    5.27
   2  18  -7   34.53    4.71
   2 -18  -6    0.45    2.49
   2  18  -6   -1.35    2.00
   2 -18  -5   60.15    6.46
   2  18  -5   61.50    5.93
  -2  18   5   59.01    6.44
   2 -18  -4   47.28    5.55
  -2  18   4   46.04    3.70
  -2  18   4   41.65    5.33
   2  18  -4   43.79    4.99
  -2  18   3   30.93    3.23
   2 -18  -3   36.15    4.86
  -2  18   3   33.51    1.57
   2  18  -3   38.30    4.43
  -2  18   3   35.28    4.77
  -2  18   2   -0.91    1.31
   2 -18  -2    0.06    1.82
  -2  18   2    3.36    0.96
  -2  18   2    3.52    2.34
   2  18  -2    2.17    1.76
  -2  18   1  101.08    6.57
   2 -18  -1  120.05    7.88
   2  18  -1  112.01    7.19
  -2  18   1  110.49    4.79
  -2  18   1  116.44    8.02
   2 -18   0   27.04    3.45
  -2  18   0   21.85    3.01
   2 -18   0   35.85    4.09
  -2  18   0   21.29    3.13
  -2  18   0   31.96    2.74
   2  18   0   26.63    3.59
  -2  18   0   23.62    3.41
   2 -18   1   73.63    5.76
  -2  18  -1   67.75    5.66
   2  18   1   86.24    6.16
  -2  18  -1   76.65    6.01
  -2  18  -1   76.64    4.60
   2 -18   2    8.06    2.47
  -2  18  -2    6.55    2.05
   2  18   2    4.85    2.07
  -2  18  -2    5.85    1.70
  -2  18  -2    8.48    2.25
   2 -18   3    9.25    2.67
  -2  18  -3   17.86    2.79
   2  18   3   21.06    3.32
  -2  18  -3   11.32    2.48
   2 -18   4   88.92    7.14
  -2  18  -4   88.92    5.67
   2  18   4   92.83    6.39
  -2  18  -4   97.04    5.92
   2 -18   5    1.56    2.14
   2  18   5    2.28    1.43
  -2  18  -5    5.75    1.73
   2  18   5    3.77    2.52
   2 -18   6    4.44    2.50
   2  18   6    8.58    2.55
   2  18   6    6.16    2.54
   2 -18   7    1.99    2.42
   2  18   7   -0.23    1.50
   2  18   7   -0.10    2.21
   2 -18   8    1.10    2.20
   2  18   8   10.64    2.54
   2  18   8    6.45    2.97
   2 -18   9  105.79    9.22
   2  18   9  109.19    7.56
   2  18   9  108.80    9.40
   2 -18  10    4.91    2.99
   2  18  10    4.26    2.18
   2  18  10   11.11    3.71
   2  19 -10   10.97    3.50
   2 -19  -9  185.05   12.73
   2  19  -9  186.98   11.83
   2 -19  -8   33.94    5.50
   2  19  -8   24.12    4.34
   2 -19  -7   75.43    7.98
   2  19  -7   78.09    7.18
   2 -19  -6  100.82    8.61
   2  19  -6   82.09    7.16
   2 -19  -5    0.22    2.20
  -2  19   5    4.40    2.46
   2  19  -5    6.31    2.70
   2 -19  -4   10.10    3.22
   2  19  -4    6.16    2.37
  -2  19   4    2.58    2.11
   2 -19  -3   29.84    4.45
  -2  19   3   27.47    3.22
   2  19  -3   27.12    3.91
  -2  19   3   31.87    4.80
  -2  19   2   57.14    4.85
   2 -19  -2   60.85    6.08
  -2  19   2   61.03    3.07
   2  19  -2   65.36    5.68
  -2  19   2   63.81    6.25
  -2  19   1   97.46    6.73
   2 -19  -1  107.79    7.83
  -2  19   1  107.93    4.94
   2  19  -1  113.25    7.40
  -2  19   1  111.25    8.05
   2 -19   0   32.85    3.81
  -2  19   0   20.45    3.04
   2  19   0   27.00    3.83
  -2  19   0   36.44    2.92
  -2  19   0   29.46    3.99
   2 -19   1  366.68   14.73
  -2  19  -1  343.84   14.70
   2  19   1  399.01   15.16
  -2  19  -1  393.78   12.73
  -2  19  -1  360.82   15.03
   2 -19   2   14.22    3.03
  -2  19  -2   16.28    2.91
   2  19   2   14.44    2.58
  -2  19  -2   13.59    2.32
  -2  19  -2   13.41    2.54
   2 -19   3  442.09   17.53
  -2  19  -3  423.65   15.81
   2  19   3  460.21   16.47
  -2  19  -3  454.85   15.51
  -2  19  -3  452.08   16.17
   2 -19   4   16.29    3.65
  -2  19  -4   10.85    2.24
   2  19   4    9.79    2.46
  -2  19  -4    7.28    1.76
   2  19   4   10.86    3.46
   2 -19   5  339.08   16.28
   2  19   5  377.06   14.88
   2  19   5  395.09   18.17
  -2  19  -5  383.50   13.38
   2 -19   6   21.87    4.10
   2  19   6   17.81    3.10
   2  19   6   19.56    4.29
   2 -19   7  171.01   11.50
   2  19   7  186.15    9.94
   2  19   7  199.94   12.63
   2 -19   8   55.33    6.55
   2  19   8   45.61    4.72
   2  19   8   45.93    6.33
   2 -19   9   90.42    8.81
   2  19   9   93.28    7.04
   2  19   9   87.10    8.68
   2  19  10   28.56    4.04
   2 -20  -9   62.81    7.44
   2  20  -9   65.02    7.04
   2 -20  -8   83.19    8.45
   2  20  -8   85.03    7.83
   2 -20  -7  212.57   13.18
   2  20  -7  197.57   11.84
   2 -20  -6   57.32    6.51
   2  20  -6   62.62    6.55
   2 -20  -5  381.19   17.85
   2  20  -5  387.98   16.85
  -2  20   5  424.69   18.80
   2 -20  -4   14.16    3.31
   2  20  -4   20.57    3.79
  -2  20   4   13.74    3.47
   2 -20  -3  500.55   19.86
   2  20  -3  463.34   18.01
  -2  20   3  459.30   19.44
  -2  20   2   33.71    3.91
   2 -20  -2   35.31    4.75
   2  20  -2   33.31    4.36
  -2  20   2   44.31    5.42
  -2  20   1  224.94   10.99
   2  20  -1  235.21   11.58
  -2  20   1  245.73    8.36
  -2  20   1  229.51   12.23
  -2  20   0  143.85    6.32
   2  20   0  135.41    8.39
  -2  20   0  131.51    8.82
   2 -20   1  197.60   10.44
   2  20   1  215.48   10.66
  -2  20  -1  210.00    8.64
  -2  20  -1  202.82   10.83
   2 -20   2  141.46    8.81
  -2  20  -2  132.17    8.23
   2  20   2  140.07    8.28
  -2  20  -2  146.63    7.36
  -2  20  -2  137.37    8.48
   2 -20   3   23.48    3.99
  -2  20  -3   22.58    3.39
   2  20   3   19.43    3.20
  -2  20  -3   20.76    3.02
  -2  20  -3   17.67    3.08
   2 -20   4  367.44   16.42
   2  20   4  382.41   14.94
   2  20   4  388.73   18.17
  -2  20  -4  360.59   14.30
  -2  20  -4  383.27   14.36
   2 -20   5    6.83    2.49
   2  20   5    6.08    2.10
  -2  20  -5    4.72    1.86
   2  20   5    9.15    3.42
   2 -20   6  234.03   13.47
   2  20   6  246.05   11.58
   2  20   6  235.68   14.16
   2 -20   7   37.12    5.58
   2  20   7   38.65    4.44
   2  20   7   47.89    6.56
   2 -20   8  137.65   10.68
   2  20   8  139.21    8.61
   2  20   8  151.58   11.49
   2  20   9  144.81    8.92
   2 -21  -8  131.90   10.70
   2  21  -8  132.39   10.04
   2 -21  -7   16.78    3.93
   2  21  -7   14.45    3.46
   2 -21  -6  284.41   15.62
   2  21  -6  277.81   14.37
   2 -21  -5   -0.28    2.38
  -2  21   5    1.94    2.35
   2  21  -5   -1.08    2.88
   2 -21  -4  327.42   16.14
   2  21  -4  308.41   14.46
  -2  21   4  297.22   15.53
   2 -21  -3   10.49    3.30
  -2  21   3    7.40    2.89
   2  21  -3    5.24    2.36
   2  21  -2  216.10   11.21
  -2  21   2  214.63   12.44
   2  21  -1   14.15    3.03
  -2  21   1   17.44    3.65
   2  21   0  105.07    7.45
  -2  21   0   96.86    5.19
  -2  21   0   92.66    7.55
   2  21   1   83.91    6.47
  -2  21  -1   88.17    5.27
   2 -21   1   75.17    6.29
  -2  21  -1   71.30    6.29
   2 -21   2   55.50    5.68
   2  21   2   75.92    6.03
  -2  21  -2   71.92    5.02
  -2  21  -2   66.45    5.86
   2 -21   3   56.22    5.80
   2  21   3   48.63    4.88
  -2  21  -3   57.63    5.34
   2  21   3   50.43    6.12
  -2  21  -3   54.35    4.68
   2 -21   4    1.10    2.05
   2  21   4    1.19    1.56
  -2  21  -4    0.49    1.53
  -2  21  -4    1.32    1.26
   2  21   4   -0.37    2.31
   2 -21   5   61.40    6.66
   2  21   5   58.32    5.36
  -2  21  -5   59.71    5.39
   2  21   5   66.42    7.40
   2 -21   6   33.95    5.49
   2  21   6   30.19    4.00
   2  21   6   41.77    6.13
   2 -21   7   31.40    5.28
   2  21   7   37.97    4.36
   2  21   7   45.38    6.42
   2 -21   8  137.09   10.81
   2 -22  -7    7.06    3.20
   2  22  -7   12.53    3.28
   2 -22  -6    7.52    3.28
   2  22  -6    1.88    2.20
   2 -22  -5    1.44    2.51
   2  22  -5   -0.81    2.13
  -2  22   5    0.24    2.19
   2 -22  -4   -3.25    3.15
   2  22  -4   -1.88    2.08
   2  22  -3    9.99    2.72
  -2  22   3   11.87    3.32
   2  22  -2   17.35    3.30
  -2  22   2   22.97    4.67
   2  22  -1    8.04    2.55
  -2  22   1    3.11    2.57
   2  22   0   20.05    3.42
  -2  22   0   11.45    2.80
   2  22   1   -0.85    1.50
  -2  22  -1   -2.14    2.44
   2  22   2   77.18    6.20
  -2  22  -2   80.03    5.47
   2 -22   2   64.47    6.19
  -2  22  -2   75.47    6.50
   2 -22   3   -0.39    1.76
   2  22   3    1.93    2.00
  -2  22  -3   -1.09    1.22
  -2  22  -3    2.73    1.88
   2  22   3   -4.33    2.85
   2 -22   4   55.91    6.14
   2  22   4   56.37    5.36
  -2  22  -4   60.50    5.30
   2  22   4   55.10    6.84
   2 -22   5    9.74    3.27
   2  22   5   11.90    2.87
   2  22   5    9.74    3.34
  -2  22  -5   11.01    2.53
   2 -22   6   21.79    3.94
   2  22   6   25.89    3.67
  -2  22  -6   26.40    3.89
   2 -22   7   28.03    5.03
   2  23  -7   -1.03    2.61
   2 -23  -6   10.41    3.65
   2  23  -6   14.56    3.46
   2 -23  -5    3.23    2.31
   2  23  -5    0.39    1.88
   2  23  -4   77.38    7.06
  -2  23   4   71.36    7.75
   2  23  -3   18.36    3.53
  -2  23   3   25.93    4.78
   2  23  -2   25.82    4.10
  -2  23   2   28.00    5.08
   2  23  -1   44.49    5.33
  -2  23   1   44.39    5.83
   2  23   0   34.24    4.54
  -2  23   0   29.74    4.46
   2  23   1   20.94    3.61
  -2  23  -1   29.72    4.22
   2  23   2    3.38    2.26
   2  23   2    0.70    2.25
  -2  23  -2    1.33    2.34
   2 -23   3   11.03    3.05
   2  23   3   11.71    2.74
  -2  23  -3   16.27    3.32
   2  23   3   12.63    3.44
   2 -23   4   10.19    3.22
   2  23   4   15.34    3.07
   2  23   4   15.74    4.22
   2 -23   5    9.03    3.04
   2  23   5   10.29    2.89
  -2  23  -5    7.77    2.37
   2 -23   6   18.52    4.23
  -2  23  -6   15.05    3.15
  -2  23  -7    1.17    1.71
  -2  23  -8   32.94    4.82
   2  24  -6   13.42    3.63
   2  24  -5   26.18    4.54
  -2  24   4    1.14    2.37
   2  24  -4    1.22    2.16
   2  24  -3   31.45    4.65
  -2  24   3   38.52    5.69
   2  24  -2   30.51    4.64
  -2  24   2   32.80    5.48
   2  24  -1    3.65    2.06
  -2  24   1    4.14    2.39
   2  24   0   80.74    7.05
  -2  24   0   83.08    7.72
   2  24   1    1.01    1.82
   2  24   1    3.35    2.42
  -2  24  -1   -1.67    2.36
   2  24   2  161.00    9.61
  -2  24  -2  147.86    9.76
   2  24   2  151.34   11.67
   2 -24   3    0.31    1.88
   2  24   3    3.31    2.09
   2 -24   4  351.61   16.97
   2 -24   5    2.57    2.77
   2  25  -5    0.13    2.03
   2  25  -4  386.85   17.67
   2  25  -3    5.54    2.43
  -2  25   3    9.11    3.35
   2  25  -2  289.43   14.68
  -2  25   2  296.76   16.25
   2  25  -1   24.36    3.99
  -2  25   1   31.52    5.34
   2  25   0  143.84    9.63
   2  25   0  164.04   12.09
  -2  25   0  162.57   11.12
   2  25   1   71.13    6.49
  -2  25  -1   69.62    7.00
   2  25   2   40.46    4.83
   2 -25   4    3.32    2.38
   2  26  -3  114.46    9.09
   2  26  -2   24.99    4.41
  -2  26   2   30.61    5.88
   2  26  -1   64.79    6.60
  -2  26   1   70.18    7.69
   2  26   0   29.34    4.45
  -2  26   0   28.68    4.86
   3   0 -17    0.03    1.87
   3   0 -16  509.58   21.15
  -3   0  16  522.12   22.19
   3   0 -15    2.18    1.92
   3   0 -14  215.11   12.10
   3   0 -13   -2.79    2.01
   3   0 -12   82.55    6.93
   3   0 -12   73.51    5.06
   3   0 -11   -0.23    2.04
   3   0 -11    0.87    1.04
   3   0 -10   35.95    4.45
   3   0 -10   35.43    3.20
   3   0  -9    1.13    1.87
   3   0  -9   -0.02    0.79
   3   0  -8  119.74    7.35
   3   0  -8  108.01    5.34
   3   0  -7   14.87    3.45
   3   0  -7   13.99    1.96
   3   0  -7   30.17    3.33
   3   0  -6  228.29    7.86
   3   0  -6  235.19    8.68
  -3   0   6  210.32    8.43
   3   0  -5    0.80    0.82
  -3   0   5    0.97    1.24
   3   0  -5    2.57    1.45
   3   0  -4 1347.62   32.62
  -3   0   4 1357.48   31.67
  -3   0   3   -0.04    0.88
   3   0  -3    0.42    1.05
   3   0  -2 2213.14   49.84
  -3   0   2 2140.34   49.51
   3   0  -1    0.55    1.20
   3   0  -1    1.03    0.58
  -3   0   1   -0.20    0.94
  -3   0   0 4785.37  105.63
   3   0   0 4800.28  105.68
  -3   0  -1    0.84    1.15
   3   0   1    0.40    1.42
   3   0   2 1476.39   36.15
  -3   0  -2 1495.94   36.09
  -3   0  -3    1.58    1.25
   3   0   3    3.42    1.85
  -3   0  -4  446.07   14.33
   3   0   4  409.68   14.05
   3   0   5   -0.23    1.62
  -3   0  -5    0.87    1.20
   3   0   5    1.37    0.87
   3   0   6  107.98    6.65
   3   0   6  105.55    4.89
  -3   0  -6  115.53    6.72
   3   0   7   13.02    1.97
   3   0   7   12.20    3.14
  -3   0  -7    8.77    2.70
   3   0   8  296.06   12.46
   3   0   8  266.41    9.26
  -3   0  -8  291.57   12.51
   3   0   8  276.49    9.27
   3   0   9    0.76    0.82
   3   0   9    1.46    1.81
   3   0   9    1.58    1.12
   3   0  10  408.97   13.10
   3   0  10  473.99   17.61
   3   0  10  433.02   13.32
   3   0  11   -2.17    1.05
   3   0  11    0.05    1.86
   3   0  12  331.92   15.24
   3   0  13    6.09    2.76
   3   0  14  677.37   25.15
   3   0  15   -0.53    2.27
   3   0  16  256.29   14.80
   3   1 -17  117.26    9.28
   3  -1 -17  114.38    9.34
   3  -1 -16   53.83    6.51
   3   1 -16   56.90    6.49
  -3  -1  16   51.83    7.04
   3   1 -15   81.95    7.37
   3  -1 -15   84.83    7.80
  -3  -1  15   91.02    8.22
   3   1 -14  138.28    9.47
   3  -1 -14  135.12    9.53
  -3  -1  14  149.16   10.23
   3   1 -13    2.49    2.51
   3  -1 -13   -0.57    1.99
   3   1 -13    3.11    1.39
  -3  -1  13    5.37    3.12
   3   1 -12  280.92   13.21
   3  -1 -12  290.45   13.60
   3   1 -12  259.44   10.74
   3  -1 -12  258.28   10.03
  -3  -1  12  285.90   13.25
   3   1 -11    6.58    2.43
   3  -1 -11    2.68    1.88
   3   1 -11    3.63    1.39
   3  -1 -11    2.74    1.16
  -3  -1  11    7.72    2.77
   3   1 -10  655.03   21.56
   3  -1 -10  676.86   21.85
   3  -1 -10  628.15   17.83
   3   1 -10  639.94   18.91
  -3  -1  10  633.79   20.84
   3   1  -9   13.21    3.10
   3  -1  -9   11.28    2.63
   3   1  -9   11.88    2.00
   3  -1  -9   12.28    1.72
  -3  -1   9   13.32    2.96
   3  -1  -8  589.59   19.17
   3   1  -8  599.33   18.96
   3   1  -8  557.56   16.53
   3  -1  -8  552.67   15.62
  -3  -1   8  574.00   17.76
   3  -1  -7  496.79   17.25
   3   1  -7  523.48   15.03
   3  -1  -7  503.25   14.10
   3  -1  -7  513.68   15.29
   3   1  -7  514.69   15.87
  -3  -1   7  489.87   15.77
   3  -1  -6  191.12    9.18
   3  -1  -6  199.68    6.99
   3   1  -6  210.72    7.71
   3  -1  -6  211.85    7.90
   3   1  -6  205.08    8.23
  -3  -1   6  196.70    8.03
   3   1  -5  261.39    8.87
   3  -1  -5  261.69    8.24
   3  -1  -5  267.17    8.87
  -3  -1   5  260.12    8.96
   3   1  -5  264.73    9.41
   3   1  -4  176.11    7.00
   3  -1  -4  169.74    6.36
  -3  -1   4  160.37    6.10
  -3   1   4  156.40    5.76
   3   1  -3  151.66    6.11
   3  -1  -3  145.57    5.63
  -3   1   3  152.22    5.68
  -3  -1   3  143.24    5.97
  -3   1   3  158.61    4.82
   3  -1  -2    4.82    1.39
   3   1  -2    0.36    1.24
  -3   1   2    0.94    0.82
  -3  -1   2    0.81    0.85
   3   1  -2    1.48    0.85
  -3   1   1  108.47    4.62
   3   1  -1  113.32    5.17
  -3  -1   1  109.26    4.99
   3  -1  -1  116.25    4.86
  -3   1   0  398.73   11.28
   3  -1   0  348.61   11.04
  -3  -1   0  367.88   11.55
   3   1   0  390.04   11.71
   3   1   1  259.15    9.15
  -3  -1  -1  264.33    9.07
   3  -1   1  258.54    9.04
  -3   1  -1  251.24    8.67
  -3  -1  -2  540.00   15.84
   3   1   2  555.48   16.38
   3  -1   2  557.47   15.93
  -3   1  -2  548.50   15.71
   3   1   3  122.36    6.47
  -3   1  -3  126.02    6.23
  -3  -1  -3  129.52    6.37
   3  -1   3  118.82    6.08
  -3   1  -4 1431.57   35.86
   3  -1   4 1405.58   35.67
  -3  -1  -4 1430.89   35.80
   3   1   4 1418.75   35.72
   3  -1   5   -1.55    1.64
  -3   1  -5    0.15    1.14
  -3  -1  -5   -1.08    1.42
   3   1   5   -0.11    1.68
   3   1   5   -0.24    0.86
   3  -1   5    1.30    1.55
   3  -1   6  770.85   22.77
   3  -1   6  719.23   18.97
   3   1   6  731.89   19.93
  -3   1  -6  787.32   22.72
   3   1   6  782.04   22.67
  -3  -1  -6  852.43   23.29
   3   1   7  233.17   10.48
   3  -1   7  219.53   10.53
   3  -1   7  206.34    7.43
   3   1   7  211.16    8.17
  -3  -1  -7  220.94   10.26
  -3   1  -7  226.63   10.42
   3  -1   7  237.49    7.53
   3  -1   8  841.17   24.69
   3   1   8  821.56   24.21
   3  -1   8  732.34   19.77
   3   1   8  755.62   20.85
  -3   1  -8  845.23   24.72
  -3  -1  -8  815.96   24.54
   3  -1   8  775.77   19.75
   3   1   8  763.76   20.74
   3  -1   9  125.18    5.41
   3   1   9  127.94    6.13
   3   1   9  150.54    8.56
   3  -1   9  144.86    8.66
   3  -1   9  132.04    5.49
   3   1   9  140.49    6.32
   3  -1  10  159.84    6.53
   3   1  10  158.80    7.26
   3   1  10  185.44   10.01
   3  -1  10  178.94   10.17
   3   1  10  178.16    7.54
   3  -1  11   59.80    3.68
   3   1  11   64.15    4.34
   3  -1  11   64.93    5.99
   3   1  11   68.94    6.17
   3   1  11   65.27    4.50
   3   1  12   59.96    4.41
   3  -1  12   76.61    7.05
   3   1  12   69.70    6.73
   3  -1  13  107.03    8.48
   3   1  13  112.21    8.32
   3   1  14    0.52    2.04
   3  -1  14    7.65    4.18
   3   1  15   96.77    8.48
   3  -1  15  107.33    9.01
   3  -1  16   14.99    3.95
   3   1  16   20.05    4.67
   3   2 -17   41.60    5.67
   3  -2 -17   31.28    5.18
   3  -2 -16   42.08    5.71
   3   2 -16   37.59    5.20
  -3  -2  16   36.50    5.77
   3   2 -15  122.41    9.10
   3  -2 -15  111.03    9.13
  -3  -2  15  124.86    9.83
   3   2 -14   12.58    3.42
   3  -2 -14    9.49    3.31
  -3  -2  14    6.71    2.85
   3   2 -13  112.35    8.18
   3  -2 -13  112.59    8.51
   3   2 -13   98.01    6.66
  -3  -2  13  115.69    8.53
   3   2 -12    4.15    2.59
   3  -2 -12    3.88    2.08
   3  -2 -12    0.78    0.75
   3   2 -12    2.62    1.49
  -3  -2  12    6.34    2.93
   3   2 -11   45.46    4.90
   3  -2 -11   44.76    5.00
   3   2 -11   48.34    4.14
   3  -2 -11   47.94    3.40
  -3  -2  11   50.53    5.07
   3   2 -10    6.76    2.40
   3  -2 -10    2.03    1.76
   3  -2 -10    3.45    1.16
   3   2 -10    4.62    1.51
  -3  -2  10    7.08    2.50
   3  -2  -9  155.71    8.67
   3   2  -9  146.93    8.32
   3  -2  -9  155.71    5.96
   3   2  -9  138.50    6.95
  -3  -2   9  151.50    8.02
   3  -2  -8    6.54    2.31
   3  -2  -8   10.98    1.49
   3   2  -8   11.74    1.99
  -3  -2   8   10.90    2.51
   3  -2  -7   96.13    6.48
   3   2  -7  101.97    5.43
   3  -2  -7  102.75    4.41
   3   2  -7  105.95    5.97
  -3  -2   7   99.68    5.87
   3  -2  -7  106.53    5.28
   3  -2  -6    1.86    1.93
   3   2  -6    3.08    1.28
   3  -2  -6    4.42    0.99
   3  -2  -6    4.72    1.27
   3   2  -6    6.01    1.81
  -3  -2   6    2.98    1.55
   3  -2  -5   10.68    2.69
   3   2  -5   13.85    1.90
   3  -2  -5   14.07    1.53
   3  -2  -5   12.75    1.77
   3   2  -5   17.30    2.50
  -3  -2   5   13.47    2.05
   3  -2  -4   25.97    2.15
   3   2  -4   29.10    2.93
   3  -2  -3   25.56    2.29
  -3   2   3   25.15    1.98
  -3  -2   3   27.74    2.60
  -3   2   3   24.48    1.74
   3   2  -3   25.04    2.22
   3   2  -3   28.41    2.72
   3  -2  -2   37.28    2.44
   3   2  -2   31.57    2.78
  -3   2   2   37.10    2.39
   3   2  -2   35.49    2.22
  -3  -2   2   31.88    2.63
   3   2  -1   56.75    3.87
   3  -2  -1   48.44    3.03
  -3   2   1   51.07    3.05
  -3  -2   1   45.38    3.40
  -3   2   0  421.08   11.84
   3  -2   0  422.91   12.21
   3   2   0  423.11   12.65
  -3  -2   0  398.79   12.47
   3   2   1  360.81   11.53
  -3   2  -1  355.55   10.61
  -3  -2  -1  344.45   11.32
   3  -2   1  318.81   10.65
   3  -2   2    2.07    1.32
  -3   2  -2    2.94    1.22
  -3  -2  -2    4.36    1.57
   3   2   2    1.70    1.70
   3   2   3  531.03   16.10
  -3   2  -3  544.41   15.92
  -3  -2  -3  529.82   15.95
   3  -2   3  518.06   15.68
   3  -2   4   35.53    3.80
   3   2   4   43.36    3.90
  -3  -2  -4   41.68    3.81
  -3   2  -4   42.02    3.67
   3  -2   4   36.46    3.73
   3  -2   5 1053.20   28.56
  -3  -2  -5 1099.15   28.46
  -3   2  -5 1051.84   28.18
   3   2   5 1063.09   28.19
   3   2   5  985.19   26.28
   3  -2   6   24.75    3.56
   3  -2   6   22.02    1.81
   3   2   6   24.12    2.56
   3   2   6   21.62    3.24
  -3  -2  -6   23.42    3.23
  -3   2  -6   21.20    3.06
   3  -2   7  264.73   11.39
   3   2   7  221.18    8.87
   3  -2   7  253.76    7.61
  -3   2  -7  272.81   11.38
   3   2   7  244.46   10.84
  -3  -2  -7  255.38   11.12
   3  -2   7  250.51    7.49
   3  -2   8   14.74    2.76
   3  -2   8   18.47    1.69
   3   2   8   18.75    2.45
   3   2   8   18.99    3.10
  -3   2  -8   22.83    3.37
  -3  -2  -8   20.50    3.28
   3   2   8   22.11    2.54
   3  -2   8   20.30    1.80
   3  -2   9   42.15    2.54
   3   2   9   43.41    3.59
   3   2   9   47.92    4.83
   3  -2   9   48.08    5.16
   3   2   9   48.45    3.72
   3   2  10    7.47    1.72
   3  -2  10    8.07    1.20
   3  -2  10    6.46    2.34
   3   2  10   10.19    2.62
   3   2  10   10.56    2.07
   3  -2  11    4.63    1.10
   3   2  11    1.00    1.19
   3   2  11    4.87    2.26
   3  -2  11    5.31    2.33
   3   2  11    6.53    1.79
   3   2  12   93.40    5.80
   3  -2  12   96.87    7.78
   3   2  12   88.18    7.22
   3   2  12   96.00    5.85
   3  -2  13    3.21    2.30
   3   2  13    5.52    2.59
   3   2  14    7.74    2.96
   3  -2  14    2.29    2.05
   3   2  15   57.31    6.58
   3  -2  15   52.32    6.73
   3  -2  16   12.66    3.93
   3   2  16    8.38    3.22
   3   2  17   38.26    5.81
   3  -3 -17   28.45    5.07
   3   3 -17   26.92    4.56
   3  -3 -16   17.14    3.87
   3   3 -16   15.14    3.65
  -3  -3  16   13.19    4.32
   3  -3 -15    4.05    2.78
   3   3 -15    2.15    2.16
  -3  -3  15    7.61    3.33
   3   3 -14  136.94    9.22
   3  -3 -14  135.14    9.76
  -3  -3  14  145.89   10.15
   3   3 -13    7.94    2.91
   3  -3 -13    5.10    2.76
   3   3 -13    3.03    1.78
  -3  -3  13    4.28    2.87
   3  -3 -12  126.33    8.78
   3   3 -12  139.04    8.71
   3   3 -12  120.62    7.24
  -3  -3  12  128.32    8.76
   3   3 -11   31.60    4.30
   3  -3 -11   27.49    4.12
   3  -3 -11   22.90    2.19
   3   3 -11   26.35    3.25
  -3  -3  11   27.89    4.32
   3  -3 -10   57.82    5.53
   3   3 -10   62.66    5.52
   3  -3 -10   56.46    3.21
   3   3 -10   59.52    4.63
  -3  -3  10   60.79    5.47
   3  -3  -9    7.95    2.42
   3   3  -9   10.49    2.03
   3  -3  -9    7.00    1.16
  -3  -3   9   11.02    2.79
   3  -3  -8  218.38   10.31
   3   3  -8  204.26    8.69
   3  -3  -8  196.80    6.44
   3   3  -8  193.97    8.94
  -3  -3   8  207.68    9.29
   3  -3  -7   80.48    6.19
   3   3  -7   94.96    5.32
   3  -3  -7   83.24    3.60
   3  -3  -7   89.23    4.59
   3   3  -7   95.96    5.74
  -3  -3   7   93.85    5.73
   3  -3  -6    2.13    1.75
   3   3  -6    4.51    1.43
   3  -3  -6    2.19    0.71
   3  -3  -6    1.24    1.06
   3   3  -6    2.92    1.51
  -3  -3   6    3.09    1.46
   3  -3  -5    2.19    1.89
   3  -3  -5    1.15    0.64
   3   3  -5   -0.07    0.90
   3  -3  -5    0.94    0.91
   3   3  -5    2.14    1.74
  -3  -3   5   -0.46    1.29
   3  -3  -4   11.57    2.63
   3   3  -4   14.06    2.05
   3   3  -4   16.47    2.29
   3  -3  -4   14.18    1.62
   3  -3  -3   15.44    2.69
   3  -3  -3   12.65    1.51
   3   3  -3   15.28    2.12
   3   3  -3   15.09    1.73
  -3   3   3   12.12    1.34
  -3  -3   3   12.73    1.92
  -3   3   2   53.98    2.83
   3   3  -2   56.30    3.83
   3  -3  -2   48.41    2.84
   3   3  -2   50.76    3.06
  -3  -3   2   56.86    3.85
  -3   3   1    4.85    1.13
   3   3  -1    7.25    2.01
   3  -3  -1    3.43    1.16
  -3  -3   1    3.08    1.22
  -3  -3   0  221.51    8.49
   3  -3   0  207.15    7.44
  -3   3   0  226.57    7.48
   3   3   0  234.59    8.66
  -3  -3  -1    3.65    1.44
  -3   3  -1    4.77    1.35
   3  -3   1    7.00    1.65
   3   3   1    6.15    2.00
   3  -3   1    1.69    0.64
  -3  -3  -2  702.62   19.28
  -3   3  -2  700.81   18.66
   3   3   2  696.23   19.23
   3  -3   2  645.33   18.59
   3  -3   2  656.07   19.07
   3  -3   3   16.79    2.53
  -3  -3  -3   20.63    2.52
  -3   3  -3   19.58    2.41
   3   3   3   19.46    2.64
   3  -3   3   21.01    2.88
   3  -3   4  224.38    9.59
   3   3   4  231.38    9.38
  -3   3  -4  228.41    9.13
  -3  -3  -4  236.48    9.40
   3  -3   5   19.45    3.00
  -3  -3  -5   26.16    3.34
   3   3   5   30.42    3.51
  -3   3  -5   25.26    2.99
   3   3   5   26.75    2.79
   3  -3   6  205.19    9.63
   3  -3   6  196.69    6.00
   3   3   6  208.10    8.29
  -3  -3  -6  226.87    9.69
  -3   3  -6  208.19    9.42
   3   3   6  214.32    9.51
   3  -3   7    0.01    1.73
   3  -3   7   -0.12    0.45
   3   3   7    0.54    1.09
   3   3   7   -0.99    1.78
  -3   3  -7    1.39    1.33
  -3  -3  -7   -1.12    1.36
   3  -3   7    1.06    0.73
   3  -3   8   82.79    6.43
   3   3   8   70.54    4.79
   3  -3   8   71.52    2.88
   3   3   8   78.55    5.88
  -3   3  -8   78.28    5.96
  -3  -3  -8   87.98    6.31
   3   3   8   81.12    5.00
   3  -3   9    2.19    0.72
   3   3   9    2.49    1.42
   3   3   9    4.50    2.27
   3  -3   9    2.94    2.02
   3   3   9    3.30    1.61
   3   3  10   11.59    2.21
   3  -3  10   16.07    3.44
   3   3  10   12.78    2.90
   3   3  10   12.53    2.31
   3   3  11    3.24    1.55
   3  -3  11    3.03    1.87
   3   3  11    4.51    2.18
   3   3  11    5.10    1.88
   3   3  12   -0.13    1.33
   3  -3  12    4.24    2.64
   3   3  12    2.39    2.28
   3   3  12    3.31    1.60
   3   3  13   -0.74    1.83
   3  -3  13    2.35    2.22
   3   3  14    7.91    2.97
   3  -3  14   12.68    3.50
   3   3  15    4.45    2.31
   3  -3  15    2.02    2.80
   3   3  16   30.66    5.09
   3  -3  16   28.79    5.19
   3   3  17   15.98    4.04
   3  -4 -17    4.84    2.89
   3   4 -16   87.04    7.55
   3  -4 -16   97.51    8.72
  -3  -4  16  109.80    9.41
   3  -4 -15   23.02    4.41
   3   4 -15   35.17    4.87
  -3  -4  15   35.04    5.51
   3   4 -14   79.64    6.96
   3  -4 -14   78.38    7.41
  -3  -4  14   87.88    7.83
   3   4 -13  295.98   13.83
   3  -4 -13  292.54   14.69
  -3  -4  13  301.88   14.66
   3  -4 -12   10.96    3.30
   3   4 -12    8.50    2.79
   3   4 -12    8.01    2.02
  -3  -4  12    5.14    2.79
   3   4 -11  266.13   12.10
   3  -4 -11  256.70   12.72
   3   4 -11  243.30   11.04
  -3  -4  11  256.45   12.39
   3   4 -10    7.23    2.48
   3  -4 -10    5.06    2.39
   3   4 -10    4.84    1.65
  -3  -4  10    2.29    2.05
   3  -4  -9  692.87   22.70
   3  -4  -9  688.79   16.71
   3   4  -9  689.57   20.95
  -3  -4   9  714.06   21.87
   3  -4  -8   35.06    4.46
   3   4  -8   34.41    3.61
   3  -4  -8   30.26    1.77
   3   4  -8   35.43    3.80
  -3  -4   8   31.98    3.88
   3  -4  -7  603.69   19.65
   3   4  -7  612.91   17.94
   3  -4  -7  548.76   13.84
   3   4  -7  600.42   18.36
   3  -4  -7  600.99   15.97
  -3  -4   7  626.72   18.27
   3  -4  -6   65.23    5.19
   3   4  -6   69.01    4.56
   3  -4  -6   67.81    2.69
   3   4  -6   67.21    4.77
  -3  -4   6   68.33    4.56
   3  -4  -6   67.74    3.52
   3  -4  -5  296.83    7.96
   3   4  -5  317.25   11.01
   3  -4  -5  283.17   11.82
   3  -4  -5  296.58    8.86
   3   4  -5  321.78   11.26
   3  -4  -4  328.54   12.18
   3   4  -4  352.93   11.60
   3  -4  -4  304.57    8.91
   3   4  -4  334.02   11.10
   3   4  -4  319.92   10.57
   3  -4  -3    3.48    1.77
   3  -4  -3    3.58    0.88
   3   4  -3    7.48    2.11
  -3   4   3    2.88    0.81
  -3  -4   3    3.21    1.62
   3   4  -3    1.91    1.02
   3  -4  -2 1572.87   35.98
   3   4  -2 1456.44   35.19
   3  -4  -2 1458.67   32.89
  -3   4   2 1352.96   32.54
  -3  -4   2 1455.60   35.20
   3  -4  -1    1.81    1.60
   3  -4  -1    0.29    0.89
   3   4  -1    0.45    1.45
  -3   4   1    0.15    0.68
  -3  -4   1   -0.11    1.10
   3  -4   0  794.23   19.64
  -3  -4   0  769.77   20.92
  -3   4   0  764.61   19.44
   3   4   0  816.84   21.40
   3  -4   1  251.86    9.34
  -3   4  -1  270.47    8.57
  -3  -4  -1  250.64    9.42
   3  -4   1  237.41    8.65
   3   4   1  288.12    9.82
   3  -4   2  408.01   13.11
  -3  -4  -2  416.35   13.29
  -3   4  -2  423.26   12.46
   3   4   2  431.83   13.36
   3  -4   2  386.54   12.41
   3  -4   2  368.20   10.58
   3  -4   3  312.68   11.51
  -3   4  -3  323.94   10.91
   3   4   3  332.18   11.77
  -3  -4  -3  311.30   11.25
   3  -4   4   12.37    2.64
  -3   4  -4   13.34    2.24
  -3  -4  -4   11.95    2.27
   3   4   4   12.20    2.38
   3  -4   5  680.65   20.23
   3   4   5  603.26   18.29
   3   4   5  658.77   19.56
  -3  -4  -5  643.08   19.56
  -3   4  -5  643.78   19.32
   3  -4   6   21.08    3.45
   3   4   6   24.39    2.88
   3  -4   6   24.22    1.26
  -3   4  -6   23.18    3.01
   3   4   6   25.69    3.39
  -3  -4  -6   21.26    3.16
   3  -4   6   24.96    1.29
   3  -4   7  591.01   19.75
   3   4   7  561.40   17.63
   3   4   7  594.04   19.35
  -3   4  -7  597.14   19.31
  -3  -4  -7  589.78   19.22
   3  -4   8    7.04    2.51
   3   4   8    8.18    1.75
   3   4   8    7.86    2.35
  -3  -4  -8    7.73    2.09
   3   4   8    9.80    1.83
   3   4   9  676.39   20.89
   3  -4   9  700.30   23.41
   3   4   9  739.03   22.77
   3   4   9  690.60   20.79
   3   4  10  152.16    7.99
   3  -4  10  162.47    9.96
   3   4  10  181.54    9.76
   3   4  10  165.78    8.22
   3   4  11  113.85    7.01
   3  -4  11  136.76    9.29
   3   4  11  146.56    9.09
   3   4  11  122.86    7.22
   3   4  12  307.66   12.61
   3  -4  12  321.55   15.34
   3   4  12  324.45   14.56
   3   4  12  308.45   12.67
   3   4  13   68.19    6.77
   3  -4  13   70.44    7.19
   3   4  13   61.48    5.43
   3   4  14   90.09    7.69
   3  -4  14  108.85    9.09
   3   4  15    6.88    3.01
   3  -4  15    4.98    2.65
   3   4  16   40.84    5.70
   3  -5 -16   13.16    3.76
   3   5 -16   13.31    3.38
  -3  -5  16   14.73    4.17
   3  -5 -15  284.42   15.53
   3   5 -15  316.10   14.76
  -3  -5  15  300.91   15.91
   3  -5 -14    7.90    3.00
   3   5 -14    7.97    2.39
  -3  -5  14    3.03    2.26
   3   5 -13  334.01   14.81
   3  -5 -13  328.88   16.06
  -3  -5  13  337.14   15.90
   3  -5 -12   54.81    6.03
   3   5 -12   63.41    5.87
  -3  -5  12   56.39    5.95
   3  -5 -11    6.24    2.68
   3   5 -11    6.77    2.76
   3   5 -11    5.84    1.95
  -3  -5  11    3.90    1.98
   3  -5 -10   66.49    6.10
   3   5 -10   73.03    5.54
  -3  -5  10   71.54    5.96
   3  -5  -9  149.92    9.23
   3   5  -9  144.58    7.92
  -3  -5   9  153.81    8.61
   3  -5  -8    5.19    2.22
   3   5  -8    5.07    1.67
   3  -5  -8    7.95    2.27
   3  -5  -8    7.13    1.27
   3   5  -8    6.07    1.96
  -3  -5   8    7.61    2.29
   3  -5  -7  162.54    8.93
   3   5  -7  167.30    7.95
   3  -5  -7  165.12    6.16
   3   5  -7  164.45    8.31
   3  -5  -7  147.90    8.43
  -3  -5   7  159.83    8.15
   3   5  -6   29.19    3.11
   3  -5  -6   20.31    3.15
   3  -5  -6   25.54    1.94
   3   5  -6   23.91    3.00
   3  -5  -5 1129.22   25.53
   3   5  -5 1223.64   30.33
   3  -5  -5 1152.87   31.54
   3  -5  -5 1111.84   26.56
   3   5  -5 1273.73   30.69
   3   5  -4   10.60    2.02
   3  -5  -4    7.44    2.21
   3  -5  -4    6.10    1.00
   3   5  -4   11.92    2.31
   3   5  -4    7.88    1.77
   3  -5  -3 2135.00   46.80
   3  -5  -3 2184.93   50.52
   3   5  -3 2094.08   49.70
   3  -5  -3 2037.49   46.23
  -3  -5   3 2076.93   49.66
   3   5  -3 2059.55   48.64
   3  -5  -2    0.40    1.52
   3  -5  -2    2.62    1.15
   3  -5  -2    0.97    0.74
  -3   5   2    0.49    0.60
  -3  -5   2    1.12    1.06
   3   5  -2   -0.40    1.37
   3  -5  -1 1574.89   36.35
   3  -5  -1 1626.46   37.79
   3  -5  -1 1566.93   35.16
  -3   5   1 1443.01   34.92
   3   5  -1 1557.58   37.83
  -3  -5   1 1534.24   37.73
  -3   5   1 1543.13   33.48
   3  -5   0   18.19    2.27
   3  -5   0   24.82    2.67
   3  -5   0   21.48    1.99
   3   5   0   27.42    3.05
  -3   5   0   24.84    2.06
  -3  -5   0   23.72    2.74
   3  -5   1 1218.34   31.11
   3  -5   1 1212.31   30.02
  -3   5  -1 1284.59   30.07
  -3  -5  -1 1200.52   31.21
   3   5   1 1299.22   31.65
   3  -5   2  177.17    7.76
   3  -5   2  171.85    6.28
  -3   5  -2  183.72    7.09
  -3  -5  -2  178.34    7.73
   3   5   2  202.42    8.21
   3  -5   2  167.88    5.79
   3  -5   3  622.35   18.75
   3  -5   3  570.28   15.38
  -3   5  -3  636.03   17.78
  -3  -5  -3  622.97   18.37
   3   5   3  731.43   19.22
   3  -5   3  594.37   16.24
   3  -5   4   78.02    5.44
   3  -5   4   73.96    2.98
  -3   5  -4   71.82    4.72
   3   5   4   68.40    4.87
  -3  -5  -4   72.35    4.87
   3  -5   4   70.82    4.16
   3  -5   5   38.79    4.24
  -3   5  -5   36.37    3.61
   3   5   5   39.73    3.98
  -3  -5  -5   37.91    3.75
   3  -5   5   30.74    1.49
   3   5   5   41.06    3.65
   3  -5   6  298.18   12.20
   3   5   6  288.61   11.58
  -3   5  -6  295.18   11.66
  -3  -5  -6  290.04   11.67
   3   5   6  268.40   10.69
   3  -5   7    3.23    2.00
   3   5   7    1.85    1.47
   3   5   7    2.48    1.71
  -3  -5  -7    2.49    1.96
  -3   5  -7    3.31    1.94
   3  -5   8    4.80    2.19
   3   5   8    3.46    1.52
   3   5   8    3.19    2.04
   3   5   8    2.64    1.56
   3   5   9  464.46   16.45
   3  -5   9  490.54   18.67
   3   5   9  483.14   16.29
   3   5  10   89.12    6.14
   3  -5  10  101.22    7.85
   3   5  10   91.82    6.82
   3   5  10   96.04    6.32
   3   5  11  586.13   19.91
   3  -5  11  615.40   22.93
   3   5  11  648.39   21.88
   3   5  11  638.43   20.38
   3   5  12    0.63    1.21
   3   5  12    0.07    1.80
   3  -5  12   -0.22    2.17
   3   5  12    2.16    1.61
   3   5  13  647.91   23.52
   3  -5  13  660.07   25.03
   3   5  13  659.56   21.93
   3   5  14    0.08    1.78
   3  -5  14   -0.83    2.44
   3   5  15  394.80   18.06
   3  -5  15  423.94   19.95
   3   5  16    2.67    2.30
   3  -6 -16    1.56    2.13
   3   6 -16    9.45    2.80
   3   6 -15   88.81    7.56
   3  -6 -15   84.89    8.42
  -3  -6  15   83.69    8.32
   3  -6 -14    7.37    3.13
   3   6 -14   10.15    2.91
  -3  -6  14    9.43    2.98
   3   6 -13  337.64   14.87
   3  -6 -13  334.18   16.35
  -3  -6  13  328.43   15.81
   3  -6 -12   -0.58    1.91
   3   6 -12    1.66    1.99
  -3  -6  12   -1.26    2.12
   3  -6 -11  502.31   19.68
   3   6 -11  502.54   18.08
  -3  -6  11  467.04   18.45
   3  -6 -10    0.93    1.81
   3   6 -10   -1.16    1.42
  -3  -6  10   -0.72    2.01
   3  -6  -9  425.09   16.26
   3   6  -9  387.94   14.68
   3   6  -9  360.08   14.68
  -3  -6   9  393.03   15.19
   3  -6  -8   32.62    4.46
   3   6  -8   36.66    3.86
   3  -6  -8   32.00    2.50
   3   6  -8   34.05    4.07
  -3  -6   8   35.05    4.05
   3  -6  -7  499.21   17.85
   3   6  -7  518.72   16.87
   3   6  -7  499.53   16.92
   3  -6  -7  504.92   13.48
   3  -6  -7  513.24   18.05
   3   6  -6   52.54    4.35
   3  -6  -6   42.77    4.51
   3  -6  -6   44.15    2.45
   3   6  -6   54.75    4.51
   3  -6  -6   45.70    4.74
   3   6  -5  223.28    9.39
   3  -6  -5  202.81    9.83
   3  -6  -5  197.51    5.94
   3  -6  -5  210.03   10.07
   3   6  -5  218.20    8.98
   3   6  -5  232.94    9.55
   3  -6  -4  604.06   14.47
   3   6  -4  627.17   18.41
   3  -6  -4  618.14   19.08
   3  -6  -4  587.09   14.17
   3   6  -4  645.65   18.56
   3   6  -4  617.76   17.74
   3  -6  -3   85.12    3.73
   3  -6  -3   89.03    5.91
   3   6  -3  121.33    6.23
   3  -6  -3   86.24    3.13
  -3  -6   3  113.45    6.00
   3   6  -3  102.86    5.34
   3  -6  -2   39.17    2.52
   3  -6  -2   34.87    3.36
   3  -6  -2   36.73    1.85
  -3   6   2   30.97    1.68
  -3  -6   2   40.52    3.34
   3   6  -2   33.53    3.10
   3  -6  -1   40.85    3.05
  -3   6   1   50.58    2.54
   3   6  -1   54.25    4.19
   3  -6  -1   38.88    2.41
  -3  -6   1   49.44    3.86
   3  -6  -1   42.34    3.62
   3  -6   0   48.28    3.56
  -3  -6   0   62.90    4.26
   3   6   0   67.39    4.49
  -3   6   0   55.09    2.94
   3  -6   0   51.10    3.55
   3  -6   1  209.35    8.54
  -3  -6  -1  203.51    8.46
  -3   6  -1  221.90    7.54
   3   6   1  231.79    9.01
   3  -6   1  197.43    7.53
   3  -6   2   23.61    2.92
   3  -6   2   18.04    1.96
   3   6   2   19.93    2.76
  -3   6  -2   23.14    2.29
  -3  -6  -2   22.46    2.88
   3  -6   3 1388.37   34.93
   3  -6   3 1310.05   31.28
  -3   6  -3 1341.81   33.59
  -3  -6  -3 1414.78   34.91
   3   6   3 1439.08   34.84
   3  -6   3 1313.73   32.15
   3  -6   4   13.17    2.60
   3   6   4   13.40    2.29
   3  -6   4    8.06    0.99
  -3  -6  -4    7.80    1.78
  -3   6  -4   12.74    2.06
   3   6   4    8.69    2.16
   3  -6   4    8.17    1.01
   3  -6   4   10.66    1.97
   3  -6   5 1592.11   41.01
   3   6   5 1506.25   39.63
  -3   6  -5 1561.94   39.87
   3   6   5 1583.37   40.24
  -3  -6  -5 1665.63   40.63
   3  -6   5 1599.18   38.87
   3  -6   6   13.55    3.00
   3   6   6   18.34    2.75
   3   6   6   15.66    2.84
  -3  -6  -6   21.94    3.18
  -3   6  -6   18.06    2.85
   3  -6   6   15.11    2.63
   3  -6   7  913.58   27.25
   3   6   7  841.82   25.28
  -3  -6  -7  922.08   26.57
  -3   6  -7  898.87   26.45
   3   6   7  900.22   26.31
   3  -6   7  894.42   25.53
   3  -6   8    3.62    2.08
   3   6   8   -0.70    1.34
   3   6   8    2.05    1.60
   3   6   8   -1.62    1.46
   3   6   9  164.60    8.64
   3  -6   9  158.65    9.93
   3   6   9  160.65    8.44
   3   6  10    6.82    2.35
   3   6  10    7.65    2.06
   3  -6  10    5.95    2.52
   3   6  10   10.26    2.45
   3   6  11  137.26    8.20
   3   6  11  151.09    9.21
   3  -6  11  145.09   10.04
   3   6  11  133.53    8.21
   3   6  12   75.64    6.49
   3  -6  12   63.56    6.70
   3   6  12   68.06    5.77
   3   6  13   -1.31    1.91
   3  -6  13    2.88    2.91
   3   6  13   -1.03    1.72
   3  -6  14   63.21    7.11
   3   6  14   57.67    6.16
   3  -6  14   69.87    7.46
   3  -6  15    0.57    2.13
   3   6  15    1.43    2.04
   3  -6  15    6.18    3.38
   3   6  16   38.73    5.44
   3   7 -15   44.99    5.32
   3  -7 -15   38.89    5.72
  -3  -7  15   46.18    6.03
   3  -7 -14   26.08    4.70
   3   7 -14   33.77    4.48
  -3  -7  14   26.27    4.64
   3   7 -13   17.53    3.47
   3  -7 -13   22.90    4.46
  -3  -7  13   20.19    4.29
   3  -7 -12  213.36   12.30
   3   7 -12  206.35   10.83
   3  -7 -12  202.95    9.05
  -3  -7  12  216.43   11.92
   3  -7 -11   13.34    3.31
   3  -7 -11    8.37    1.74
  -3  -7  11   15.08    3.41
   3  -7 -10  181.09   10.64
   3  -7 -10  193.71    7.73
  -3  -7  10  192.82   10.32
   3  -7  -9   90.86    7.43
   3   7  -9  102.26    6.96
   3   7  -9   90.97    6.88
  -3  -7   9   84.81    6.83
   3  -7  -8   28.63    4.14
   3   7  -8   22.51    3.23
   3  -7  -8   24.67    2.01
   3   7  -8   21.82    3.22
   3   7  -7   29.60    3.47
   3  -7  -7   25.84    3.97
   3  -7  -7   24.87    1.81
   3   7  -7   28.64    3.62
   3  -7  -7   29.23    3.93
   3   7  -6   23.88    3.08
   3  -7  -6   17.13    3.22
   3  -7  -6   21.69    1.42
   3   7  -6   26.37    3.32
   3  -7  -6   21.07    3.13
   3   7  -5    0.93    1.31
   3  -7  -5    1.33    1.61
   3  -7  -5    2.11    0.47
   3   7  -5    5.66    1.89
   3   7  -5    2.73    1.78
   3  -7  -5    2.66    1.39
   3  -7  -4   30.37    1.65
   3   7  -4   34.00    3.59
   3  -7  -4   25.89    3.64
   3   7  -4   42.46    3.98
   3  -7  -4   30.02    3.68
   3   7  -4   29.57    3.10
   3  -7  -3  215.14    6.67
   3  -7  -3  214.01    9.32
   3   7  -3  223.91    9.14
   3  -7  -3  216.31    9.42
   3   7  -3  222.64    9.19
   3   7  -3  213.95    8.55
   3  -7  -2   77.45    4.00
   3  -7  -2   80.77    5.36
   3   7  -2  107.94    5.96
  -3   7   2   94.97    3.03
  -3  -7   2   90.10    5.55
   3  -7  -2   78.24    5.35
   3  -7  -1   87.48    4.24
   3  -7  -1   81.91    4.95
  -3   7   1   78.47    3.13
   3   7  -1   79.72    5.03
   3  -7  -1   82.81    4.89
  -3  -7   1   74.69    4.81
   3  -7   0  208.86    8.27
   3  -7   0  198.44    8.25
   3   7   0  246.34    9.58
  -3   7   0  237.38    7.20
  -3  -7   0  230.06    9.29
   3  -7   0  211.87    8.39
  -3   7   0  218.21    6.67
   3  -7   1   74.90    4.66
   3  -7   1   71.78    4.15
  -3   7  -1   76.93    3.94
  -3  -7  -1   70.63    4.70
   3   7   1   81.70    5.07
   3  -7   1   72.62    4.10
   3  -7   2  219.10    9.02
   3  -7   2  210.18    7.42
  -3   7  -2  227.14    8.15
   3   7   2  243.00    9.33
  -3  -7  -2  225.12    9.07
   3  -7   2  208.90    7.40
   3  -7   3   88.56    5.79
   3  -7   3   78.85    3.82
  -3   7  -3   99.78    5.27
  -3  -7  -3   94.49    5.90
   3   7   3  103.85    5.93
   3  -7   3   81.03    3.79
   3  -7   4  433.72   15.22
   3  -7   4  444.26   11.07
   3   7   4  439.71   14.95
  -3  -7  -4  444.30   14.98
   3   7   4  464.69   15.22
  -3   7  -4  419.63   14.11
   3  -7   4  428.46   13.24
   3  -7   4  435.64   11.01
   3  -7   5   40.21    4.58
   3   7   5   48.68    4.33
  -3  -7  -5   50.40    4.49
   3   7   5   51.77    4.52
  -3   7  -5   48.57    4.27
   3  -7   5   40.37    3.70
   3  -7   6   91.44    6.55
   3   7   6   93.95    6.01
  -3  -7  -6   93.95    6.16
   3   7   6   94.08    6.26
  -3   7  -6   90.01    5.98
   3  -7   6   96.82    5.71
   3  -7   7    2.89    2.38
   3   7   7    3.86    1.70
  -3   7  -7    6.22    2.14
   3   7   7    3.92    1.78
  -3  -7  -7    7.83    2.21
   3  -7   7    2.10    1.78
   3  -7   8   69.37    6.42
   3   7   8   78.80    5.98
   3   7   8   86.21    6.51
   3   7   8   74.04    5.73
   3  -7   8   73.01    5.80
   3  -7   9   88.24    7.17
   3   7   9   83.22    6.22
   3   7   9   84.66    6.67
   3  -7   9   85.52    6.60
   3   7   9   78.30    5.94
   3   7  10   70.15    5.89
   3  -7  10   72.01    7.01
   3  -7  10   76.32    6.66
   3   7  10   68.81    5.85
   3   7  11    5.59    2.20
   3  -7  11    3.23    2.46
   3   7  11    3.90    2.27
   3  -7  11    9.02    3.28
   3  -7  12   10.02    3.49
   3   7  12    4.44    2.36
   3  -7  12    3.59    2.66
   3   7  12    7.88    2.77
   3   7  13   12.42    2.96
   3  -7  13   12.11    3.42
   3  -7  13   12.26    3.41
   3   7  13    9.11    2.58
   3  -7  14   25.14    4.88
   3   7  14   22.91    4.05
   3  -7  14   30.49    5.28
   3   7  14   24.19    3.89
   3   7  15    4.64    2.17
   3  -7  15   11.21    3.80
   3   7  16   66.28    6.98
   3   8 -15    2.39    1.95
   3  -8 -15    7.11    3.54
  -3  -8  15   -4.20    2.77
   3   8 -14    6.31    2.41
   3  -8 -14    2.37    2.08
  -3  -8  14    0.37    2.56
   3   8 -13   58.42    5.80
   3  -8 -13   48.88    6.22
  -3  -8  13   49.64    5.93
   3   8 -12    1.71    1.82
   3  -8 -12    2.46    2.83
  -3  -8  12    7.39    3.09
   3  -8 -11  504.07   19.99
   3  -8 -11  468.02   14.60
  -3  -8  11  478.48   18.89
   3  -8 -10  132.55    9.44
   3  -8 -10  112.93    5.52
   3   8 -10  120.94    8.41
  -3  -8  10  134.44    8.83
   3  -8  -9  313.98   14.06
   3  -8  -9  295.04    9.24
   3  -8  -9  288.40    9.05
   3   8  -9  261.03   12.38
   3   8  -8    1.98    1.52
   3  -8  -8   -0.26    1.83
   3  -8  -8    1.13    0.69
   3  -8  -8    0.54    0.66
   3   8  -8   -1.17    2.08
   3   8  -7   87.91    6.12
   3  -8  -7   89.91    6.78
   3  -8  -7   77.33    2.96
   3  -8  -7   71.02    2.93
   3   8  -7   88.06    6.28
   3  -8  -6    9.92    2.68
   3   8  -6    6.85    1.87
   3   8  -6    7.85    2.18
   3   8  -6    6.04    1.85
   3  -8  -6    6.22    1.96
   3  -8  -5   18.80    3.27
   3   8  -5   25.91    3.25
   3   8  -5   23.09    3.36
   3  -8  -5   17.09    2.97
   3   8  -5   22.65    2.99
   3  -8  -4    2.18    2.06
   3   8  -4    7.09    1.93
   3  -8  -4    3.89    0.70
   3   8  -4    9.82    2.31
   3  -8  -4    6.43    2.01
   3   8  -4    6.26    1.95
   3  -8  -3   16.72    2.89
   3   8  -3   14.96    2.63
   3  -8  -3   12.50    1.39
   3   8  -3   20.08    3.01
   3  -8  -3   12.02    2.33
   3   8  -3   15.51    2.35
   3  -8  -2    3.68    1.69
   3  -8  -2    3.56    1.13
  -3  -8   2    4.83    1.38
  -3   8   2    3.70    0.53
   3  -8  -2    4.70    1.66
   3   8  -2    8.06    2.04
   3  -8  -1   58.70    3.74
   3  -8  -1   57.20    4.35
  -3   8   1   63.51    2.71
   3   8  -1   65.70    4.70
   3  -8  -1   56.95    4.24
  -3  -8   1   61.67    4.51
   3  -8   0   42.89    3.36
   3  -8   0   42.99    3.40
  -3   8   0   48.67    2.71
  -3  -8   0   44.50    3.86
   3   8   0   40.44    3.83
   3  -8   0   45.41    3.47
  -3   8   0   41.35    2.53
   3  -8   1   21.60    2.64
   3  -8   1   20.94    2.36
  -3   8  -1   24.62    2.26
   3   8   1   27.54    3.16
  -3  -8  -1   24.89    2.94
  -3   8  -1   23.85    2.11
   3  -8   1   21.04    2.27
   3  -8   2    6.33    1.78
   3  -8   2    7.09    1.39
   3   8   2   10.95    2.23
  -3   8  -2    8.95    1.63
  -3  -8  -2    8.58    1.76
   3  -8   2    6.67    1.32
   3  -8   3   44.77    4.12
   3  -8   3   48.97    2.76
   3   8   3   47.52    4.04
  -3  -8  -3   51.65    4.10
  -3   8  -3   49.11    3.60
   3  -8   3   49.08    2.77
   3  -8   4   -0.57    1.50
   3  -8   4    0.88    0.54
   3   8   4    1.94    1.31
   3   8   4    0.55    1.43
  -3   8  -4    1.63    1.34
  -3  -8  -4   -0.29    1.28
   3  -8   4   -0.52    1.31
   3  -8   5  246.51   11.01
   3   8   5  236.53   10.39
  -3  -8  -5  245.36   10.46
   3   8   5  234.85   10.31
  -3   8  -5  245.70   10.19
   3  -8   5  244.05    9.41
   3  -8   6   19.32    3.43
   3   8   6   26.67    3.58
  -3   8  -6   21.00    3.09
   3   8   6   24.18    3.41
  -3  -8  -6   20.89    3.06
   3  -8   6   21.51    3.05
   3  -8   7  151.61    9.08
   3   8   7  162.27    8.67
  -3   8  -7  166.64    8.86
  -3  -8  -7  165.60    8.75
   3   8   7  159.45    8.59
   3  -8   7  159.82    8.28
   3  -8   8   64.62    6.29
   3   8   8   72.87    5.99
   3   8   8   70.26    5.98
   3   8   8   74.63    5.89
   3  -8   8   76.03    5.99
   3  -8   9   86.52    7.33
   3   8   9   84.19    6.70
   3   8   9   85.02    6.43
   3  -8   9   82.64    6.49
   3  -8  10  108.52    8.39
   3  -8  10  100.06    7.66
   3   8  10  105.10    7.32
   3   8  11   31.14    4.39
   3  -8  11   39.24    5.65
   3  -8  11   38.57    5.34
   3   8  11   37.97    4.56
   3  -8  12   27.28    4.58
   3   8  12   20.45    3.69
   3  -8  12   23.91    4.57
   3   8  12   17.75    3.32
   3  -8  13    2.37    2.28
   3   8  13   12.17    3.18
   3  -8  13    7.94    3.33
   3   8  13    5.47    2.22
   3  -8  14   32.43    5.62
   3   8  14   34.30    4.87
   3  -8  14   32.09    5.34
   3   8  14   34.80    4.76
   3   8  15    0.25    2.21
   3   9 -15  113.13    8.17
   3  -9 -15  101.11    9.44
  -3  -9  15  108.51    9.56
   3   9 -14   23.57    3.80
   3  -9 -14   20.94    4.46
  -3  -9  14   13.87    3.70
   3  -9 -13   57.97    6.85
   3   9 -13   67.32    6.10
  -3  -9  13   57.65    6.47
   3  -9 -12  107.84    8.97
  -3  -9  12   91.48    7.92
   3  -9 -11   10.74    3.36
   3   9 -11    8.47    2.79
   3  -9 -10  209.84   11.84
   3  -9 -10  212.02    7.53
   3   9 -10  209.96   11.29
   3  -9  -9    5.13    2.32
   3  -9  -9    4.48    0.98
   3  -9  -9    4.73    1.09
   3   9  -9    0.69    1.90
   3  -9  -8  361.53   15.35
   3  -9  -8  338.12    9.05
   3  -9  -8  357.65    9.23
   3   9  -8  343.37   14.21
   3  -9  -7  180.88   10.13
   3   9  -7  178.16    9.37
   3   9  -7  170.02    9.20
   3  -9  -6  242.56   11.69
  -3   9   6  239.83   11.49
   3   9  -6  265.79   11.50
   3  -9  -6  240.77   11.53
   3   9  -6  263.09   11.06
   3   9  -6  257.89   11.23
   3  -9  -5  565.41   19.40
  -3   9   5  539.99   19.22
   3   9  -5  598.67   19.23
   3   9  -5  562.13   18.49
   3  -9  -5  575.16   19.39
   3   9  -5  589.15   18.50
   3  -9  -4   51.00    2.26
   3   9  -4   58.70    4.80
   3  -9  -4   47.61    4.83
  -3   9   4   55.50    4.84
   3   9  -4   59.75    4.97
   3  -9  -4   51.88    4.84
   3   9  -4   55.97    4.56
   3  -9  -3  994.33   24.13
   3   9  -3 1088.02   28.69
  -3   9   3  977.20   28.05
   3  -9  -3 1020.02   28.28
   3   9  -3 1020.67   27.88
   3   9  -3 1015.92   27.46
   3  -9  -3 1019.11   28.28
   3  -9  -2    0.26    1.37
  -3   9   2    5.32    1.88
   3  -9  -2    3.03    1.04
  -3  -9   2    4.96    1.67
   3  -9  -2    2.70    1.63
   3   9  -2    5.67    2.09
   3  -9  -1  639.99   17.64
   3  -9  -1  666.53   19.17
  -3   9   1  632.92   18.91
  -3   9   1  633.87   15.43
   3   9  -1  658.04   19.44
   3  -9  -1  663.44   19.18
  -3  -9   1  666.21   19.60
   3  -9   0    2.17    1.18
   3  -9   0    2.40    1.24
  -3   9   0    1.58    0.91
   3   9   0    0.70    1.77
  -3  -9   0    1.41    1.11
  -3   9   0    1.20    0.80
   3  -9   0    0.79    1.02
   3  -9   1  279.65   10.47
   3  -9   1  272.99    9.65
   3   9   1  295.05   11.10
  -3   9  -1  278.07    9.00
  -3  -9  -1  287.38   10.92
   3  -9   1  271.74    9.59
  -3   9  -1  274.10    8.91
   3  -9   2  109.10    6.36
  -3   9  -2  109.87    6.32
   3  -9   2  107.93    5.15
  -3   9  -2  113.34    5.40
  -3  -9  -2  113.55    6.27
   3   9   2  122.91    6.65
   3  -9   2  110.56    5.06
   3  -9   3   14.28    2.78
  -3   9  -3   22.26    3.00
   3  -9   3   19.92    1.95
   3   9   3   24.77    3.37
   3   9   3   22.18    3.08
  -3   9  -3   19.53    2.40
  -3  -9  -3   20.82    2.81
   3  -9   3   18.90    1.83
   3  -9   4  290.12   12.04
  -3   9  -4  283.98   11.83
   3  -9   4  287.23    8.09
   3   9   4  292.14   12.04
   3   9   4  299.38   11.78
  -3  -9  -4  311.31   11.91
  -3   9  -4  280.74   10.89
   3  -9   5   23.96    3.67
   3   9   5   24.72    3.28
  -3   9  -5   23.18    3.40
  -3  -9  -5   22.65    3.17
   3   9   5   28.24    3.56
  -3   9  -5   24.28    3.11
   3  -9   5   24.07    3.07
  -3   9  -6  695.26   22.60
   3  -9   6  705.90   22.97
   3   9   6  703.32   22.30
   3   9   6  695.05   21.71
  -3  -9  -6  760.93   22.43
  -3   9  -6  657.01   21.50
   3  -9   6  688.21   20.80
   3  -9   7   32.07    4.50
   3   9   7   34.26    4.02
   3   9   7   39.15    4.37
  -3   9  -7   29.02    3.79
   3  -9   7   31.85    3.95
   3  -9   8  118.72    8.39
   3   9   8  112.26    7.55
   3  -9   8  105.31    7.09
   3   9   8  122.65    7.75
   3  -9   9    0.38    2.08
   3   9   9    2.12    2.36
   3  -9   9   -0.98    2.01
   3   9   9    2.11    1.79
   3  -9  10  293.82   14.89
   3  -9  10  275.90   13.52
   3   9  10  286.13   13.25
   3   9  11  218.91   11.36
   3  -9  11  237.28   13.30
   3  -9  11  236.82   12.66
   3   9  11  228.14   11.74
   3  -9  12   43.15    6.18
   3   9  12   44.94    5.28
   3  -9  12   40.40    5.62
   3   9  12   38.06    4.93
   3   9  13  256.13   13.07
   3  -9  13  289.97   15.77
   3   9  13  264.84   13.46
   3  -9  13  283.96   15.07
   3  -9  14    6.37    3.11
   3   9  14    4.69    2.79
   3   9  14    0.44    1.94
   3  -9  14    0.86    2.31
   3   9  15  261.11   13.88
   3  10 -14  102.93    7.77
   3 -10 -14  105.73    9.63
   3  10 -13   25.56    3.86
   3 -10 -13   26.12    4.83
   3  10 -13   23.90    4.28
   3 -10 -12   60.37    6.97
   3  10 -12   54.34    6.32
   3 -10 -11   93.61    8.16
   3  10 -11   85.57    7.43
   3 -10 -10   77.20    7.58
   3 -10 -10   67.42    3.47
   3 -10 -10   66.94    3.42
   3  10 -10   69.42    6.58
   3 -10  -9   34.43    4.70
   3 -10  -9   29.24    1.76
   3 -10  -9   32.32    1.85
   3  10  -9   33.33    4.29
   3 -10  -8   61.50    6.38
   3  10  -8   66.65    5.93
   3 -10  -7  111.36    8.00
   3  10  -7  117.54    7.50
   3 -10  -6  716.86   23.81
   3  10  -6  734.87   23.27
   3  10  -6  745.60   22.81
   3  10  -6  732.82   22.99
   3  10  -5   94.33    6.52
   3 -10  -5   90.47    6.86
  -3  10   5   98.85    7.02
   3  10  -5   98.71    6.48
   3 -10  -5   96.52    6.81
   3  10  -5   95.59    6.31
   3 -10  -4  853.15   19.98
   3  10  -4  913.10   26.01
   3 -10  -4  841.52   25.72
  -3  10   4  851.86   25.73
   3  10  -4  872.24   25.37
   3  10  -4  873.42   25.01
   3 -10  -4  874.51   25.85
   3 -10  -3   13.92    2.75
  -3  10   3   17.45    2.95
   3  10  -3   19.24    2.95
   3 -10  -3   15.59    1.60
   3  10  -3   17.27    2.84
   3 -10  -3   16.72    2.84
   3 -10  -2 1587.88   38.65
   3 -10  -2 1674.82   41.82
  -3  10   2 1591.46   41.49
   3  10  -2 1639.74   41.59
   3  10  -2 1792.12   42.77
  -3 -10   2 1664.73   41.94
   3 -10  -2 1661.77   41.80
   3 -10  -1    6.26    1.51
  -3  10   1    9.54    2.17
   3 -10  -1    6.04    1.79
  -3  10   1    5.25    0.83
   3  10  -1    7.83    1.96
   3 -10  -1    5.71    1.64
  -3 -10   1    8.88    2.06
  -3  10   0  952.55   24.83
   3 -10   0  919.64   24.83
   3 -10   0  980.65   25.42
  -3  10   0  850.88   24.71
   3  10   0  999.56   26.50
  -3  10   0  929.97   22.63
  -3  10   0  931.20   23.43
   3 -10   0  916.82   25.12
  -3 -10   0  979.89   26.32
  -3  10  -1   87.33    5.34
   3 -10   1   81.17    5.28
   3 -10   1   85.00    4.86
   3  10   1   88.74    5.68
  -3 -10  -1   85.62    5.54
  -3  10  -1   85.54    4.31
  -3  10  -1   83.20    4.36
   3 -10   1   80.56    4.72
  -3  10  -2  408.60   14.25
   3 -10   2  411.25   14.42
   3 -10   2  429.34   12.75
  -3 -10  -2  428.22   14.56
   3  10   2  428.02   14.55
  -3  10  -2  402.65   12.66
  -3  10  -2  404.51   12.62
   3 -10   2  397.22   12.35
  -3  10  -3  409.72   14.88
   3 -10   3  430.95   15.19
   3  10   3  457.60   15.07
  -3 -10  -3  416.33   14.72
  -3  10  -3  414.86   13.63
   3 -10   3  417.75   12.14
   3  10   3  429.86   15.74
  -3  10  -4  103.20    6.84
   3 -10   4   93.09    6.80
  -3  10  -4  102.64    6.05
   3  10   4  120.48    6.86
  -3 -10  -4  110.73    6.61
   3 -10   4  101.89    4.07
   3  10   4  103.50    6.93
  -3  10  -5  189.90    9.70
   3 -10   5  193.05    9.92
   3  10   5  196.58    9.84
   3  10   5  196.74    9.29
  -3 -10  -5  208.14    9.61
  -3  10  -5  176.21    8.65
   3 -10   6    3.17    2.45
   3  10   6    1.72    1.49
  -3  10  -6    1.78    1.48
  -3 -10  -6    1.91    1.50
   3  10   6   -0.75    1.64
   3 -10   6    0.12    1.69
   3 -10   7  254.09   12.43
   3  10   7  233.40   10.91
   3 -10   7  244.41   10.84
   3 -10   8   70.97    6.94
   3  10   8   79.32    6.39
   3  10   8   81.35    6.59
   3 -10   8   74.82    6.09
   3 -10   9  106.51    8.43
   3  10   9  127.51    8.20
   3 -10   9  121.63    8.01
   3  10   9  113.78    7.92
   3 -10  10  371.50   17.38
   3  10  10  389.87   16.28
   3 -10  10  398.88   16.58
   3  10  10  386.89   16.18
   3 -10  11    4.64    2.66
   3  10  11    4.69    2.13
   3 -10  11    3.90    2.36
   3  10  12  539.44   20.18
   3 -10  12  577.71   23.39
   3  10  12  524.79   20.56
   3 -10  12  559.95   22.02
   3 -10  13   11.03    3.45
   3  10  13   12.54    3.28
   3  10  13   14.81    3.54
   3 -10  13    8.33    3.38
   3  10  14  616.80   22.88
   3  10  14  596.04   23.42
   3 -10  14  666.97   25.94
   3  10  15   11.92    3.13
   3 -11 -14   82.68    8.85
   3  11 -14   88.31    7.20
   3  11 -14   79.33    7.98
   3 -11 -13   -2.00    2.80
   3  11 -13    4.57    2.78
   3 -11 -12  331.85   17.07
   3  11 -12  316.33   15.73
   3 -11 -11   11.04    3.59
   3  11 -11    9.08    2.78
   3 -11 -10 1037.93   32.41
   3  11 -10  933.65   30.26
   3 -11 -10  951.59   22.33
   3 -11  -9   -0.30    2.05
   3  11  -9    1.18    1.98
   3 -11  -8  587.19   21.65
   3  11  -8  566.96   20.43
   3 -11  -7   34.22    4.69
   3  11  -7   41.51    4.65
   3 -11  -6  397.46   16.40
   3  11  -6  397.13   15.35
  -3  11   5    5.49    2.06
   3 -11  -5    5.44    2.13
   3  11  -5    6.58    2.29
   3 -11  -5    8.38    2.38
   3  11  -5    5.49    1.73
  -3  11   4   31.44    4.13
   3 -11  -4   31.13    4.17
   3  11  -4   30.49    3.90
   3  11  -4   28.89    3.69
   3 -11  -4   29.68    3.76
   3 -11  -4   28.91    1.75
   3  11  -4   27.09    3.49
   3 -11  -3   73.67    3.62
   3  11  -3   89.26    6.13
  -3  11   3   74.63    5.60
   3 -11  -3   80.90    5.87
   3  11  -3   81.11    5.74
   3 -11  -3   83.10    5.86
  -3  11   2    8.52    2.15
   3 -11  -2    5.02    1.94
   3  11  -2    5.38    1.81
   3 -11  -2    2.89    1.23
  -3 -11   2    6.88    1.85
   3 -11  -2    3.43    1.72
   3  11  -2    5.47    2.21
   3 -11  -1    4.48    1.32
  -3  11   1    7.12    2.09
   3 -11  -1    1.94    1.34
  -3  11   1    2.33    0.98
   3  11  -1    3.09    1.43
  -3  11   1    4.17    0.78
  -3 -11   1    5.12    1.52
   3 -11  -1    3.16    1.53
  -3  11   0  154.80    7.19
   3 -11   0  148.84    7.14
   3 -11   0  145.58    7.33
  -3  11   0  155.05    7.45
  -3  11   0  156.19    5.67
   3  11   0  178.09    8.55
  -3 -11   0  163.60    8.21
  -3  11   0  156.05    6.45
   3 -11   0  136.94    7.01
   3 -11   1   17.64    2.55
  -3  11  -1   23.70    2.59
  -3  11  -1   22.94    2.88
   3 -11   1   21.48    2.52
   3  11   1   20.18    2.87
  -3  11  -1   19.20    2.01
  -3 -11  -1   18.23    2.69
   3 -11   1   18.94    2.30
  -3  11  -1   17.99    2.10
   3 -11   2  297.40   12.01
  -3  11  -2  311.63   12.09
   3  11   2  315.71   13.12
   3 -11   2  318.43   10.76
  -3 -11  -2  333.81   12.60
  -3  11  -2  312.10   10.67
   3  11   2  351.91   12.64
  -3  11  -2  313.96   10.81
   3 -11   3   98.45    6.70
  -3  11  -3  100.94    6.55
  -3 -11  -3   95.84    6.27
   3  11   3  115.47    6.66
  -3  11  -3  107.81    5.81
   3 -11   3  102.99    4.91
   3  11   3  105.46    7.10
   3 -11   4  383.59   14.76
  -3  11  -4  369.72   14.50
  -3 -11  -4  384.59   14.05
   3  11   4  399.10   14.20
  -3  11  -4  360.24   13.19
   3  11   4  394.05   15.09
   3 -11   4  381.20   10.62
   3 -11   5   34.00    4.23
  -3  11  -5   27.45    3.36
   3  11   5   27.43    3.46
  -3 -11  -5   33.18    3.72
  -3  11  -5   33.13    4.12
   3 -11   6  949.91   29.13
  -3 -11  -6  983.20   28.15
  -3  11  -6  914.11   27.43
   3  11   6  935.16   27.53
   3 -11   7   29.46    4.48
   3  11   7   31.85    4.01
   3 -11   7   24.81    3.28
   3 -11   8  622.35   23.20
   3  11   8  644.56   21.55
   3  11   8  647.15   22.36
   3 -11   8  656.54   21.59
   3 -11   9    3.14    2.63
   3  11   9    2.95    2.08
   3  11   9    1.18    1.95
   3 -11   9    3.94    2.05
   3 -11  10  207.29   12.68
   3  11  10  220.86   11.65
   3 -11  10  201.91   11.41
   3  11  10  205.64   11.51
   3 -11  11   68.20    7.24
   3 -11  11   67.52    6.51
   3  11  11   61.04    6.07
   3  11  12   42.44    5.04
   3 -11  12   50.28    6.75
   3  11  12   48.60    5.87
   3 -11  12   48.48    6.28
   3 -11  13   50.73    6.78
   3  11  13   54.68    5.65
   3  11  13   57.53    6.32
   3 -11  13   55.15    6.57
   3  11  14    7.47    2.80
   3  11  14    3.25    2.23
   3 -11  14    0.58    2.16
   3  11  15   12.25    3.41
   3  12 -14   13.93    3.30
   3 -12 -13   45.77    6.42
   3  12 -13   37.13    5.22
   3 -12 -12    4.33    3.10
   3  12 -12    1.24    2.13
   3 -12 -11   51.07    6.33
   3  12 -11   49.78    5.99
   3 -12 -10   72.21    7.58
   3  12 -10   64.59    6.66
   3 -12  -9  105.24    8.36
   3  12  -9   93.15    7.52
   3 -12  -8   16.93    3.58
   3  12  -8   16.95    3.82
   3 -12  -7   86.94    7.33
   3  12  -7   77.99    6.46
   3 -12  -6   36.54    4.81
   3  12  -6   45.01    4.68
   3 -12  -5    0.04    1.82
   3  12  -5    1.09    1.74
  -3  12   4   21.04    3.44
   3 -12  -4   21.47    3.35
   3  12  -4   18.10    3.04
   3 -12  -4   17.21    2.91
   3  12  -4   16.94    2.83
   3 -12  -3   53.36    3.19
   3  12  -3   55.59    5.10
   3 -12  -3   54.92    5.10
  -3  12   3   51.46    4.89
   3  12  -3   54.63    4.80
   3 -12  -3   47.58    4.70
   3 -12  -2  124.38    5.68
   3  12  -2  142.43    8.02
  -3  12   2  133.95    7.53
   3 -12  -2  139.13    7.68
   3  12  -2  134.05    7.46
   3 -12  -2  140.85    7.67
   3  12  -1   23.60    3.42
  -3  12   1   23.88    2.63
   3 -12  -1   25.81    2.80
  -3  12   1   24.41    3.22
   3 -12  -1   21.13    3.16
   3  12  -1   27.01    3.39
  -3  12   1   26.98    1.74
   3 -12  -1   26.35    3.18
  -3 -12   1   25.22    3.31
   3 -12   0   48.97    4.04
  -3  12   0   49.38    3.93
  -3  12   0   56.37    4.30
   3 -12   0   57.08    4.40
  -3  12   0   47.47    2.88
   3  12   0   51.09    4.69
  -3 -12   0   48.42    4.50
   3 -12   0   53.16    4.19
  -3  12   0   51.31    3.60
   3 -12   1   67.39    4.99
  -3  12  -1   67.71    5.03
   3 -12   1   72.62    4.81
  -3  12  -1   70.68    4.68
   3  12   1   76.98    5.46
  -3  12  -1   75.43    4.09
  -3  12  -1   69.19    4.36
  -3 -12  -1   71.32    5.20
   3 -12   2   57.24    4.83
  -3  12  -2   64.58    4.97
   3 -12   2   60.23    4.04
   3  12   2   63.88    5.51
  -3  12  -2   54.58    3.83
  -3 -12  -2   58.12    4.84
   3  12   2   58.55    4.85
  -3  12  -2   61.26    3.97
  -3  12  -2   62.28    4.25
   3 -12   3  122.86    7.60
  -3  12  -3  131.17    7.50
   3 -12   3  127.70    5.67
  -3  12  -3  127.77    6.50
   3  12   3  124.33    7.24
  -3 -12  -3  134.46    7.49
   3 -12   4    3.53    1.85
  -3  12  -4   -0.20    1.26
  -3  12  -4    1.33    1.09
   3  12   4   -0.94    1.61
  -3 -12  -4    1.81    1.41
   3 -12   5   13.21    3.03
  -3  12  -5   17.13    2.61
  -3 -12  -5   15.38    2.47
   3  12   5   15.41    2.87
   3 -12   6    1.02    2.00
  -3  12  -6    5.50    1.79
   3  12   6    3.08    1.86
   3 -12   7  119.72    8.62
   3  12   7  129.68    8.00
   3 -12   8   11.33    3.22
   3  12   8   13.14    3.11
   3  12   8   10.74    2.84
   3 -12   9    1.39    2.08
   3  12   9    4.86    2.28
   3  12   9    6.08    2.65
   3 -12   9    1.04    2.12
   3 -12  10   11.85    3.33
   3  12  10   19.07    3.68
   3  12  10   14.99    3.52
   3 -12  10   10.08    3.08
   3 -12  11    0.81    2.46
   3  12  11   -1.09    2.35
   3 -12  11   -0.42    2.65
   3  12  12   15.94    3.44
   3 -12  12   11.44    3.64
   3 -12  12   11.95    3.66
   3  12  12   17.94    3.86
   3  12  13    6.35    2.36
   3  12  13    2.42    1.89
   3 -12  13    4.67    2.39
   3  12  14   55.70    6.46
   3  12  15   22.11    4.58
   3 -13 -13   16.53    4.55
   3  13 -13   10.28    3.12
   3 -13 -12   10.80    3.61
   3  13 -12   16.26    4.00
   3 -13 -11   -0.30    2.20
   3  13 -11   -0.90    2.24
   3 -13 -10   96.86    8.48
   3  13 -10   79.85    7.31
   3 -13  -9   12.78    3.68
   3  13  -9   15.60    3.43
   3 -13  -8  191.40   11.78
   3  13  -8  202.29   11.12
   3 -13  -7   75.48    7.27
   3  13  -7   83.41    6.89
   3 -13  -6  195.73   11.28
   3  13  -6  199.07   10.41
   3 -13  -5   35.16    4.46
   3  13  -5   34.60    4.29
   3 -13  -4    8.13    2.56
   3  13  -4    7.81    2.55
  -3  13   3    9.00    2.29
   3 -13  -3    4.23    1.59
   3 -13  -3    9.87    1.47
   3 -13  -3    9.29    2.31
   3  13  -3    6.22    1.97
  -3  13   2    4.41    1.71
  -3  13   2    0.41    0.96
   3 -13  -2    0.84    1.67
   3 -13  -2    1.89    0.98
   3 -13  -2    3.62    1.67
   3  13  -2    1.53    1.55
   3 -13  -1   29.74    2.94
  -3  13   1   27.25    2.76
  -3  13   1   32.96    3.65
   3 -13  -1   33.88    3.73
  -3  13   1   33.05    1.88
   3  13  -1   32.23    3.70
   3 -13  -1   30.79    3.40
  -3  13   1   32.24    1.76
  -3 -13   1   34.57    3.73
   3 -13   0   58.57    4.56
  -3  13   0   57.84    4.43
  -3  13   0   56.60    4.66
   3 -13   0   59.15    4.75
  -3  13   0   56.33    3.21
   3  13   0   64.41    5.30
  -3 -13   0   61.69    4.96
  -3  13   0   62.01    4.23
   3  13   0   62.74    5.30
   3 -13   1    5.78    1.80
  -3  13  -1    6.99    1.93
  -3  13  -1    4.14    1.39
   3 -13   1    5.45    1.73
  -3  13  -1    6.13    1.38
   3  13   1    5.72    1.92
  -3 -13  -1   10.47    2.27
  -3  13  -1    4.11    1.36
   3 -13   2   27.49    3.56
  -3  13  -2   35.60    3.82
  -3  13  -2   23.86    2.61
   3 -13   2   29.56    2.95
  -3  13  -2   27.13    2.71
   3  13   2   29.89    3.70
  -3 -13  -2   26.65    3.30
  -3  13  -2   28.03    3.08
   3 -13   3   -0.86    1.80
  -3  13  -3   -0.45    1.19
  -3  13  -3   -1.58    1.24
   3 -13   3    1.07    0.89
   3  13   3    1.70    1.47
  -3  13  -3   -0.11    1.02
  -3 -13  -3    1.11    1.23
  -3  13  -3   -0.68    1.23
   3 -13   4  228.96   11.15
  -3  13  -4  218.92    9.67
   3  13   4  223.13   10.49
  -3 -13  -4  239.08   10.73
   3 -13   5   11.85    2.99
   3  13   5   15.58    2.83
   3 -13   6  119.71    8.46
   3  13   6  136.18    7.99
   3 -13   7   16.34    3.73
   3  13   7   21.18    3.41
   3 -13   8  123.06    9.19
   3  13   8  126.43    8.27
   3  13   8  120.48    8.72
   3 -13   9   51.51    6.21
   3  13   9   53.97    5.43
   3  13   9   55.04    5.88
   3 -13  10   16.35    3.99
   3  13  10   21.35    3.81
   3  13  10   12.53    3.26
   3 -13  11   -0.20    2.12
   3  13  11   -3.16    2.76
   3 -13  11    0.17    2.04
   3 -13  12   28.50    5.57
   3 -13  12   32.96    5.21
   3  13  12   31.51    5.10
   3  13  13   26.76    4.24
   3  13  13   27.01    4.59
   3 -13  13   30.84    5.00
   3  13  14    8.92    3.42
   3 -14 -12    8.98    3.60
   3  14 -12    4.40    2.97
   3 -14 -11  125.00   10.11
   3  14 -11  108.63    8.96
   3 -14 -10   17.70    3.90
   3  14 -10   19.84    4.34
   3 -14  -9   37.02    5.34
   3  14  -9   42.40    5.31
   3 -14  -8  201.66   12.30
   3  14  -8  184.32   10.89
   3 -14  -7  120.50    9.09
   3  14  -7  125.02    8.51
   3 -14  -6  484.40   19.40
   3  14  -6  480.89   18.25
   3 -14  -5   89.33    7.38
   3  14  -5   95.11    7.05
   3 -14  -4  425.14   17.03
   3  14  -4  414.40   16.05
   3 -14  -3   27.37    4.15
  -3  14   3   30.78    3.90
  -3  14   3   23.49    2.41
   3 -14  -3   32.47    2.57
   3 -14  -3   31.39    3.96
   3  14  -3   25.44    3.62
   3 -14  -2  436.17   13.47
  -3  14   2  399.89   13.32
   3  14  -2  446.53   15.99
   3 -14  -2  476.05   16.68
  -3  14   2  417.33   15.86
   3 -14  -1   32.74    3.31
  -3  14   1   28.23    3.10
  -3  14   1   38.58    4.14
   3 -14  -1   38.84    4.24
  -3  14   1   34.17    1.99
  -3  14   1   36.30    1.93
   3  14  -1   34.18    4.03
   3 -14   0  235.84    9.96
  -3  14   0  234.76    9.95
  -3  14   0  232.77   10.37
   3 -14   0  258.82   10.67
  -3  14   0  236.57    7.83
   3  14   0  239.20   10.90
  -3  14   0  240.48    9.54
  -3  14  -1   -0.18    1.15
   3 -14   1    0.12    1.36
   3 -14   1    1.64    1.45
  -3  14  -1   -0.50    1.16
  -3  14  -1   -0.29    0.82
   3  14   1    2.56    1.89
  -3 -14  -1   -0.44    1.30
  -3  14  -1   -0.74    1.24
   3 -14   2  120.68    7.40
  -3  14  -2  120.57    7.29
   3 -14   2  119.08    6.23
  -3  14  -2  112.23    6.19
  -3  14  -2  113.29    5.90
   3  14   2  130.55    7.51
  -3  14  -2  118.29    6.56
  -3 -14  -2  120.70    7.36
   3 -14   3  182.24    9.72
  -3  14  -3  176.23    9.40
   3 -14   3  192.30    7.69
  -3  14  -3  166.61    7.40
   3  14   3  188.62    9.38
  -3  14  -3  192.27    8.77
   3 -14   4   88.67    6.96
   3  14   4   94.27    6.70
   3 -14   5   55.59    5.69
   3  14   5   54.51    5.03
   3 -14   6    6.39    2.60
   3  14   6    4.10    2.09
   3 -14   7  147.86    9.96
   3  14   7  148.87    8.91
   3 -14   8  131.44    9.90
   3  14   8  131.40    8.49
   3  14   8  140.45    9.88
   3 -14   9   77.95    7.96
   3  14   9   79.25    6.78
   3  14   9   67.90    6.90
   3 -14  10  108.59    9.36
   3  14  10   91.31    7.37
   3  14  10   95.19    8.18
   3 -14  11   40.32    6.02
   3  14  11   28.54    4.91
   3  14  12  461.93   20.39
   3 -14  13    9.55    3.40
   3  14  13    2.01    2.08
   3 -15 -12  152.83   11.84
   3  15 -12  136.39   10.64
   3 -15 -11   11.53    4.05
   3  15 -11    7.41    3.17
   3 -15 -10  157.40   11.29
   3  15 -10  146.16   10.28
   3 -15  -9   32.56    5.07
   3  15  -9   26.03    4.34
   3 -15  -8  538.31   21.65
   3  15  -8  484.21   19.71
   3 -15  -7  192.89   11.99
   3  15  -7  199.98   11.16
   3 -15  -6   54.01    6.15
   3  15  -6   51.59    5.53
   3 -15  -5  384.47   16.89
   3  15  -5  392.96   15.99
   3 -15  -4   58.53    5.94
   3  15  -4   62.35    5.63
  -3  15   3  363.08   11.97
   3 -15  -3  421.20   16.24
   3  15  -3  386.12   15.16
   3 -15  -3  385.18   11.80
   3 -15  -2    1.43    1.15
  -3  15   2   -1.96    1.26
   3  15  -2    1.35    1.60
  -3  15   2    0.23    1.31
   3 -15  -2    2.58    1.60
   3 -15  -1  789.37   22.51
  -3  15   1  758.53   22.59
  -3  15   1  724.26   23.96
   3 -15  -1  825.09   24.63
  -3  15   1  795.25   18.95
  -3  15   1  804.23   18.82
   3  15  -1  881.67   25.24
  -3  15   0    1.97    1.11
   3 -15   0    2.25    1.42
   3 -15   0    0.91    1.42
  -3  15   0    0.48    1.15
  -3  15   0    1.58    1.00
   3  15   0    1.12    1.79
  -3  15   0    1.54    0.84
  -3  15   0    0.90    1.23
   3 -15   1  399.25   15.08
  -3  15  -1  401.48   15.19
  -3  15  -1  406.98   14.74
   3 -15   1  443.44   15.00
  -3  15  -1  424.05   12.96
   3  15   1  450.25   15.99
  -3  15  -1  432.87   14.61
   3 -15   2   87.12    6.27
  -3  15  -2   88.14    6.31
  -3  15  -2   80.91    5.29
   3 -15   2   83.03    5.22
   3  15   2   86.87    6.22
  -3  15  -2   79.81    4.92
  -3  15  -2   77.18    5.44
   3 -15   3  194.79   10.51
  -3  15  -3  196.68    8.51
   3  15   3  217.53   10.34
  -3  15  -3  209.19    9.62
   3 -15   4  234.46   11.82
   3  15   4  241.77   11.05
  -3  15  -4  239.09    8.72
   3 -15   5   27.17    4.68
   3  15   5   28.26    3.91
   3 -15   6  210.31   11.87
   3  15   6  220.63   10.86
   3 -15   7   49.17    6.03
   3  15   7   50.92    5.34
   3  15   7   44.56    5.71
   3 -15   8  264.69   14.37
   3  15   8  243.14   12.04
   3  15   8  251.12   13.71
   3 -15   9  244.70   14.15
   3  15   9  219.52   11.70
   3  15   9  235.76   13.36
   3 -15  10   74.86    7.76
   3  15  10   78.58    6.92
   3  15  10   74.40    7.58
   3 -15  11  329.87   17.68
   3  15  11  312.72   16.37
   3  15  12   39.65    5.77
   3 -16 -11  240.38   14.81
   3  16 -11  214.73   13.33
   3 -16 -10   -1.04    2.49
   3  16 -10    5.24    2.54
   3 -16  -9  428.87   19.61
   3  16  -9  385.01   17.66
   3 -16  -8    0.39    2.57
   3  16  -8    1.05    2.14
   3 -16  -7  312.64   15.63
   3  16  -7  290.72   14.20
   3 -16  -6   45.88    5.71
   3  16  -6   50.09    5.47
   3 -16  -5  145.44    9.78
   3  16  -5  151.34    9.34
   3 -16  -4   38.63    4.84
   3  16  -4   44.56    4.94
   3 -16  -3   12.11    3.02
  -3  16   3   11.96    1.92
   3  16  -3   13.39    2.86
   3 -16  -2   23.45    2.55
  -3  16   2   20.72    2.49
   3  16  -2   23.27    3.52
   3 -16  -2   22.15    3.49
   3 -16  -1  137.01    7.21
  -3  16   1  124.21    7.09
  -3  16   1  131.96    8.14
   3 -16  -1  147.89    8.55
  -3  16   1  142.30    4.85
  -3  16   1  142.48    4.68
   3  16  -1  153.76    8.79
   3 -16   0   83.40    5.73
  -3  16   0   78.25    5.60
  -3  16   0   77.43    5.84
   3 -16   0   87.21    6.06
   3  16   0   96.66    6.75
  -3  16   0   86.07    4.20
  -3  16   0   84.57    3.97
  -3  16   0   85.23    5.64
   3 -16   1  345.08   13.84
  -3  16  -1  357.07   14.09
  -3  16  -1  344.69   13.54
   3 -16   1  385.93   13.84
   3  16   1  368.36   14.57
  -3  16  -1  357.46   11.69
  -3  16  -1  369.39   13.60
   3 -16   2   18.05    3.09
   3 -16   2   19.72    2.67
  -3  16  -2   14.90    2.33
   3  16   2   23.03    3.43
  -3  16  -2   14.30    2.45
   3 -16   3  331.66   14.37
  -3  16  -3  326.63   12.09
   3  16   3  363.97   14.20
  -3  16  -3  351.33   13.54
   3 -16   4    6.58    2.36
   3  16   4   -2.61    2.04
  -3  16  -4    3.59    1.21
   3 -16   5  354.88   16.00
   3  16   5  380.98   15.15
   3 -16   6   28.23    4.47
   3  16   6   32.78    4.13
   3 -16   7  251.46   13.85
   3  16   7  234.94   11.83
   3  16   7  262.68   13.93
   3 -16   8   42.73    5.90
   3  16   8   40.60    4.82
   3  16   8   43.36    5.79
   3 -16   9  338.24   17.22
   3  16   9  318.75   14.56
   3  16   9  311.20   16.18
   3 -16  10   -1.78    2.58
   3  16  10   -1.85    2.11
   3  16  10   -2.39    2.22
   3  16  11  106.90    8.38
   3  16  11  108.65    9.50
   3 -17 -10   13.18    3.67
   3  17 -10   11.87    3.15
   3 -17  -9   34.15    5.38
   3  17  -9   25.42    4.43
   3 -17  -8    0.47    2.18
   3  17  -8    8.26    3.09
   3 -17  -7   14.81    3.89
   3  17  -7   11.08    3.19
   3 -17  -6   13.01    3.01
   3  17  -6   12.36    3.39
   3 -17  -5   77.22    7.19
   3  17  -5   88.29    7.11
  -3  17   4   12.41    1.77
   3 -17  -4    9.66    3.29
   3  17  -4   13.50    3.16
  -3  17   3  116.28    6.00
   3  17  -3  126.74    8.16
   3 -17  -3  123.87    8.52
   3 -17  -2    3.72    1.41
  -3  17   2    3.23    1.18
   3  17  -2    6.46    2.47
   3 -17  -2    3.80    2.18
  -3  17   1   37.79    3.80
   3 -17  -1   44.13    3.95
   3 -17  -1   43.39    4.60
  -3  17   1   48.44    2.49
  -3  17   1   47.82    2.36
   3  17  -1   42.38    4.76
   3 -17   0   23.87    3.22
  -3  17   0   20.77    2.99
  -3  17   0   21.97    3.31
   3 -17   0   20.08    3.25
   3  17   0   21.28    3.41
  -3  17   0   20.19    2.09
  -3  17   0   24.17    2.13
  -3  17   0   23.69    3.16
  -3  17  -1   36.52    4.02
   3 -17   1   31.24    3.74
  -3  17  -1   30.98    3.68
   3 -17   1   43.39    4.19
   3  17   1   34.09    4.28
  -3  17  -1   33.78    2.98
  -3  17  -1   34.88    2.97
  -3  17  -1   34.80    3.80
   3 -17   2  104.68    7.32
   3 -17   2  113.63    6.63
  -3  17  -2  102.57    6.47
   3  17   2  100.07    6.98
  -3  17  -2  112.23    7.07
   3 -17   3    0.98    1.69
   3  17   3    4.61    2.23
  -3  17  -3    0.34    1.00
   3 -17   4   48.11    5.22
   3  17   4   49.11    5.01
  -3  17  -4   44.90    3.56
   3 -17   5    2.16    2.17
   3  17   5   -3.00    1.97
   3 -17   6   52.93    6.08
   3  17   6   46.72    5.06
   3 -17   7    6.07    3.50
   3  17   7    1.52    1.70
   3  17   7   -0.39    2.26
   3 -17   8    1.74    2.43
   3  17   8    5.63    2.36
   3  17   8    8.73    3.13
   3 -17   9    8.26    3.08
   3  17   9    8.66    2.77
   3  17   9    6.37    2.68
   3 -17  10   -1.49    2.77
   3  17  10   -0.10    1.94
   3  17  10    0.42    2.10
   3  17  11   92.11    7.85
   3  18 -10   20.42    4.27
   3 -18  -9   48.90    6.59
   3  18  -9   64.39    6.78
   3 -18  -8   30.21    5.30
   3  18  -8   29.89    5.08
   3 -18  -7   25.33    4.54
   3  18  -7   23.69    4.29
   3 -18  -6   23.49    4.30
   3  18  -6   25.25    4.23
   3 -18  -5   50.30    6.13
   3  18  -5   54.65    5.83
   3 -18  -4  117.67    8.76
   3  18  -4  111.95    8.06
   3 -18  -3    5.58    2.49
  -3  18   3    6.50    1.65
   3  18  -3    7.20    2.68
   3 -18  -2    0.84    1.10
  -3  18   2   -0.76    1.31
   3  18  -2    0.46    1.81
   3 -18  -2   -0.33    1.83
  -3  18   1   26.76    3.35
   3 -18  -1   32.42    3.61
   3 -18  -1   37.62    4.62
   3  18  -1   36.48    4.54
  -3  18   1   33.13    1.97
   3 -18   0    3.28    1.52
  -3  18   0    5.86    1.73
   3 -18   0    6.15    2.15
  -3  18   0    4.69    1.15
   3  18   0    6.67    2.46
  -3  18   0    6.64    1.31
  -3  18   0    4.45    1.65
   3 -18   1  101.33    7.05
  -3  18  -1  100.40    6.77
   3 -18   1  106.44    6.98
   3  18   1  104.24    7.42
  -3  18  -1  104.53    5.45
  -3  18  -1  104.47    5.28
   3 -18   2    4.02    2.21
   3  18   2    4.56    1.97
  -3  18  -2    0.39    1.29
   3 -18   3   44.55    5.14
   3  18   3   54.58    5.16
  -3  18  -3   50.15    4.38
   3 -18   4   24.86    4.14
   3  18   4   31.12    4.19
   3 -18   5   36.45    4.91
   3  18   5   35.91    4.48
   3 -18   6    4.38    2.57
   3  18   6    1.40    1.62
   3 -18   7   80.67    7.80
   3  18   7   84.11    6.90
   3  18   7   87.43    8.21
   3 -18   8   14.35    3.63
   3  18   8   14.70    3.45
   3  18   8   13.57    3.54
   3 -18   9   75.89    8.03
   3  18   9   69.75    6.54
   3  18   9   72.75    7.83
   3  18  10  121.10    8.82
   3  18  11    9.30    2.88
   3 -19  -9   33.12    5.75
   3  19  -9   31.76    5.32
   3 -19  -8   44.33    6.22
   3  19  -8   56.88    6.48
   3 -19  -7   38.42    5.88
   3  19  -7   46.63    5.73
   3 -19  -6    5.91    2.52
   3  19  -6    0.77    2.23
   3 -19  -5  197.22   12.21
   3  19  -5  190.71   11.29
   3 -19  -4   17.77    3.90
   3  19  -4   18.54    3.80
   3  19  -3  485.29   19.14
   3 -19  -3  517.57   20.24
   3  19  -2    0.89    1.86
   3 -19  -2    2.60    1.94
  -3  19   1  473.86   17.19
   3 -19  -1  495.69   16.88
   3  19  -1  515.60   19.29
   3 -19  -1  524.36   19.14
   3 -19   0   37.82    4.14
   3 -19   0   40.43    4.65
  -3  19   0   38.16    2.73
   3  19   0   36.63    4.62
   3 -19   1  359.66   14.79
  -3  19  -1  338.71   14.46
   3 -19   1  400.77   15.09
   3  19   1  402.11   15.95
  -3  19  -1  369.07   11.96
   3 -19   2   13.27    3.04
  -3  19  -2    6.63    1.97
   3  19   2   18.75    3.34
  -3  19  -2   12.97    2.04
   3 -19   3   89.70    7.26
   3  19   3   97.23    7.21
   3 -19   4   16.43    3.35
   3  19   4   21.58    3.70
   3 -19   5    1.44    1.94
   3  19   5    3.22    2.29
   3 -19   6   38.62    5.27
   3  19   6   44.57    5.16
   3  19   6   46.44    6.32
   3 -19   7    1.71    2.74
   3  19   7    5.15    2.38
   3  19   7    3.12    2.64
   3 -19   8   84.89    9.02
   3  19   8   80.54    6.94
   3  19   8   87.61    8.53
   3  19   9  145.85    9.63
   3  19  10   -3.99    2.53
   3  19  11  184.24   11.42
   3 -20  -8   39.24    6.16
   3  20  -8   32.14    5.18
   3 -20  -7  110.69    9.67
   3  20  -7  111.24    9.02
   3 -20  -6   30.53    5.07
   3  20  -6   28.20    4.68
   3  20  -5  115.83    8.87
   3 -20  -5  119.64    9.52
   3  20  -4  281.28   14.01
   3 -20  -4  284.13   14.81
   3  20  -3   15.24    3.35
   3 -20  -3   18.16    3.99
   3  20  -2  224.43   12.01
   3 -20  -2  229.31   12.25
   3 -20  -1    4.79    1.76
   3  20  -1    3.47    1.93
   3 -20  -1    4.23    2.27
   3 -20   0  187.89    9.80
   3  20   0  220.15   11.53
   3 -20   0  211.54   11.10
   3 -20   1   51.34    5.22
   3  20   1   53.46    5.36
   3 -20   2   92.88    7.25
   3  20   2   96.63    7.39
  -3  20  -2   94.65    5.59
   3 -20   3  149.82    9.84
   3  20   3  151.58    9.32
  -3  20  -3  155.31    7.89
   3 -20   4    3.36    2.19
   3  20   4    3.00    1.83
   3 -20   5  301.53   15.43
   3  20   5  312.59   14.31
   3 -20   6    2.03    2.53
   3  20   6    1.85    1.78
   3  20   6    0.17    2.10
   3 -20   7  184.84   12.26
   3  20   7  187.56   10.81
   3  20   7  188.53   12.93
   3 -20   8   34.32    5.61
   3  20   8   34.21    4.74
   3  20   9  198.55   11.46
   3  20  10   66.38    6.61
   3 -21  -7   16.97    4.64
   3  21  -7   13.20    3.60
   3 -21  -6   55.88    6.86
   3  21  -6   58.11    6.38
   3 -21  -5   33.27    5.27
   3  21  -5   27.64    4.55
   3 -21  -4   39.41    5.57
   3  21  -4   42.14    5.40
   3  21  -3   16.95    3.73
   3 -21  -3   16.25    3.62
   3  21  -2    4.77    2.65
   3 -21  -2    0.02    1.81
   3  21  -1   15.91    3.55
   3 -21  -1   14.71    3.28
   3 -21   0  103.07    7.16
   3  21   0  106.52    7.98
   3 -21   1   23.34    3.68
   3  21   1   25.50    4.00
   3 -21   2   48.92    5.57
   3  21   2   46.75    5.17
   3 -21   3   17.59    3.46
   3  21   3   21.11    3.56
   3 -21   4  398.41   17.98
   3  21   4  418.75   17.10
  -3  21  -4  411.65   15.38
   3 -21   5   17.09    3.87
   3  21   5   26.44    4.07
   3  21   5   23.76    4.96
   3 -21   6  334.99   16.97
   3  21   6  331.49   15.11
   3 -21   7    3.66    2.56
   3  21   7   -3.28    2.41
   3  21   8  193.26   11.23
   3 -22  -6   44.75    6.17
   3  22  -6   36.90    5.33
   3 -22  -5   10.16    3.25
   3  22  -5    7.99    2.83
   3 -22  -4   94.58    8.45
   3  22  -4   90.76    7.85
   3 -22  -3   14.03    3.74
   3  22  -3    8.46    3.05
   3 -22  -2   56.91    6.28
   3  22  -2   63.93    6.46
   3 -22  -1    5.67    2.51
   3  22  -1    5.03    2.21
   3  22   0   63.59    6.29
   3 -22   0   63.53    5.67
   3 -22   1   11.62    2.67
   3  22   1   10.81    3.13
   3 -22   2    3.06    2.16
   3  22   2    5.90    2.53
   3 -22   3   21.37    3.82
   3  22   3   22.89    3.77
   3 -22   4    5.49    2.43
   3  22   4    4.47    2.06
   3 -22   5   50.79    6.27
   3  22   5   50.61    5.42
   3 -22   6   18.68    4.43
   3  22   6   17.70    3.50
   3  22   7    4.59    2.23
   3 -23  -5    4.52    2.46
   3  23  -5    6.27    2.50
   3  23  -4   12.95    3.59
   3 -23  -4   11.10    3.46
   3  23  -3   57.73    6.50
   3 -23  -3   67.27    7.08
   3  23  -2    4.61    2.34
   3 -23  -2    5.92    2.91
   3  23  -1   49.20    5.64
   3  23   0    5.18    2.35
   3 -23   1   13.11    3.06
   3  23   1    9.43    2.70
   3 -23   2    1.97    1.86
   3  23   2    2.07    2.22
   3 -23   3    6.07    2.46
   3  23   3    9.67    2.93
   3 -23   4   36.55    5.17
   3  23   4   32.57    4.67
   3 -23   5    4.40    2.53
   3  23   5    7.91    2.71
   3  23   6   62.52    6.28
   3 -24  -4  207.21   13.37
   3  24  -4  200.01   12.42
   3 -24  -3    6.11    2.79
   3  24  -3    9.95    3.05
   3  24  -2  302.85   15.40
   3  24  -1    1.61    2.34
   3  24   0  278.92   14.31
   3  24   1    1.07    1.72
   3  24   2  109.12    8.37
   3 -24   2   97.63    8.06
   3 -24   3   13.16    3.38
   3  24   3    4.84    2.30
   3 -24   4   31.22    4.96
   3  24   4   42.94    5.32
   3  24   5   11.25    3.19
   3  25  -2   -2.39    2.26
   3  25  -1   48.68    5.95
   3  25   0    7.97    2.95
   3  25   1   49.67    5.91
   3  25   2  148.41   10.03
   3 -25   3    9.76    3.20
   3  25   3   13.41    3.19
   3  26   0   41.10    5.46
   4   0 -17   -2.64    2.12
   4   0 -16    0.79    2.14
  -4   0  16    1.50    2.39
   4   0 -16   -0.35    1.96
   4   0 -15   -3.43    2.67
  -4   0  15    4.13    2.64
   4   0 -15   -4.57    2.34
   4   0 -14   60.79    6.70
   4   0 -14   50.44    5.59
  -4   0  14   65.22    6.84
   4   0 -13    1.91    2.28
  -4   0  13   12.74    3.70
   4   0 -13    7.05    2.59
   4   0 -12  130.41    9.35
   4   0 -12  114.93    7.68
  -4   0  12  123.42    8.37
   4   0 -11   -0.28    2.27
   4   0 -11   -0.37    0.96
  -4   0  11   -0.58    1.83
   4   0 -11   -1.74    1.76
   4   0 -10  431.11   17.26
   4   0 -10  402.05   13.45
   4   0 -10  392.93   14.91
  -4   0  10  438.75   15.75
   4   0  -9    1.71    2.07
   4   0  -9   -0.68    0.89
  -4   0   9   -1.31    1.86
   4   0  -9   -0.26    1.33
   4   0  -8 2003.92   50.35
   4   0  -8 1903.89   45.91
  -4   0   8 1943.35   47.20
   4   0  -8 1900.28   47.22
   4   0  -7    0.82    0.95
   4   0  -7   -0.41    1.33
  -4   0   7   -0.20    1.27
   4   0  -6  626.63   17.71
   4   0  -6  638.67   18.63
  -4   0   6  665.03   17.79
  -4   0   5   -0.37    1.04
   4   0  -5    0.03    1.17
   4   0  -4  511.78   15.26
   4   0  -3    0.51    1.17
  -4   0   3    2.50    1.16
  -4   0   2  643.43   17.92
   4   0  -2  626.71   18.06
   4   0  -1   14.90    2.27
   4   0  -1   13.68    1.18
  -4   0   1   19.95    2.43
   4   0   0  648.98   18.85
  -4   0   0  664.02   18.76
   4   0   1    1.90    1.51
  -4   0  -1    4.33    1.61
  -4   0  -2  172.39    7.86
   4   0   2  163.70    7.93
   4   0   3    1.84    1.62
  -4   0  -3    0.84    1.14
  -4   0  -4  279.90   11.19
   4   0   4  278.11   11.20
  -4   0  -5    2.76    1.34
   4   0   5    0.53    1.59
  -4   0  -6  790.93   23.09
   4   0   6  743.01   22.87
   4   0   6  686.44   19.50
   4   0   7   -0.29    0.75
   4   0   7    2.17    1.96
   4   0   8  695.79   19.59
   4   0   8  775.49   24.16
   4   0   9    0.44    0.84
   4   0   9   -1.55    1.72
   4   0   9   -0.15    0.85
   4   0  10  936.18   25.19
   4   0  10 1042.54   31.50
   4   0  10  979.27   25.35
   4   0  11   -2.74    2.31
   4   0  11    1.12    0.94
   4   0  12  330.06   16.05
   4   0  13    0.14    2.40
   4   0  14   73.84    7.63
   4   0  15    1.17    2.00
   4   1 -17    1.38    1.90
   4   1 -16  151.23   10.84
   4  -1 -16  168.08   11.54
   4  -1 -16  119.25    8.93
   4   1 -16  122.88    9.41
  -4  -1  16  142.66   10.64
  -4   1  16  157.02   11.31
   4   1 -15    8.87    3.12
   4  -1 -15    4.89    2.70
  -4   1  15   10.75    3.26
   4  -1 -15    4.88    1.97
   4   1 -15    3.61    2.30
  -4  -1  15    4.27    2.65
   4   1 -14  137.04    9.67
   4  -1 -14  139.72    9.94
   4  -1 -14  101.94    7.54
   4   1 -14  101.14    7.88
  -4  -1  14  130.92    9.23
  -4   1  14  135.85    9.40
   4   1 -13  147.69   10.14
   4  -1 -13  143.78   10.07
   4  -1 -13  123.02    8.17
   4   1 -13  120.07    8.39
  -4  -1  13  153.93    9.74
  -4   1  13  153.23    9.70
   4   1 -12  141.80    9.60
   4  -1 -12  155.42   10.07
   4   1 -12  137.80    7.37
   4  -1 -12  141.28    8.25
   4   1 -12  128.13    8.25
  -4  -1  12  158.86    9.40
  -4   1  12  150.73    9.08
   4   1 -11   18.71    3.79
   4  -1 -11   16.24    3.66
   4   1 -11   16.27    2.42
   4  -1 -11   17.70    2.26
  -4   1  11   17.82    3.29
   4  -1 -11   13.98    2.66
   4   1 -11   15.11    2.90
  -4  -1  11   16.47    3.07
   4   1 -10   36.44    4.88
   4  -1 -10   35.47    4.85
   4   1 -10   32.94    3.35
   4  -1 -10   31.47    2.92
   4  -1 -10   33.29    3.71
   4   1 -10   32.48    3.94
  -4   1  10   38.43    4.38
  -4  -1  10   36.06    4.37
   4  -1  -9  194.34   10.61
   4   1  -9  194.16   10.48
   4   1  -9  197.27    8.48
   4  -1  -9  194.37    7.72
   4   1  -9  194.38    9.19
  -4  -1   9  197.15    9.32
  -4   1   9  200.60    9.19
   4  -1  -9  189.87    8.72
   4  -1  -8    2.85    2.37
   4   1  -8    1.44    1.19
   4  -1  -8    0.68    0.83
  -4   1   8    2.39    1.78
   4  -1  -8    0.02    1.25
   4   1  -8    3.83    2.27
  -4  -1   8    0.47    1.50
   4   1  -7  254.22    9.47
   4  -1  -7  245.51    8.72
   4  -1  -7  262.62   11.71
   4  -1  -7  246.96    9.61
   4   1  -7  244.69    9.91
  -4  -1   7  250.66    9.54
  -4   1   7  257.43    9.44
   4  -1  -6   26.49    2.46
   4   1  -6   26.91    2.68
   4  -1  -6   26.50    2.80
   4   1  -6   26.19    3.09
  -4  -1   6   22.40    2.57
  -4   1   6   21.98    2.42
   4  -1  -5   81.62    4.68
   4   1  -5   83.55    5.04
  -4   1   5   85.60    4.04
   4   1  -4  289.09   10.40
   4  -1  -4  294.97   10.04
  -4  -1   4  288.90   10.29
   4  -1  -3  117.02    5.80
   4   1  -3  125.56    6.18
  -4  -1   3  120.58    5.96
  -4   1   3  123.51    5.68
   4   1  -2 1961.71   45.26
  -4  -1   2 1893.40   45.00
  -4   1   2 1848.80   44.17
   4  -1  -2 1897.43   44.45
   4   1  -2 1840.49   42.20
  -4  -1   1  124.17    6.10
   4  -1  -1  116.47    5.91
  -4   1   1  124.71    5.77
   4   1  -1  123.59    6.23
   4  -1   0 2031.77   46.70
  -4   1   0 1960.03   46.57
   4   1   0 1953.76   46.97
  -4  -1   0 1896.83   46.59
  -4   1  -1   96.49    5.36
   4  -1   1   93.58    5.57
  -4  -1  -1   95.60    5.59
   4   1   1   94.76    5.65
   4   1   2  503.97   16.05
   4  -1   2  503.88   15.73
  -4   1  -2  504.85   15.63
  -4  -1  -2  493.78   15.75
   4   1   3   80.34    5.42
  -4   1  -3   81.17    5.30
  -4  -1  -3   91.74    5.63
   4  -1   3   78.08    5.34
   4  -1   4  249.35   10.67
   4   1   4  256.88   10.85
  -4   1  -4  278.06   10.98
  -4  -1  -4  268.60   10.95
   4  -1   5  270.52   11.24
  -4   1  -5  258.53   10.95
  -4  -1  -5  267.27   11.23
   4   1   5  259.16   11.06
   4  -1   6   53.84    5.19
  -4   1  -6   60.02    5.24
  -4  -1  -6   62.80    5.35
   4   1   6   53.38    4.99
   4  -1   6   54.40    3.56
   4   1   6   52.18    3.82
   4  -1   7  188.72    9.77
   4   1   7  177.70    9.34
   4  -1   7  167.70    6.70
   4   1   7  176.37    7.44
   4  -1   8    1.35    0.89
   4   1   8    2.51    1.25
   4   1   8   -0.21    1.79
   4  -1   8    1.96    1.97
   4   1   9   93.69    5.41
   4  -1   9   93.46    4.71
   4  -1   9   92.18    7.28
   4   1   9  103.36    7.50
   4  -1   9   93.57    4.65
   4   1   9   97.48    5.36
   4  -1  10   42.24    3.14
   4   1  10   38.63    3.51
   4   1  10   48.25    5.57
   4  -1  10   56.99    6.32
   4  -1  10   46.14    3.22
   4   1  10   42.81    3.64
   4   1  11   44.09    5.45
   4  -1  11   36.31    5.06
   4  -1  11   35.64    2.91
   4   1  11   37.56    3.52
   4  -1  12   81.89    7.57
   4   1  12   93.59    7.96
   4   1  12   75.98    5.05
   4   1  13    4.31    2.57
   4  -1  13   -3.23    2.02
   4  -1  14  339.70   17.00
   4   1  14  302.89   16.00
   4  -1  15    6.03    3.07
   4   1  15    7.31    3.10
   4   2 -17   88.80    8.26
   4  -2 -16    2.99    2.59
   4   2 -16   -3.97    2.44
  -4   2  16    2.76    2.79
   4   2 -16   -2.15    2.19
  -4  -2  16    2.23    2.70
   4  -2 -15   61.72    6.89
   4   2 -15   51.65    6.10
  -4   2  15   40.18    5.50
   4  -2 -15   38.31    4.65
   4   2 -15   40.15    5.22
  -4  -2  15   60.81    6.73
   4   2 -14    5.68    2.64
   4  -2 -14   11.35    3.38
   4  -2 -14    2.07    1.78
   4   2 -14    2.99    1.91
  -4  -2  14   12.73    3.55
   4   2 -13   41.59    5.43
   4  -2 -13   47.37    5.89
   4  -2 -13   40.03    4.36
   4   2 -13   39.62    4.72
  -4  -2  13   52.86    5.69
   4   2 -12    1.15    1.82
   4  -2 -12    5.05    2.47
   4   2 -12    4.11    1.56
   4  -2 -12    2.70    1.57
   4   2 -12    2.12    1.66
  -4  -2  12    5.60    2.44
   4   2 -11    2.98    2.41
   4  -2 -11    1.07    1.94
   4  -2 -11    2.05    1.03
   4   2 -11    2.84    1.37
   4  -2 -11   -1.15    1.54
   4   2 -11    2.76    2.05
  -4  -2  11    0.98    1.74
   4   2 -10    1.34    2.23
   4  -2 -10    6.64    2.66
   4   2 -10    4.71    1.72
   4  -2 -10    2.50    0.92
   4  -2 -10    3.11    1.64
   4   2 -10    1.97    1.57
  -4  -2  10    4.43    2.18
   4  -2  -9    6.17    2.35
   4  -2  -9    3.26    1.10
   4   2  -9    3.93    1.55
   4  -2  -9    2.39    1.49
   4   2  -9    4.16    1.79
  -4  -2   9    4.89    1.97
   4   2  -8  169.23    7.78
   4  -2  -8  172.93    6.64
   4  -2  -8  190.75   10.07
   4  -2  -8  175.19    7.59
  -4  -2   8  172.33    8.17
   4   2  -8  162.77    8.26
   4   2  -7  121.65    6.44
   4  -2  -7  122.38    5.40
   4  -2  -7  125.61    8.35
   4   2  -7  140.39    7.25
   4  -2  -7  127.83    6.28
  -4  -2   7  133.89    6.81
  -4   2   7  129.57    6.46
   4  -2  -6   18.34    3.32
   4  -2  -6   14.59    1.79
   4   2  -6   20.78    2.52
  -4   2   6   18.83    2.24
   4   2  -6   20.30    2.85
   4  -2  -6   14.68    2.13
   4  -2  -5  250.94    8.92
   4   2  -5  251.21    9.97
  -4   2   5  256.96    8.14
   4  -2  -4   12.67    1.91
  -4   2   4   11.83    1.29
   4   2  -4   13.22    2.29
   4   2  -3  567.83   16.65
   4  -2  -3  544.64   15.36
  -4  -2   3  564.39   16.37
   4   2  -3  532.51   14.55
  -4   2   3  526.58   15.09
   4  -2  -2   17.88    2.15
   4   2  -2   19.99    2.68
  -4   2   2   19.51    2.18
  -4  -2   2   21.86    2.70
   4   2  -2   17.02    1.66
   4   2  -1  490.53   14.68
  -4   2   1  420.35   13.17
   4  -2  -1  456.36   13.65
  -4  -2   1  486.58   14.47
  -4  -2   0  562.83   16.89
   4  -2   0  555.55   16.70
  -4   2   0  583.26   16.48
   4   2   0  574.42   17.40
   4  -2   1  212.19    8.44
   4   2   1  213.71    8.87
  -4  -2  -1  211.14    8.85
  -4   2  -1  206.98    8.19
  -4  -2  -2   11.57    2.14
   4  -2   2   12.65    2.30
  -4   2  -2   11.66    2.10
   4   2   2   12.23    2.43
   4  -2   3    6.53    2.00
   4   2   3    9.95    2.35
  -4  -2  -3    6.11    1.71
  -4   2  -3    6.44    1.67
  -4   2  -4    8.08    2.00
   4  -2   4    8.35    2.15
   4   2   4    7.86    2.21
  -4  -2  -4    8.95    2.01
  -4  -2  -5    4.25    1.85
   4  -2   5    3.34    1.56
   4   2   5    2.50    1.57
  -4   2  -5    6.70    1.90
   4  -2   5    3.62    2.35
   4   2   6    8.41    2.42
  -4   2  -6   14.32    2.62
  -4  -2  -6   12.40    2.38
   4   2   6    9.83    1.87
   4  -2   6   11.27    2.77
   4  -2   7   24.36    3.81
   4   2   7   29.08    3.04
   4  -2   7   25.35    2.21
   4   2   7   27.63    3.85
   4   2   8   22.77    3.67
   4  -2   8   23.09    2.04
   4   2   8   19.30    2.49
   4  -2   8   23.06    3.78
   4  -2   8   27.78    2.21
   4   2   9   75.35    5.12
   4  -2   9   71.32    3.70
   4  -2   9   85.21    7.46
   4   2   9   89.88    7.19
   4   2   9   82.04    5.19
   4  -2   9   73.17    3.75
   4   2  10    1.90    1.32
   4  -2  10    2.89    0.93
   4   2  10    2.52    2.29
   4  -2  10    4.87    2.50
   4  -2  10    3.81    1.03
   4   2  10    3.44    1.56
   4   2  11   76.21    5.20
   4   2  11   80.31    7.04
   4  -2  11   90.37    7.81
   4   2  11   73.26    5.10
   4   2  12    2.82    2.10
   4  -2  12    2.48    2.38
   4   2  12    2.15    1.32
   4  -2  13  196.98   12.42
   4   2  13  202.81   12.34
   4  -2  14   35.04    5.55
   4   2  14   28.17    4.95
   4   2  15  200.23   12.88
   4   3 -17    2.14    2.54
   4   3 -16   85.92    7.95
   4   3 -16   75.85    7.50
  -4  -3  16   88.84    8.43
   4   3 -15    8.42    3.27
   4  -3 -15    5.93    3.05
   4  -3 -15    5.47    2.33
   4   3 -15    1.99    1.90
  -4  -3  15    4.17    2.74
   4   3 -14   74.15    7.17
   4  -3 -14   59.45    6.58
   4  -3 -14   42.50    4.81
   4   3 -14   54.77    5.91
  -4  -3  14   58.45    6.31
   4   3 -13   24.68    4.40
   4  -3 -13   21.65    4.20
   4  -3 -13   14.73    2.81
   4   3 -13   15.68    3.43
  -4  -3  13   24.72    4.40
   4   3 -12   45.13    5.38
   4  -3 -12   40.22    5.36
   4   3 -12   38.08    4.07
   4  -3 -12   35.63    3.92
   4   3 -12   40.38    4.83
  -4  -3  12   42.99    5.10
   4   3 -11    3.49    2.51
   4  -3 -11   -0.46    2.36
   4   3 -11   -0.97    1.19
   4  -3 -11    1.30    0.97
   4  -3 -11   -0.87    1.40
   4   3 -11   -0.51    1.67
  -4  -3  11    1.33    1.92
   4   3 -10    2.89    2.45
   4  -3 -10    6.52    2.69
   4   3 -10    3.42    1.53
   4  -3 -10    3.76    0.87
   4  -3 -10    3.48    1.47
   4   3 -10    4.25    2.02
  -4  -3  10    6.16    2.16
   4  -3  -9   34.81    4.58
   4  -3  -9   33.35    2.37
   4   3  -9   29.67    3.31
   4   3  -9   29.84    3.75
  -4  -3   9   29.05    3.53
   4  -3  -9   30.44    3.11
   4  -3  -8   23.16    4.02
   4  -3  -8   18.83    1.86
   4   3  -8   22.22    3.14
   4  -3  -8   21.52    2.50
   4   3  -8   19.92    3.12
  -4  -3   8   18.73    2.93
   4   3  -7   40.88    3.69
   4  -3  -7   44.53    2.74
   4  -3  -7   53.36    5.06
   4  -3  -7   44.99    3.37
   4   3  -7   43.23    4.29
  -4  -3   7   36.96    3.63
   4  -3  -6  107.14    4.60
   4   3  -6  109.42    6.06
   4  -3  -6  115.25    7.75
   4   3  -6  111.83    6.49
   4  -3  -6  101.22    5.22
   4  -3  -5   37.73    4.30
   4   3  -5   53.34    4.37
   4  -3  -5   41.44    3.13
   4   3  -5   47.13    3.83
  -4   3   5   44.68    2.78
   4  -3  -4  450.99   15.95
   4  -3  -4  446.58   13.21
   4   3  -4  467.04   14.85
  -4   3   4  456.11   11.58
   4   3  -3   13.66    2.31
   4  -3  -3    8.00    1.60
  -4   3   3   10.79    1.59
  -4  -3   3    9.80    2.00
   4   3  -3    9.75    1.59
   4   3  -2  158.30    7.33
  -4  -3   2  158.67    7.15
  -4   3   2  144.14    5.84
   4  -3  -2  149.57    6.13
   4   3  -2  147.45    5.72
   4   3  -1  142.37    7.07
  -4  -3   1  151.12    6.98
   4  -3  -1  125.14    6.10
  -4   3   1  145.35    5.97
  -4  -3   0 1615.24   40.37
  -4   3   0 1605.46   39.25
   4   3   0 1638.57   40.63
   4  -3   0 1726.11   39.73
   4   3   1    2.89    1.59
   4  -3   1    3.27    1.48
  -4   3  -1    2.92    1.20
  -4  -3  -1    2.76    1.14
   4  -3   1    3.36    0.56
   4  -3   2  255.30    9.88
  -4  -3  -2  273.72   10.64
   4   3   2  281.34   10.98
  -4   3  -2  263.68    9.96
  -4   3  -3   16.97    2.40
  -4  -3  -3   15.67    2.28
   4  -3   3   11.60    2.25
   4   3   3   17.54    2.79
   4  -3   3   14.92    2.62
  -4  -3  -4   35.54    3.82
   4  -3   4   33.39    3.66
   4   3   4   34.30    3.76
  -4   3  -4   31.80    3.50
   4  -3   4   32.42    3.86
   4  -3   5   32.73    3.97
   4   3   5   35.94    4.04
  -4  -3  -5   31.43    3.60
  -4   3  -5   31.31    3.53
   4  -3   6    5.48    2.17
   4   3   6    2.33    1.90
  -4  -3  -6    5.45    1.79
  -4   3  -6    4.56    1.59
   4   3   6    3.95    1.54
   4  -3   7    1.19    1.70
   4  -3   7    0.74    0.63
   4   3   7    0.56    1.05
   4   3   7    1.93    2.05
   4  -3   8   22.54    4.13
   4  -3   8   21.06    1.74
   4   3   8   21.99    2.83
   4   3   8   26.44    4.07
   4  -3   8   19.87    1.78
   4   3   9   22.05    2.87
   4  -3   9   20.24    1.58
   4   3   9   28.79    4.27
   4  -3   9   27.79    4.33
   4  -3   9   20.36    1.62
   4   3   9   28.70    3.21
   4   3  10  127.84    6.93
   4  -3  10  116.89    8.66
   4   3  10  133.70    8.81
   4   3  10  119.60    6.66
   4   3  11   29.88    3.45
   4   3  11   38.25    5.13
   4  -3  11   32.94    4.83
   4   3  11   29.76    3.45
   4   3  12   92.35    7.74
   4  -3  12   91.36    8.25
   4   3  12   84.48    5.81
   4  -3  13    5.13    2.88
   4   3  13    2.05    3.06
   4  -3  14  124.73   10.07
   4   3  14  107.54    9.19
   4   3  15    1.82    2.43
   4   4 -16    9.07    3.22
   4   4 -16    8.73    3.27
  -4  -4  16   12.19    3.51
   4   4 -15  126.63    9.50
   4  -4 -15  121.37    9.89
   4   4 -15  108.99    8.91
  -4  -4  15  123.52    9.64
   4   4 -14    9.66    3.03
   4  -4 -14    8.47    3.19
   4  -4 -14    1.60    1.34
   4   4 -14    3.91    2.17
  -4  -4  14    7.26    2.78
   4   4 -13  334.78   15.39
   4  -4 -13  327.75   16.06
   4  -4 -13  283.53   12.27
   4   4 -13  277.36   13.94
  -4  -4  13  326.57   15.08
   4   4 -12   98.17    7.80
   4  -4 -12   94.37    8.21
   4  -4 -12   83.47    5.79
   4   4 -12   86.92    7.10
  -4  -4  12   98.29    7.62
   4  -4 -11  102.70    8.27
   4   4 -11  110.84    8.04
   4   4 -11   99.36    6.72
   4  -4 -11   89.21    5.86
   4   4 -11  101.07    7.43
  -4  -4  11  101.50    7.45
   4  -4 -10  311.96   14.63
   4   4 -10  294.35   12.18
   4  -4 -10  276.36    8.20
   4   4 -10  288.21   12.79
  -4  -4  10  293.81   12.73
   4  -4 -10  300.02   11.04
   4  -4  -9   13.52    3.41
   4   4  -9   17.34    2.73
   4  -4  -9   14.77    1.41
   4  -4  -9   16.34    2.35
   4   4  -9   19.25    3.39
  -4  -4   9   13.01    2.84
   4   4  -8  143.81    7.50
   4  -4  -8  145.05    5.06
   4  -4  -8  148.28    8.95
   4  -4  -8  138.53    6.36
  -4  -4   8  144.28    7.64
   4   4  -8  132.91    7.73
   4  -4  -7   10.66    2.63
   4   4  -7   14.61    2.51
   4  -4  -7   11.90    1.34
   4  -4  -7   12.88    1.85
   4   4  -7   18.06    3.03
   4   4  -6  369.06   12.82
   4  -4  -6  333.43    9.79
   4  -4  -6  384.65   14.66
   4  -4  -6  351.40   10.80
   4   4  -6  363.03   13.21
   4  -4  -5  177.03    9.54
   4   4  -5  205.41    9.10
   4  -4  -5  192.05    7.12
   4   4  -5  198.06    8.64
   4  -4  -4  128.08    7.52
   4  -4  -4  129.26    5.37
   4   4  -4  139.88    7.05
  -4   4   4  125.84    4.35
   4   4  -4  129.68    5.96
   4  -4  -3   79.31    5.65
   4  -4  -3   73.47    3.89
   4   4  -3   86.63    5.36
  -4  -4   3   80.45    5.13
   4   4  -3   76.86    4.32
  -4   4   3   74.23    3.76
   4  -4  -2    5.09    2.11
   4  -4  -2    0.87    0.88
   4   4  -2    1.98    1.59
  -4   4   2    1.85    0.83
  -4  -4   2    3.03    1.56
   4   4  -2    1.09    0.82
   4   4  -1   61.01    4.46
   4  -4  -1   46.80    3.29
  -4  -4   1   53.11    4.00
  -4   4   1   44.45    3.02
  -4   4   0   52.03    3.53
  -4  -4   0   53.74    4.20
   4   4   0   51.21    4.40
   4  -4   0   44.97    3.55
   4  -4   1 1187.69   29.85
   4   4   1 1208.05   31.20
  -4   4  -1 1147.01   29.55
  -4  -4  -1 1191.77   31.07
   4  -4   2  174.90    8.44
   4   4   2  179.98    8.65
  -4  -4  -2  185.31    8.54
  -4   4  -2  181.82    7.75
   4  -4   2  174.58    7.88
   4  -4   2  171.55    5.64
   4  -4   3  306.66   12.25
  -4  -4  -3  332.08   12.37
   4   4   3  322.16   12.46
  -4   4  -3  308.49   11.44
   4  -4   3  303.39   11.52
   4  -4   4  181.27    9.28
  -4  -4  -4  186.55    8.97
   4   4   4  189.51    9.17
  -4   4  -4  197.36    8.93
   4  -4   5  257.40   11.90
   4   4   5  284.28   12.00
  -4   4  -5  277.15   11.51
  -4  -4  -5  279.90   11.92
   4  -4   6  217.96   10.72
   4   4   6  212.34   10.25
  -4   4  -6  225.36   10.35
  -4  -4  -6  225.30   10.53
   4   4   6  207.76    9.17
   4  -4   7   47.31    5.20
   4  -4   7   40.55    2.26
   4   4   7   46.11    4.15
   4   4   7   53.29    5.34
   4  -4   8  301.39   13.67
   4  -4   8  265.44    7.05
   4   4   8  261.14   10.94
   4   4   8  279.43   12.69
   4  -4   8  269.12    7.04
   4   4   9   15.03    2.72
   4  -4   9   10.23    2.98
   4   4   9   16.72    2.83
   4   4  10  100.91    6.49
   4   4  10  104.72    7.89
   4  -4  10  111.50    8.56
   4   4  10  100.06    6.34
   4   4  11   73.96    5.67
   4  -4  11   79.93    7.67
   4   4  11   78.42    7.19
   4   4  11   79.19    5.86
   4  -4  12   46.10    6.06
   4   4  12   41.89    5.46
   4   4  12   40.55    4.29
   4   4  13  125.09    9.59
   4  -4  13  123.13    9.85
   4   4  13  129.87    7.81
   4   4  14    5.63    2.69
   4  -4  14    4.82    2.86
   4   4  15  105.58    9.07
   4   5 -16    6.48    3.14
   4   5 -16    0.69    1.94
   4  -5 -15   17.31    4.41
   4   5 -15   13.44    3.84
   4   5 -15    7.31    2.95
  -4  -5  15    8.03    3.47
   4  -5 -14    2.27    2.37
   4   5 -14    4.36    2.35
   4   5 -14    1.89    2.12
  -4  -5  14    0.17    2.25
   4   5 -13   84.54    7.52
   4  -5 -13   94.34    8.46
   4  -5 -13   72.45    5.52
   4   5 -13   84.11    7.37
  -4  -5  13   88.91    7.59
   4   5 -12    5.51    2.83
   4  -5 -12    3.63    2.57
   4  -5 -12    1.67    1.38
   4   5 -12    6.66    2.35
  -4  -5  12    6.59    2.70
   4  -5 -11  599.89   22.50
   4  -5 -11  548.12   17.42
   4   5 -11  554.51   20.43
  -4  -5  11  580.43   20.59
   4  -5 -10   71.44    6.93
   4   5 -10   74.13    5.85
   4   5 -10   73.85    6.29
  -4  -5  10   80.99    6.47
   4  -5 -10   74.12    4.81
   4   5  -9  605.60   19.86
   4  -5  -9  628.05   22.24
   4  -5  -9  609.72   17.33
  -4  -5   9  592.27   20.00
   4   5  -9  593.36   20.30
   4  -5  -8   -0.58    1.83
   4   5  -8   -0.48    1.25
   4  -5  -8    0.40    0.40
   4  -5  -8   -0.47    0.83
   4   5  -8    0.04    1.87
   4   5  -7  922.65   26.20
   4  -5  -7  913.24   21.31
   4  -5  -7  932.91   28.18
   4  -5  -7  918.84   23.03
   4   5  -7  887.69   26.29
   4  -5  -6    5.71    0.91
   4   5  -6    4.47    1.71
   4  -5  -6    2.95    2.16
   4  -5  -6    6.70    1.22
   4   5  -6    6.58    2.10
   4   5  -5 1526.47   38.46
   4  -5  -5 1500.68   40.01
   4   5  -5 1524.57   38.78
   4  -5  -5 1480.06   35.03
   4  -5  -4   24.54    3.63
   4  -5  -4   21.57    1.90
   4   5  -4   24.87    3.19
   4   5  -4   23.92    2.57
   4  -5  -3  308.40   12.08
   4   5  -3  316.05   11.54
   4  -5  -3  281.49    9.02
  -4  -5   3  295.21   11.26
   4   5  -3  301.09   10.21
  -4   5   3  292.03    8.82
   4  -5  -2  424.47   14.33
   4  -5  -2  392.68   11.66
   4   5  -2  421.65   14.12
  -4   5   2  384.66   11.23
  -4  -5   2  416.68   13.83
   4  -5  -1    0.72    1.59
   4   5  -1    0.25    1.51
   4  -5  -1    0.52    0.90
  -4   5   1    1.51    0.88
  -4  -5   1   -0.03    1.08
   4  -5   0   33.95    3.14
   4  -5   0   34.92    3.29
   4  -5   0   34.65    2.75
  -4   5   0   29.76    2.56
  -4  -5   0   34.90    3.28
   4   5   0   36.24    3.47
   4  -5   1    7.54    1.97
   4  -5   1    5.96    1.78
  -4   5  -1    9.54    1.75
   4   5   1    9.52    2.40
   4  -5   1    5.15    1.59
  -4  -5  -1    8.77    2.07
   4  -5   2   46.19    4.20
  -4   5  -2   47.77    3.74
   4   5   2   42.58    4.05
  -4  -5  -2   43.93    4.12
   4  -5   2   46.61    3.85
   4  -5   2   41.65    2.26
   4  -5   3  221.19   10.20
  -4  -5  -3  241.35   10.34
   4   5   3  249.94   10.71
  -4   5  -3  233.36    9.62
   4  -5   3  216.17    7.47
   4  -5   4    3.45    2.12
  -4  -5  -4    6.54    2.07
   4   5   4    6.65    2.18
  -4   5  -4    8.73    1.99
   4  -5   4    3.67    1.37
   4  -5   5 1012.06   29.66
  -4  -5  -5 1010.84   28.99
  -4   5  -5 1013.37   28.61
   4   5   5 1041.05   29.26
   4  -5   6   -0.58    1.94
   4  -5   6    1.39    0.74
   4   5   6    1.17    1.31
   4   5   6    0.15    1.81
  -4   5  -6    1.78    1.47
   4  -5   7  963.43   28.77
   4  -5   7  919.78   20.47
   4  -5   7  912.18   20.48
   4   5   7  925.96   26.32
   4   5   7  959.71   27.92
   4  -5   7  904.19   20.42
   4  -5   8   -0.98    1.88
   4   5   8    2.42    2.15
   4   5   8    2.47    1.56
   4  -5   9  703.91   24.30
   4   5   9  658.02   21.29
   4   5   9  658.61   23.12
   4   5  10    2.84    1.37
   4   5  10    5.84    2.21
   4  -5  10    4.27    2.05
   4   5  10    4.91    2.05
   4   5  11  399.52   15.54
   4  -5  11  435.77   18.96
   4   5  11  429.65   17.94
   4   5  11  413.64   15.64
   4  -5  12   81.91    8.04
   4   5  12   86.57    7.51
   4   5  12   76.84    6.09
   4  -5  13  170.08   11.89
   4   5  13  162.88   11.02
   4   5  13  153.94    9.06
   4  -5  14    2.50    2.96
   4   5  14    3.81    2.84
   4   5  15   34.26    5.44
   4   6 -16   24.10    4.59
   4   6 -15  326.70   15.96
   4  -6 -15  339.53   17.51
   4   6 -15  283.18   15.50
  -4  -6  15  323.14   16.60
   4  -6 -14   16.75    4.07
   4   6 -14   20.72    4.16
   4   6 -14   15.46    3.76
  -4  -6  14   18.28    4.14
   4   6 -13   78.79    7.08
   4  -6 -13   81.86    8.02
   4  -6 -13   73.27    5.23
   4   6 -13   67.10    6.64
  -4  -6  13   66.44    6.70
   4  -6 -12  134.42   10.07
   4   6 -12  130.49    9.05
   4  -6 -12  123.63    6.73
   4   6 -12  128.25    8.84
  -4  -6  12  122.18    8.75
   4  -6 -11   82.06    7.59
   4   6 -11   73.66    6.71
  -4  -6  11   76.62    6.81
   4  -6 -11   73.22    4.90
   4  -6 -10    0.23    2.29
   4  -6 -10    3.49    1.22
   4   6 -10    3.44    2.14
  -4  -6  10   -0.27    1.75
   4  -6  -9   -3.16    2.48
   4   6  -9    0.63    1.39
   4  -6  -9    2.54    1.35
   4   6  -9    0.74    1.99
   4   6  -8   57.75    4.92
   4  -6  -8   64.39    5.91
   4  -6  -8   65.09    3.65
   4   6  -8   54.59    5.08
   4   6  -7   17.54    2.88
   4  -6  -7   15.36    3.32
   4  -6  -7   14.46    1.74
   4   6  -7   17.42    3.19
   4   6  -6   31.58    3.50
   4  -6  -6   25.91    1.61
   4  -6  -6   24.30    1.53
   4  -6  -6   29.33    3.89
   4  -6  -6   28.94    2.14
   4   6  -6   28.15    3.60
   4  -6  -5  436.77   12.31
   4   6  -5  536.71   16.65
   4  -6  -5  519.93   17.85
   4   6  -5  529.57   16.87
   4  -6  -5  451.42   12.51
   4   6  -5  506.28   15.54
   4  -6  -4    1.23    1.65
   4  -6  -4    1.11    0.83
   4  -6  -4    2.82    0.85
   4   6  -4    0.21    1.03
   4   6  -4    4.04    2.08
   4  -6  -3  680.26   18.50
   4  -6  -3  723.01   21.74
   4   6  -3  739.73   21.19
   4  -6  -3  682.57   17.61
  -4  -6   3  822.76   21.82
   4   6  -3  721.13   19.82
  -4   6   3  671.75   17.31
   4  -6  -2   26.90    2.67
   4  -6  -2   34.10    3.69
   4  -6  -2   32.12    2.44
   4   6  -2   39.07    3.80
  -4   6   2   35.80    2.39
  -4  -6   2   35.01    3.55
   4  -6  -1  855.12   22.51
   4  -6  -1  880.51   23.78
   4   6  -1  847.44   24.01
  -4   6   1  775.17   20.77
  -4  -6   1  849.62   23.80
   4  -6  -1  847.71   21.20
   4  -6   0    0.53    1.21
   4  -6   0    0.80    1.21
   4  -6   0    0.90    0.98
   4   6   0    0.42    1.69
  -4   6   0    0.55    0.91
  -4  -6   0    1.09    1.31
   4  -6   1 1053.77   27.95
  -4  -6  -1 1063.72   28.36
  -4   6  -1  990.37   26.21
   4   6   1 1012.46   28.19
   4  -6   1 1063.21   27.01
   4  -6   2  129.26    7.48
   4  -6   2  140.30    6.29
  -4   6  -2  134.79    6.59
   4   6   2  158.61    8.06
  -4  -6  -2  149.69    7.80
   4  -6   3  912.10   26.45
   4  -6   3  895.02   23.27
  -4   6  -3  931.10   25.27
   4   6   3  964.19   26.67
  -4  -6  -3  969.21   26.76
   4  -6   3  884.50   22.61
   4  -6   4  203.28   10.11
   4  -6   4  201.13    7.11
  -4   6  -4  216.09    9.37
  -4  -6  -4  217.91   10.01
   4   6   4  226.13   10.24
   4  -6   4  203.28    7.78
   4  -6   5  112.59    7.69
   4  -6   5  107.84    4.36
   4   6   5  119.19    7.07
   4   6   5  133.19    7.72
  -4   6  -5  127.35    7.20
  -4  -6  -5  126.40    7.57
   4  -6   5  126.43    6.27
   4  -6   6  199.31   10.24
   4  -6   6  179.83    5.14
   4  -6   6  182.39    5.09
   4   6   6  178.54    8.78
   4   6   6  193.96    9.70
  -4   6  -6  184.99    9.31
   4  -6   6  182.19    5.22
   4  -6   6  187.88    8.32
   4  -6   7    0.08    2.16
   4   6   7    1.84    1.55
   4   6   7    4.11    2.02
   4  -6   7    6.22    2.22
   4  -6   8   23.06    4.02
   4   6   8   27.94    4.09
   4   6   8   27.10    3.56
   4  -6   9   14.16    3.72
   4   6   9   10.06    2.50
   4   6   9   16.75    3.49
   4   6  10   60.21    5.56
   4  -6  10   60.98    6.81
   4   6  10   66.37    5.46
   4  -6  11  127.45    9.97
   4   6  11  140.49    9.50
   4   6  11  123.22    7.88
   4   6  12    2.86    2.52
   4  -6  12    4.73    2.56
   4   6  12    4.91    2.07
   4   6  13  253.40   13.71
   4  -6  13  267.85   15.25
   4   6  13  246.25   12.09
   4  -6  13  258.86   14.40
   4   6  14    0.61    1.92
   4  -6  14   -3.28    2.61
   4   6  15  375.86   18.17
   4   7 -16   49.49    6.05
   4   7 -15    0.33    2.04
   4   7 -15   -0.40    1.89
  -4  -7  15    1.42    2.26
   4   7 -14   59.31    6.33
   4  -7 -14   73.44    7.58
   4   7 -14   63.56    6.82
  -4  -7  14   62.52    6.95
   4  -7 -13   13.54    3.66
   4   7 -13    7.19    2.79
   4   7 -13    9.60    3.10
  -4  -7  13   11.65    3.52
   4  -7 -12   21.89    4.34
   4  -7 -12   22.49    2.70
   4   7 -12   18.29    3.80
  -4  -7  12   22.09    3.94
   4  -7 -11    1.57    2.03
   4  -7 -11    2.04    1.18
   4   7 -11    2.82    2.42
   4  -7 -10   10.00    3.31
   4  -7 -10    5.93    1.51
   4   7 -10    3.12    1.94
   4  -7  -9   12.16    3.38
   4  -7  -9    9.74    1.51
   4   7  -9   18.06    3.32
   4   7  -8   26.24    3.50
   4  -7  -8   16.02    3.48
   4  -7  -8   23.11    2.04
   4   7  -8   30.43    4.07
   4   7  -7   24.60    3.31
   4  -7  -7   29.52    3.99
   4  -7  -7   28.73    1.97
   4   7  -7   25.63    3.64
   4  -7  -6   91.00    2.74
   4   7  -6  125.25    7.16
   4  -7  -6   99.81    7.36
   4   7  -6  110.65    6.91
   4  -7  -6  104.20    3.78
   4  -7  -5  302.96    8.51
   4   7  -5  318.10   12.38
   4  -7  -5  304.10   13.25
   4   7  -5  330.56   12.77
   4  -7  -5  299.69    8.32
   4   7  -5  322.57   11.83
   4  -7  -4  311.61    9.37
   4  -7  -4  312.50   13.20
   4  -7  -4  293.23    8.47
   4   7  -4  355.69   12.82
   4   7  -4  327.92   12.44
   4   7  -4  332.00   11.66
   4  -7  -3    0.70    0.95
   4  -7  -3   -0.52    1.56
   4  -7  -3    1.25    0.66
   4   7  -3    7.56    2.32
  -4   7   3    2.60    0.80
  -4  -7   3    2.73    1.41
   4   7  -3    1.54    1.13
   4  -7  -2  424.96   12.67
   4  -7  -2  419.96   14.63
   4  -7  -2  419.70   11.26
  -4   7   2  387.24   10.83
   4   7  -2  441.90   14.82
  -4   7   2  393.95    9.44
  -4  -7   2  430.05   14.48
   4  -7  -1   10.24    1.94
   4  -7  -1    9.35    2.22
   4  -7  -1    8.82    1.43
   4   7  -1   14.38    2.69
  -4   7   1    9.87    1.43
  -4  -7   1    8.67    2.11
   4  -7   0   15.82    2.35
   4  -7   0   15.55    2.19
   4   7   0   15.48    2.62
  -4   7   0   14.48    1.75
  -4  -7   0   19.06    2.66
   4  -7   1    0.66    1.35
   4  -7   1    0.28    1.24
  -4   7  -1    0.69    0.85
   4   7   1   -1.56    1.63
  -4  -7  -1   -1.08    1.11
   4  -7   2  262.07   11.06
  -4   7  -2  279.18   10.06
   4   7   2  278.12   11.40
  -4  -7  -2  270.28   11.17
   4  -7   2  269.46    9.49
   4  -7   3   47.90    4.68
   4  -7   3   40.46    3.15
  -4   7  -3   53.97    4.14
   4   7   3   53.63    4.79
  -4  -7  -3   52.30    4.61
   4  -7   4   12.46    2.77
   4  -7   4   10.10    1.45
  -4   7  -4   14.85    2.42
  -4  -7  -4   15.49    2.70
   4   7   4   14.66    2.74
   4  -7   4   12.30    1.58
   4  -7   4   11.42    1.85
   4  -7   5   -0.49    1.84
   4  -7   5    1.19    0.60
   4   7   5    3.80    1.76
  -4   7  -5    2.29    1.38
   4   7   5   -0.07    1.55
   4  -7   5    1.21    0.71
   4  -7   5    0.40    1.12
   4  -7   6    4.62    2.17
   4   7   6    4.36    1.57
   4   7   6    4.52    2.18
  -4   7  -6    6.86    1.97
   4  -7   6    3.68    1.52
   4  -7   7   10.30    2.85
   4   7   7   10.11    2.34
   4   7   7    5.45    2.43
   4  -7   7   12.58    2.46
   4  -7   8   23.87    4.27
   4   7   8   22.62    3.39
   4   7   8   25.26    3.91
   4  -7   8   21.35    3.50
   4  -7   9    5.75    2.73
   4   7   9    0.86    1.98
   4  -7   9    2.40    2.18
   4  -7  10   59.28    6.68
   4  -7  10   58.70    5.80
   4   7  10   58.66    5.42
   4   7  11   14.07    3.17
   4  -7  11   14.91    3.77
   4  -7  11   15.29    3.37
   4   7  11   19.59    3.42
   4   7  12  213.12   12.15
   4  -7  12  222.28   13.57
   4   7  12  209.09   11.14
   4  -7  12  224.78   12.57
   4   7  13   14.13    3.65
   4  -7  13   21.74    4.82
   4  -7  13   21.67    4.44
   4   7  13   14.47    3.13
   4   7  14  122.20    9.52
   4  -7  14  132.16   10.24
   4   7  15   -2.30    2.28
   4   8 -16   -1.09    2.06
   4   8 -15   82.23    7.60
  -4  -8  15   83.09    8.28
   4   8 -14    7.19    2.90
   4  -8 -14    3.11    2.41
   4   8 -14    3.72    2.40
   4  -8 -13   58.25    6.96
   4   8 -13   68.46    6.72
   4   8 -13   52.29    6.25
   4  -8 -12   55.27    6.69
   4   8 -12   50.84    5.87
   4  -8 -11    8.06    2.95
   4  -8 -11    2.64    1.01
   4   8 -11    2.04    2.39
   4  -8 -10   37.85    5.17
   4  -8 -10   29.90    2.47
   4   8 -10   35.44    4.67
   4  -8  -9   26.69    4.53
   4  -8  -9   18.00    1.81
   4   8  -9   25.08    3.92
   4  -8  -8    1.46    1.83
   4  -8  -8    2.36    0.79
   4   8  -8    2.69    2.04
   4  -8  -7   14.00    3.15
   4  -8  -7   13.90    1.17
   4   8  -7   19.54    3.48
   4   8  -6    4.23    1.96
   4  -8  -6    1.07    2.04
   4  -8  -6    1.67    0.50
   4   8  -6    2.21    1.75
   4   8  -6    6.53    2.49
   4   8  -5   26.45    3.44
   4  -8  -5   25.71    1.62
   4  -8  -5   28.49    3.95
   4  -8  -5   17.44    1.04
   4   8  -5   26.55    3.57
   4  -8  -5   32.24    4.05
   4   8  -5   34.59    3.55
   4  -8  -4   29.22    3.92
   4  -8  -4   30.25    2.23
   4   8  -4   37.32    4.20
   4  -8  -4   32.67    3.91
   4   8  -4   29.27    3.24
   4   8  -4   34.96    3.89
   4  -8  -3  228.85    8.06
   4  -8  -3  232.00   10.72
   4   8  -3  260.19   10.78
  -4  -8   3  245.28   10.56
   4  -8  -3  243.43   10.98
   4   8  -3  241.75    9.73
   4  -8  -2   22.53    2.44
   4  -8  -2   20.03    3.05
  -4   8   2   28.86    1.89
   4   8  -2   32.37    3.83
   4  -8  -2   20.78    3.18
  -4  -8   2   27.63    3.35
   4  -8  -1  277.39    9.89
   4  -8  -1  269.11   10.73
  -4   8   1  250.78    8.03
   4   8  -1  267.26   11.08
  -4  -8   1  272.18   11.06
   4  -8  -1  276.05   10.88
   4  -8   0   24.41    2.93
   4  -8   0   22.48    2.88
   4   8   0   20.49    3.12
  -4   8   0   24.87    2.30
  -4  -8   0   28.08    3.47
   4  -8   0   22.07    2.80
   4  -8   1   22.97    3.01
   4  -8   1   23.79    2.64
  -4   8  -1   22.36    2.37
   4   8   1   26.18    3.25
  -4  -8  -1   21.08    2.83
   4  -8   1   23.41    2.58
   4  -8   2    3.19    1.73
   4  -8   2    3.11    1.19
   4   8   2    3.27    1.91
  -4   8  -2    4.97    1.40
   4  -8   2    3.46    1.31
  -4  -8  -2    5.44    1.78
   4  -8   3  323.67   13.11
   4  -8   3  337.45   10.64
   4   8   3  369.94   13.63
  -4   8  -3  340.94   12.09
  -4  -8  -3  340.54   13.24
   4  -8   3  319.05   10.53
   4  -8   4   12.27    2.60
   4  -8   4   15.30    1.62
  -4  -8  -4   18.07    2.88
  -4   8  -4   18.18    2.71
   4   8   4    9.46    2.38
   4  -8   4   14.73    1.60
   4  -8   5   29.34    4.14
   4   8   5   30.85    4.51
   4  -8   5   24.81    1.70
  -4   8  -5   24.42    3.22
   4   8   5   33.25    4.12
   4  -8   5   24.32    1.64
   4  -8   5   24.41    2.95
   4  -8   6    3.37    2.16
   4   8   6    3.47    1.64
  -4   8  -6    6.24    2.05
   4   8   6    4.13    1.75
   4  -8   6    3.53    1.50
   4  -8   7    4.76    2.63
   4   8   7    2.01    2.13
   4  -8   7    0.99    1.45
   4  -8   8    8.03    2.89
   4   8   8    5.12    2.22
   4  -8   8    1.33    1.97
   4  -8   9   74.52    7.23
   4   8   9   73.73    6.82
   4  -8   9   66.20    5.94
   4  -8  10    0.65    2.04
   4   8  10    4.39    2.54
   4  -8  10    1.10    1.96
   4   8  10   -0.52    1.54
   4   8  11  111.13    8.49
   4  -8  11  103.28    9.03
   4  -8  11  102.66    8.20
   4   8  11   96.35    7.42
   4   8  12    0.39    1.91
   4  -8  12    2.13    3.07
   4  -8  12    2.55    2.32
   4   8  12    4.20    2.17
   4   8  13  125.37    9.30
   4  -8  13  129.53   10.50
   4   8  13  121.15    8.62
   4  -8  13  134.39    9.96
   4   8  14    3.30    2.27
   4  -8  14    6.19    3.15
   4   8  15   55.44    6.70
   4   9 -15   24.00    4.45
   4   9 -14   92.97    7.88
   4  -9 -14   78.25    8.27
   4   9 -14   85.49    8.08
   4  -9 -13  123.46   10.29
   4   9 -13  120.29    8.88
   4   9 -13  108.61    9.11
   4  -9 -12   33.29    5.40
   4   9 -12   37.39    5.19
   4  -9 -11  140.46   10.47
   4   9 -11  139.77    9.56
   4  -9 -10  155.51   10.74
   4  -9 -10  125.44    4.97
   4   9 -10  150.78    9.67
   4  -9  -9  202.00   11.90
   4  -9  -9  194.46    5.83
   4  -9  -9  190.82    5.87
   4   9  -9  182.66   10.53
   4  -9  -8    9.70    3.16
   4  -9  -8    5.20    0.58
   4  -9  -8    5.22    0.58
   4   9  -8    6.21    2.33
   4  -9  -7  459.49   17.92
   4   9  -7  436.37   16.83
   4  -9  -6    1.40    2.03
   4   9  -6    3.85    1.74
   4   9  -6    0.64    1.76
   4  -9  -5  133.25    4.23
   4   9  -5  143.46    8.22
   4  -9  -5  137.11    8.42
   4   9  -5  140.40    8.09
   4   9  -5  149.45    7.78
   4  -9  -4   65.87    3.36
   4   9  -4   72.95    5.67
   4  -9  -4   76.90    6.18
   4   9  -4   81.21    5.91
   4  -9  -4   68.97    5.71
   4   9  -4   70.29    5.16
   4  -9  -3   33.70    2.66
   4  -9  -3   33.63    4.11
   4   9  -3   33.83    3.99
  -4  -9   3   33.62    3.76
   4   9  -3   38.25    3.65
   4  -9  -3   30.79    3.79
   4  -9  -2  391.77   12.16
   4  -9  -2  377.90   14.16
  -4   9   2  367.54    9.83
   4   9  -2  412.42   14.68
  -4  -9   2  417.06   14.65
   4  -9  -2  393.48   14.46
   4  -9  -1    3.73    1.47
   4  -9  -1    1.60    1.41
  -4   9   1    5.52    1.09
   4   9  -1    4.07    2.06
  -4  -9   1    4.52    1.83
   4  -9  -1    6.68    1.82
  -4   9   1    5.52    0.96
   4  -9   0  102.15    5.86
   4  -9   0  113.69    6.13
  -4   9   0   94.66    4.48
  -4  -9   0  113.08    6.73
   4   9   0   96.07    6.39
   4  -9   0  106.22    5.96
   4  -9   1    3.24    1.63
   4  -9   1    7.28    1.85
   4   9   1    3.60    1.60
  -4   9  -1    4.14    1.33
  -4  -9  -1    7.85    2.13
   4  -9   1    3.86    1.32
   4  -9   2  136.09    7.66
   4  -9   2  146.06    6.58
  -4   9  -2  142.08    6.62
  -4  -9  -2  147.15    7.98
   4   9   2  140.75    7.90
   4  -9   2  139.94    6.39
   4  -9   3  411.65   15.49
   4  -9   3  403.69   12.52
  -4  -9  -3  453.47   15.78
  -4   9  -3  413.26   13.96
   4   9   3  458.38   15.93
   4  -9   3  402.86   12.46
   4  -9   4  256.11   11.86
   4   9   4  272.87   12.09
   4  -9   4  259.43    8.42
  -4   9  -4  274.22   10.92
   4   9   4  306.69   12.55
   4  -9   4  254.33    8.29
   4  -9   5  379.09   15.56
   4  -9   5  396.01   10.18
  -4   9  -5  385.65   14.45
   4   9   5  411.81   15.50
   4  -9   5  388.51   13.21
   4  -9   6   68.88    6.41
   4   9   6   87.12    6.64
  -4   9  -6   77.29    5.93
   4  -9   6   72.80    5.28
   4  -9   7  415.06   17.28
   4   9   7  438.02   16.71
   4  -9   7  421.82   15.19
   4  -9   8   45.66    5.68
   4   9   8   49.81    5.36
   4  -9   8   43.25    4.59
   4  -9   9  386.44   17.57
   4   9   9  377.35   16.30
   4  -9   9  382.96   15.60
   4  -9  10   23.14    4.56
   4   9  10   26.44    4.31
   4   9  10   21.20    3.62
   4  -9  10   20.67    3.68
   4  -9  11   93.08    8.59
   4  -9  11   83.70    7.53
   4   9  11   71.70    6.61
   4   9  12   53.08    6.14
   4  -9  12   67.05    7.62
   4   9  12   47.84    5.55
   4  -9  12   62.51    6.67
   4   9  13   42.61    5.98
   4   9  13   43.67    5.47
   4  -9  13   52.09    6.51
   4   9  14   71.20    7.14
   4   9  14   78.24    7.25
   4  -9  14   76.39    7.87
   4   9  15    0.30    2.19
   4  10 -15   79.87    7.35
   4  10 -14   77.23    7.35
   4 -10 -13  121.78   10.21
   4  10 -13  110.80    9.16
   4 -10 -12  142.88   10.97
   4  10 -12  127.63    9.68
   4 -10 -11    5.78    2.96
   4  10 -11   10.38    3.14
   4 -10 -10  689.44   25.55
   4  10 -10  649.84   23.75
   4 -10  -9    8.52    3.12
   4  10  -9   11.08    3.08
   4 -10  -8  727.17   25.15
   4  10  -8  685.79   23.55
   4 -10  -7   30.44    4.60
   4  10  -7   29.17    4.25
   4 -10  -6  404.00   16.59
   4  10  -6  401.61   15.77
   4 -10  -5   65.65    2.52
   4 -10  -5   76.24    6.49
   4  10  -5   79.03    6.22
   4  10  -5   83.45    5.82
   4 -10  -4  260.06    8.15
   4 -10  -4  286.91   12.64
   4  10  -4  268.44   11.82
   4 -10  -4  268.44   12.20
   4  10  -4  279.68   11.47
   4 -10  -3  189.13    7.13
   4 -10  -3  192.72    9.87
   4  10  -3  200.23    9.70
   4 -10  -3  189.06    9.62
   4  10  -3  209.61    9.41
   4 -10  -2  102.59    5.43
   4 -10  -2  106.26    6.98
  -4  10   2  110.12    3.56
   4  10  -2  128.95    7.65
  -4 -10   2  115.20    7.08
   4 -10  -2  108.01    7.01
   4 -10  -1  146.31    6.81
   4 -10  -1  149.42    7.69
  -4  10   1  133.61    4.91
   4  10  -1  136.66    7.83
   4 -10  -1  138.82    7.47
  -4  10   1  142.01    5.17
  -4 -10   1  146.82    8.02
   4 -10   0   11.84    2.36
   4 -10   0   12.65    2.35
   4  10   0   13.61    2.77
  -4  10   0   12.54    1.64
  -4 -10   0   11.90    2.45
   4 -10   0    9.72    2.05
   4 -10   1  151.93    7.81
   4 -10   1  150.73    7.15
  -4  10  -1  150.71    6.40
  -4 -10  -1  153.09    8.21
   4  10   1  144.02    7.99
   4 -10   1  149.26    7.10
   4 -10   2   27.42    3.68
   4 -10   2   31.03    3.09
  -4  10  -2   30.22    3.08
   4  10   2   34.83    4.18
  -4 -10  -2   34.28    4.08
   4 -10   2   26.85    2.74
   4 -10   3  154.28    8.74
   4 -10   3  176.56    6.99
  -4  10  -3  169.58    7.81
   4  10   3  163.84    8.86
   4 -10   3  161.07    6.66
   4 -10   4  627.16   21.27
   4 -10   4  644.05   16.74
   4  10   4  703.34   21.70
  -4  10  -4  636.49   19.70
   4 -10   4  602.49   16.41
   4 -10   5   61.99    5.89
  -4  10  -5   62.09    5.07
   4  10   5   59.19    5.44
   4 -10   5   60.62    2.63
   4 -10   6  776.67   25.95
   4  10   6  791.48   24.96
   4 -10   7    7.75    2.83
   4  10   7    7.74    2.41
   4 -10   7    5.50    1.81
   4 -10   8  965.65   31.39
   4  10   8  958.29   29.69
   4 -10   8  953.17   28.43
   4 -10   9    4.20    2.48
   4  10   9    4.68    2.08
   4  10   9    1.19    1.79
   4 -10   9    2.43    2.30
   4 -10  10  180.96   11.96
   4  10  10  192.58   11.42
   4 -10  10  179.53   10.59
   4  10  10  177.71   10.53
   4 -10  11   21.54    4.74
   4  10  11    9.41    2.49
   4 -10  11   13.34    3.44
   4  10  12  211.89   12.23
   4 -10  12  202.69   13.39
   4 -10  12  217.00   12.84
   4  10  12  193.98   11.69
   4  10  13   61.03    6.65
   4  10  13   54.74    6.06
   4 -10  13   68.54    7.26
   4  10  14   26.31    4.64
   4  10  14   24.78    4.48
   4 -10  14   20.64    4.39
   4  11 -14  317.58   15.45
   4 -11 -13   -2.52    2.29
   4  11 -13   -2.88    2.11
   4 -11 -12  140.06   10.86
   4  11 -12  117.52    9.34
   4 -11 -11   86.45    8.27
   4  11 -11   87.01    7.74
   4 -11 -10    7.53    3.40
   4  11 -10    6.09    2.79
   4 -11  -9   77.12    7.39
   4  11  -9   77.62    6.86
   4 -11  -8    7.90    2.66
   4  11  -8    6.56    2.66
   4 -11  -7    8.73    2.66
   4  11  -7    5.35    2.44
   4 -11  -6  107.24    8.13
   4  11  -6  127.05    8.27
   4 -11  -5   16.74    3.31
   4  11  -5   17.06    3.21
   4 -11  -5   13.66    0.89
   4 -11  -4  111.79    4.54
   4 -11  -4  101.57    7.45
   4  11  -4  113.03    7.26
   4  11  -4  121.27    7.20
   4 -11  -3  118.42    5.36
   4 -11  -3  116.58    7.76
   4  11  -3  119.02    7.51
   4 -11  -3  133.33    7.96
   4 -11  -2  724.82   19.04
   4 -11  -2  724.33   21.89
   4  11  -2  760.63   22.34
  -4  11   2  638.69   15.04
   4 -11  -2  719.20   21.75
   4 -11  -1    4.67    1.39
   4 -11  -1    4.05    1.95
  -4  11   1    5.33    0.91
   4  11  -1    3.51    2.03
   4 -11  -1    4.53    1.64
  -4  11   1    6.46    1.19
   4 -11   0  606.06   18.65
   4 -11   0  621.25   18.94
   4  11   0  620.87   20.10
  -4  11   0  586.75   15.99
   4 -11   0  604.30   18.83
  -4  11   0  613.40   16.25
   4 -11   1    5.63    1.91
   4 -11   1   11.08    2.22
   4  11   1    7.50    2.06
  -4  11  -1    7.89    1.59
   4 -11   1    6.63    1.60
   4 -11   2  450.48   16.32
   4 -11   2  479.62   14.77
  -4  11  -2  453.96   14.47
   4  11   2  473.83   16.93
   4 -11   2  467.87   14.55
   4 -11   3   48.60    4.96
   4 -11   3   53.49    3.64
  -4  11  -3   55.94    4.25
   4  11   3   57.95    5.20
   4 -11   3   51.87    3.49
   4 -11   4  270.23   12.71
  -4  11  -4  285.21   11.49
   4  11   4  309.02   12.97
   4 -11   4  292.52    9.22
   4 -11   5   30.34    4.19
  -4  11  -5   28.06    3.42
   4  11   5   28.22    3.86
   4 -11   5   32.63    1.83
   4 -11   6  104.47    8.29
   4  11   6  125.26    8.12
   4 -11   7  104.64    8.19
   4  11   7  115.47    7.92
   4 -11   8   16.87    3.97
   4  11   8   14.98    3.35
   4 -11   8   13.39    3.07
   4 -11   9   39.24    5.50
   4  11   9   43.88    5.20
   4  11   9   36.48    4.71
   4 -11   9   43.70    4.95
   4 -11  10  119.20    9.89
   4  11  10  122.93    9.06
   4 -11  10  129.92    8.96
   4  11  10  104.90    8.26
   4 -11  11    3.40    2.64
   4  11  11   -1.11    1.91
   4 -11  11    1.70    2.30
   4  11  12  217.32   12.54
   4 -11  12  246.67   14.93
   4 -11  12  241.97   13.49
   4  11  12  234.10   13.03
   4  11  13    0.32    2.06
   4 -11  13    3.62    2.51
   4  11  13   -0.93    2.35
   4  11  14  206.47   12.46
   4  11  14  197.96   12.23
   4  12 -14   19.69    3.88
   4 -12 -12   27.97    5.08
   4  12 -12   20.21    4.27
   4 -12 -11    7.43    3.23
   4  12 -11    2.61    2.19
   4 -12 -10   21.68    4.44
   4  12 -10   19.94    3.86
   4 -12  -9    5.94    2.78
   4  12  -9    0.57    1.96
   4 -12  -8   48.22    5.82
   4  12  -8   47.38    5.40
   4 -12  -7   74.51    7.10
   4  12  -7   62.77    6.22
   4 -12  -6   40.66    4.97
   4  12  -6   46.14    5.14
   4 -12  -5   34.70    4.60
   4  12  -5   45.83    4.98
   4 -12  -4    2.03    1.77
   4 -12  -4    0.33    0.76
   4  12  -4    3.73    2.00
   4 -12  -3   87.26    4.60
   4 -12  -3   94.19    6.98
   4  12  -3   91.42    6.63
   4 -12  -3   90.95    6.63
   4 -12  -2   73.08    4.58
   4 -12  -2   75.64    6.11
   4  12  -2   78.16    6.14
   4 -12  -2   77.78    6.01
   4 -12  -1  317.56   11.37
   4 -12  -1  319.00   12.66
   4  12  -1  313.79   13.06
  -4  12   1  291.26    8.30
  -4  12   1  298.14    9.75
   4 -12  -1  301.05   12.30
   4 -12   0    0.81    1.40
   4 -12   0    0.75    1.42
  -4  12   0    0.55    0.69
   4  12   0    2.50    2.00
   4 -12   0   -0.90    1.27
  -4  12   0   -0.11    0.97
   4 -12   1  147.95    7.96
   4 -12   1  156.01    7.65
   4  12   1  154.07    8.59
  -4  12  -1  150.18    6.48
   4 -12   1  155.57    7.55
   4 -12   2   18.34    3.12
   4 -12   2   16.62    2.30
   4  12   2    9.98    2.58
  -4  12  -2   13.96    2.08
   4 -12   2   15.18    2.15
   4 -12   3   -1.34    1.73
   4  12   3   -0.97    1.86
  -4  12  -3    0.28    1.02
   4 -12   3   -0.30    0.90
   4 -12   4    5.24    2.47
   4  12   4    4.88    2.21
  -4  12  -4    3.73    1.52
   4 -12   4    3.77    1.09
   4 -12   5   -0.40    1.82
  -4  12  -5    0.69    1.38
   4  12   5   -1.57    1.96
   4 -12   6   27.03    4.28
   4  12   6   32.11    4.13
   4 -12   7   11.59    3.21
   4  12   7   15.43    3.22
   4 -12   8   96.40    8.17
   4  12   8   84.84    7.07
   4 -12   9   11.83    3.58
   4  12   9   11.01    3.35
   4  12   9   12.48    3.34
   4 -12   9    8.81    2.76
   4 -12  10   93.97    8.73
   4  12  10   93.41    7.99
   4 -12  10   94.23    7.63
   4  12  10   86.26    7.70
   4 -12  11  117.05   10.27
   4  12  11  113.64    9.07
   4 -12  11  117.53    8.82
   4  12  11  107.00    8.74
   4  12  12   17.14    3.82
   4 -12  12    5.71    2.73
   4  12  13   65.61    6.90
   4  12  13   65.99    6.97
   4 -12  13   64.90    7.12
   4  12  14    3.80    2.60
   4  12  14    2.01    2.33
   4 -13 -12   32.78    5.88
   4  13 -12   35.90    5.41
   4 -13 -11   24.67    4.87
   4  13 -11   28.64    4.78
   4 -13 -10   -0.62    2.49
   4  13 -10    1.26    2.56
   4 -13  -9   38.39    5.61
   4  13  -9   34.97    4.84
   4 -13  -8    0.16    2.36
   4  13  -8    0.82    2.42
   4 -13  -7    6.84    3.21
   4  13  -7    2.98    2.72
   4 -13  -6   24.44    4.40
   4  13  -6   32.60    4.39
   4 -13  -5    8.71    2.86
   4  13  -5    4.49    2.18
   4 -13  -4   18.95    3.72
   4 -13  -4   18.80    1.75
   4  13  -4   19.83    3.38
   4 -13  -3    1.11    0.82
   4 -13  -3    1.03    2.02
   4  13  -3    0.03    1.86
   4 -13  -2   48.80    3.79
   4 -13  -2   47.57    4.89
   4  13  -2   44.10    4.65
   4 -13  -2   49.69    4.68
   4 -13  -1   10.96    2.22
   4 -13  -1   11.17    2.51
   4  13  -1   17.85    3.32
  -4  13   1   13.68    1.25
   4 -13  -1   10.77    2.38
  -4  13   1    8.65    1.62
   4 -13   0  106.60    6.42
   4 -13   0  110.10    6.72
   4  13   0  113.79    7.38
  -4  13   0  103.99    4.61
  -4  13   0  109.85    5.42
   4 -13   0  112.13    6.66
   4 -13   1   92.09    6.50
   4 -13   1   93.71    6.10
  -4  13  -1   92.92    5.03
   4  13   1  104.86    7.24
   4 -13   1   90.63    5.77
  -4  13  -1   95.09    5.31
   4 -13   2  157.07    8.85
  -4  13  -2  162.50    7.40
   4  13   2  184.21    9.71
   4 -13   2  171.70    7.89
   4 -13   3   17.00    3.36
   4  13   3   24.42    3.76
  -4  13  -3   19.95    2.62
   4 -13   3   23.84    2.60
   4 -13   4    4.00    2.23
   4  13   4    2.74    1.87
  -4  13  -4    3.70    1.54
   4 -13   4    2.43    0.93
   4 -13   5   34.29    4.74
  -4  13  -5   26.74    3.38
   4  13   5   27.85    3.74
   4 -13   6   54.34    6.06
   4  13   6   64.05    6.11
   4 -13   7   65.61    6.57
   4  13   7   65.90    6.11
   4 -13   8    4.13    2.70
   4  13   8    9.27    2.90
   4 -13   9   -0.79    2.42
   4  13   9   -2.14    2.33
   4  13   9    1.21    2.21
   4 -13  10   15.63    4.24
   4  13  10   10.85    3.83
   4  13  10   20.42    4.17
   4 -13  11    0.67    2.59
   4  13  11   -0.04    2.08
   4  13  11   -1.27    2.06
   4 -13  11   -0.59    2.05
   4  13  12   16.59    3.83
   4 -13  12   25.84    4.74
   4  13  13    6.99    2.66
   4  13  13    2.21    2.30
   4 -14 -11   21.26    5.00
   4  14 -11   18.71    4.03
   4 -14 -10  324.10   17.14
   4  14 -10  304.36   15.52
   4 -14  -9   15.49    3.97
   4  14  -9   13.12    3.52
   4 -14  -8  380.21   17.91
   4  14  -8  378.38   16.99
   4 -14  -7    3.72    2.99
   4  14  -7    2.70    2.35
   4 -14  -6  286.64   14.49
   4  14  -6  293.03   13.88
   4 -14  -5    5.57    2.65
   4  14  -5   -0.71    1.81
   4 -14  -4  124.72    4.98
   4  14  -4  130.23    8.39
   4 -14  -4  123.84    8.70
   4 -14  -3   43.57    3.20
   4 -14  -3   37.61    4.80
   4  14  -3   42.10    4.77
   4 -14  -2   26.44    2.94
   4 -14  -2   27.20    3.86
   4  14  -2   30.19    4.12
   4 -14  -2   22.34    3.35
   4 -14  -1   98.52    5.90
   4 -14  -1   94.78    6.73
   4  14  -1  106.83    7.36
  -4  14   1   95.08    3.39
  -4  14   1   88.94    5.06
   4 -14  -1  105.90    6.83
   4 -14   0   -0.15    1.46
   4 -14   0    0.39    1.50
   4  14   0    2.20    2.18
  -4  14   0    2.29    0.93
   4 -14   0    0.84    1.35
  -4  14   0    0.29    1.16
   4 -14   1  191.63    9.53
   4 -14   1  180.49    8.85
  -4  14  -1  178.88    7.28
   4  14   1  199.35   10.26
  -4  14  -1  182.68    7.97
   4 -14   2  107.01    7.43
  -4  14  -2  116.75    6.14
   4  14   2  125.09    8.06
   4 -14   2  117.58    6.47
   4 -14   3  103.11    7.52
  -4  14  -3  114.12    6.39
   4  14   3  108.98    7.60
   4 -14   3  115.33    5.93
   4 -14   4  113.28    8.24
  -4  14  -4  122.07    7.06
   4  14   4  126.89    8.28
   4 -14   4  126.34    5.63
   4 -14   5    9.39    3.17
  -4  14  -5    9.06    2.19
   4  14   5    6.10    2.46
   4 -14   6  613.54   23.08
   4  14   6  618.77   21.91
   4 -14   7    1.70    2.12
   4  14   7    2.18    1.89
   4 -14   8  490.80   20.80
   4  14   8  449.77   18.44
   4 -14   9   10.51    3.49
   4  14   9    7.39    2.80
   4  14   9   10.27    3.49
   4 -14  10  343.62   17.91
   4  14  10  349.75   16.36
   4  14  10  335.28   16.74
   4  14  11   11.57    3.50
   4  14  11    6.77    2.71
   4  14  12   72.80    7.77
   4  14  13   12.63    3.54
   4 -15 -11  185.53   13.19
   4  15 -11  177.40   12.06
   4 -15 -10   26.86    5.20
   4  15 -10   22.41    4.32
   4 -15  -9  281.18   15.70
   4  15  -9  272.35   14.65
   4 -15  -8    2.06    2.44
   4  15  -8    8.95    3.14
   4 -15  -7  389.71   17.93
   4  15  -7  358.48   16.42
   4 -15  -6   32.23    5.17
   4  15  -6   31.17    4.73
   4 -15  -5  224.21   12.54
   4  15  -5  225.60   11.94
   4 -15  -4  106.84    8.28
   4  15  -4  100.31    7.55
   4 -15  -4  100.76    4.50
   4 -15  -3  189.47    7.54
   4  15  -3  187.97   10.40
   4 -15  -3  172.56   10.46
   4 -15  -2   36.61    3.28
   4 -15  -2   38.75    4.52
   4  15  -2   36.62    4.58
   4 -15  -1   12.29    2.32
   4 -15  -1    5.76    1.79
  -4  15   1    9.21    0.92
   4  15  -1   14.54    3.11
   4 -15  -1   10.26    2.44
  -4  15   1    8.45    0.83
  -4  15   1   10.83    2.03
   4 -15   0  502.79   17.46
   4 -15   0  543.80   18.37
   4  15   0  525.10   19.15
  -4  15   0  524.57   14.20
  -4  15   0  515.43   16.23
   4 -15   1   93.43    6.80
   4 -15   1   98.33    6.44
   4  15   1  106.23    7.48
  -4  15  -1   92.56    5.06
  -4  15  -1   86.60    5.55
   4 -15   2  138.71    8.62
  -4  15  -2  136.03    6.73
   4  15   2  138.37    8.58
   4 -15   2  148.16    7.42
   4 -15   3  130.70    8.73
  -4  15  -3  137.26    7.19
   4  15   3  142.67    8.84
   4 -15   3  142.53    6.83
   4 -15   4  138.30    9.17
  -4  15  -4  133.78    7.55
   4  15   4  141.22    8.78
   4 -15   5  147.32    9.98
   4  15   5  161.46    9.80
   4 -15   6    6.56    2.74
   4  15   6   17.62    3.38
   4 -15   7  342.70   16.60
   4  15   7  329.96   15.07
   4 -15   8    1.28    2.64
   4  15   8    0.95    2.06
   4 -15   9  388.97   18.93
   4  15   9  376.73   16.91
   4  15   9  374.34   18.04
   4 -15  10   28.08    5.23
   4  15  10   22.77    4.15
   4  15  10   23.26    4.57
   4  15  11  263.29   14.40
   4  15  11  246.63   14.57
   4 -16 -10   16.47    4.04
   4  16 -10   21.04    4.34
   4 -16  -9   12.16    3.93
   4  16  -9    5.90    2.93
   4 -16  -8    2.26    2.51
   4  16  -8   -0.18    1.89
   4 -16  -7    2.85    2.12
   4  16  -7    1.97    2.38
   4 -16  -6    4.98    2.80
   4  16  -6    6.52    2.49
   4 -16  -5  107.55    8.74
   4  16  -5  101.08    7.93
   4 -16  -4    1.56    2.01
   4  16  -4    0.52    1.74
   4 -16  -3  175.01    7.36
   4  16  -3  199.26   10.84
   4 -16  -3  182.70   10.83
   4 -16  -2    9.33    1.92
   4 -16  -2    7.24    2.58
   4  16  -2    7.90    2.80
   4 -16  -1  494.46   15.93
   4 -16  -1  533.82   18.41
   4  16  -1  508.26   18.59
  -4  16   1  456.01   10.79
  -4  16   1  443.45   10.77
  -4  16   1  508.20   15.59
   4 -16   0   18.04    2.90
   4 -16   0   24.01    3.49
   4  16   0   26.59    3.95
  -4  16   0   22.74    2.04
  -4  16   0   19.12    2.48
   4 -16   1  577.06   20.08
   4 -16   1  628.52   19.77
   4  16   1  581.03   20.93
  -4  16  -1  596.06   16.91
  -4  16  -1  601.57   18.67
   4 -16   2   40.49    4.68
   4 -16   2   48.37    4.29
  -4  16  -2   44.99    3.72
   4  16   2   45.53    4.92
  -4  16  -2   41.51    4.03
   4 -16   3  232.77   12.09
  -4  16  -3  226.01    9.86
   4  16   3  260.13   12.42
   4 -16   3  254.05    9.87
   4 -16   4    4.96    2.69
   4  16   4    9.33    2.62
  -4  16  -4    7.28    1.94
   4 -16   5   74.48    7.20
   4  16   5   89.39    7.33
   4 -16   6   19.75    3.89
   4  16   6   16.65    3.33
   4 -16   7   22.01    4.44
   4  16   7   20.18    3.85
   4 -16   8   -0.79    2.21
   4  16   8   -1.23    2.11
   4  16   8    2.77    2.54
   4 -16   9   46.13    6.39
   4  16   9   35.93    4.97
   4  16   9   43.23    6.01
   4  16  10   10.71    3.28
   4  16  10    7.96    3.01
   4  16  11   50.65    6.14
   4 -17  -9   66.83    7.61
   4  17  -9   62.93    7.13
   4 -17  -8   33.36    5.58
   4  17  -8   24.00    4.77
   4 -17  -7   37.76    5.77
   4  17  -7   42.50    5.53
   4 -17  -6   89.75    8.39
   4  17  -6   83.52    7.64
   4 -17  -5   27.74    4.62
   4  17  -5   21.62    3.77
   4  17  -4   51.69    5.57
   4 -17  -4   51.83    6.02
   4 -17  -3    2.58    1.16
   4  17  -3    1.32    2.10
   4 -17  -3    4.56    2.40
   4 -17  -2   15.91    2.30
   4 -17  -2   23.83    3.87
   4  17  -2   19.38    3.79
   4 -17  -1    0.82    1.40
   4 -17  -1    3.93    2.28
   4  17  -1   -1.61    1.78
  -4  17   1    0.24    1.29
   4 -17   0   13.90    2.60
   4 -17   0   16.14    2.95
   4  17   0   16.16    3.23
  -4  17   0   11.48    1.30
  -4  17   0   11.81    2.22
   4 -17   1   -0.38    1.40
   4 -17   1    0.65    1.23
   4  17   1    2.19    2.00
  -4  17  -1    0.00    1.18
   4 -17   2   15.99    3.00
   4 -17   2   11.12    2.26
   4  17   2   17.48    3.48
  -4  17  -2   14.77    2.66
   4 -17   3    8.16    2.65
   4  17   3    7.57    2.54
   4 -17   3    6.89    1.74
   4 -17   4   31.19    4.65
   4  17   4   31.04    4.45
   4 -17   5  117.20    9.05
   4  17   5  114.89    8.42
   4 -17   6   51.75    6.20
   4  17   6   62.22    6.28
   4 -17   7   85.14    8.15
   4  17   7   81.27    7.17
   4 -17   8   30.48    5.21
   4  17   8   27.78    4.57
   4  17   8   28.13    5.03
   4 -17   9   76.60    8.26
   4  17   9   68.16    6.84
   4  17   9   71.51    7.66
   4  17  10   32.55    5.33
   4  17  11    6.04    2.40
   4 -18  -8   62.88    7.33
   4  18  -8   61.72    6.77
   4 -18  -7    1.63    2.22
   4  18  -7    4.83    2.72
   4 -18  -6   68.17    7.36
   4  18  -6   59.63    6.45
   4 -18  -5   12.73    3.57
   4  18  -5   16.79    3.72
   4 -18  -4    4.40    2.66
   4  18  -4    1.66    1.90
   4 -18  -3   41.34    5.33
   4  18  -3   49.88    5.58
   4 -18  -3   51.36    3.71
   4 -18  -2   14.72    2.22
   4  18  -2   20.34    3.78
   4 -18  -2   24.19    4.21
   4 -18  -1  131.61    7.36
   4  18  -1  124.53    8.78
   4 -18  -1  129.27    8.53
   4 -18   0   48.61    4.66
   4  18   0   45.32    5.27
   4 -18   0   47.84    4.98
   4 -18   1   38.45    4.39
   4  18   1   42.64    5.00
   4 -18   1   44.23    4.66
   4 -18   2   10.68    2.64
   4  18   2   10.35    2.73
   4 -18   2   18.09    2.92
   4 -18   3   44.90    5.25
   4  18   3   59.32    6.07
   4 -18   4  139.94    9.68
   4  18   4  141.06    9.27
   4 -18   5   26.97    4.80
   4  18   5   30.15    4.46
   4 -18   6   69.71    7.20
   4  18   6   61.37    6.27
   4 -18   7    6.35    3.36
   4  18   7    4.97    2.58
   4 -18   8   47.86    6.31
   4  18   8   39.69    5.05
   4  18   8   41.19    6.07
   4  18   9    1.98    2.16
   4  18  10   17.68    3.59
   4 -19  -8    5.39    3.24
   4 -19  -7  285.42   15.86
   4  19  -7  266.77   14.65
   4 -19  -6    3.19    2.52
   4  19  -6    0.89    1.92
   4  19  -5  220.79   12.68
   4 -19  -5  230.10   13.49
   4  19  -4    4.35    1.90
   4 -19  -4    4.60    2.40
   4  19  -3   41.46    5.42
   4 -19  -3   38.02    5.28
   4 -19  -2    5.33    1.42
   4  19  -2    5.24    2.47
   4 -19  -2    4.77    2.39
   4 -19  -1    5.99    1.98
   4  19  -1    5.87    2.68
   4 -19  -1    5.82    1.98
   4 -19   0   61.74    5.37
   4  19   0   62.00    6.19
   4 -19   0   56.55    5.44
   4 -19   1   27.12    3.94
   4  19   1   20.10    3.76
   4 -19   1   27.54    3.76
   4 -19   2    0.95    1.69
   4  19   2    3.82    2.50
   4 -19   2    1.48    1.21
   4 -19   3  140.30    9.56
   4  19   3  147.84    9.73
   4 -19   4   18.13    3.80
   4  19   4   15.43    3.50
   4 -19   5  193.82   12.03
   4  19   5  197.84   11.62
   4 -19   6    4.04    2.44
   4  19   6   12.19    3.26
   4 -19   7  209.07   13.29
   4  19   7  194.34   11.65
   4  19   8    1.76    2.09
   4  19   9  200.08   12.11
   4  19  10    2.60    2.27
   4 -20  -7    9.14    3.50
   4  20  -6  254.18   14.13
   4 -20  -6  264.14   15.23
   4  20  -5   24.73    4.40
   4 -20  -5   21.72    4.65
   4  20  -4   60.42    6.51
   4 -20  -4   69.08    7.40
   4  20  -3  241.90   13.45
   4 -20  -3  253.61   13.80
   4  20  -2   12.28    3.32
   4 -20  -2   14.45    3.70
   4 -20  -1  170.51    8.88
   4  20  -1  187.93   11.29
   4 -20  -1  185.36   10.79
   4 -20   0    0.27    1.38
   4  20   0    0.95    2.21
   4 -20   0   -1.03    1.94
   4 -20   1  180.91   10.36
   4  20   1  189.58   11.43
   4 -20   1  204.78   10.50
   4 -20   2   35.56    4.72
   4  20   2   38.36    5.08
   4 -20   3  186.71   11.33
   4  20   3  210.07   11.88
   4 -20   4  102.33    8.46
   4  20   4  108.40    8.40
   4 -20   5   38.51    5.42
   4  20   5   45.87    5.70
   4 -20   6  288.74   15.74
   4  20   6  294.54   14.74
   4 -20   7    3.37    2.24
   4  20   7    1.69    1.79
   4  20   8   96.36    8.23
   4  20   9    4.46    2.62
   4 -21  -6   15.96    4.02
   4  21  -5   10.63    3.11
   4 -21  -5   11.78    3.46
   4  21  -4  247.47   13.86
   4 -21  -4  254.39   14.48
   4  21  -3   18.63    3.93
   4 -21  -3   14.29    3.64
   4  21  -2  189.07   11.70
   4 -21  -2  179.37   11.21
   4  21  -1   -1.75    2.21
   4 -21  -1    0.57    1.74
   4 -21   0  160.93    9.25
   4  21   0  166.88   10.73
   4 -21   0  170.75   10.21
   4 -21   1    0.12    1.53
   4  21   1    1.18    2.09
   4 -21   1    2.23    1.63
   4 -21   2  120.03    8.73
   4  21   2  135.98    9.47
   4 -21   3   -1.47    1.77
   4  21   3    1.83    2.04
   4 -21   4   78.70    7.63
   4  21   4   91.70    7.82
   4 -21   5    2.43    2.39
   4  21   5    4.21    2.59
   4 -21   6   20.98    4.44
   4  21   6   20.56    4.04
   4  21   7   13.12    3.13
   4  21   8    3.66    2.43
   4 -22  -5   25.40    4.82
   4  22  -4   37.72    5.55
   4 -22  -4   47.74    6.48
   4  22  -3   97.62    8.51
   4 -22  -3   95.50    8.41
   4  22  -2   -1.17    2.23
   4 -22  -2   -2.70    2.48
   4  22  -1   31.84    4.88
   4 -22  -1   32.70    4.71
   4  22   0   -0.97    2.05
   4 -22   0   -0.06    1.59
   4 -22   1   22.67    3.84
   4  22   1   23.35    4.18
   4 -22   2   43.72    5.39
   4  22   2   60.70    6.48
   4 -22   3   11.07    3.12
   4  22   3   10.31    3.18
   4 -22   4   77.51    7.61
   4  22   4   75.58    7.12
   4 -22   5    5.53    2.81
   4  22   5    3.50    2.24
   4  22   6   74.59    7.24
   4  22   7    1.16    1.89
   4 -23  -4    0.28    2.23
   4 -23  -3    1.59    2.13
   4  23  -2   26.38    4.79
   4 -23  -2   21.15    4.16
   4  23  -1   10.57    3.10
   4 -23  -1   11.76    3.19
   4  23   0   52.59    6.21
   4  23   1   42.73    5.58
   4 -23   2   18.92    3.70
   4  23   2   18.02    3.85
   4 -23   3   24.05    4.46
   4  23   3   31.28    4.84
   4 -23   4   17.18    3.79
   4  23   4   25.19    4.40
   4  23   5   74.88    7.47
   4  23   6    0.65    1.93
   4 -24  -3    4.10    2.37
   4 -24  -2   37.27    5.56
   4  24   1   -0.18    1.96
   4  24   2    9.24    3.53
   4 -24   3   13.85    3.65
   4  24   3    7.23    2.64
   4 -24   4  120.17    9.81
  -5   0  16  178.87   11.95
   5   0 -15   -2.77    2.16
  -5   0  15    0.97    2.45
   5   0 -14  198.54   12.64
  -5   0  14  174.01   10.70
   5   0 -14  147.42    9.51
   5   0 -13    2.53    2.72
   5   0 -13    3.47    2.03
  -5   0  13    1.34    1.78
   5   0 -12  379.13   17.39
   5   0 -12  343.62   14.59
  -5   0  12  381.12   15.34
   5   0 -11    1.02    2.38
   5   0 -11    1.80    1.79
  -5   0  11    0.74    1.72
   5   0 -10  720.31   21.64
   5   0 -10  791.19   26.95
   5   0 -10  755.23   23.57
  -5   0  10  795.02   23.45
   5   0  -9    3.32    2.50
   5   0  -9   -0.33    1.06
   5   0  -9    1.06    1.58
  -5   0   9   -0.17    1.34
   5   0  -8   51.96    4.06
   5   0  -8   52.60    5.87
   5   0  -8   45.63    4.39
  -5   0   8   46.04    3.92
   5   0  -7    7.01    1.78
   5   0  -7   11.20    2.49
   5   0  -6    3.68    1.61
   5   0  -5    6.44    2.10
   5   0  -4  126.75    6.76
  -5   0   4  107.77    6.13
   5   0  -3    3.52    1.55
  -5   0   3    0.44    1.11
   5   0  -2  590.53   18.27
  -5   0   2  611.78   18.08
   5   0  -1   -0.95    1.51
   5   0  -1   -0.23    0.52
  -5   0   1   -0.09    1.03
   5   0   0  857.21   24.14
  -5   0   0  836.11   23.56
  -5   0  -1   -1.20    1.24
   5   0   1    1.97    1.63
   5   0   2  899.57   26.01
  -5   0  -2  913.63   25.93
   5   0   3    0.08    1.56
  -5   0  -3    0.96    1.26
   5   0   4  249.39   11.33
  -5   0  -4  265.66   11.45
   5   0   5    0.62    1.71
   5   0   6 1013.98   30.49
   5   0   7    1.61    2.40
   5   0   7    1.30    2.22
   5   0   7    0.28    0.89
   5   0   8   53.42    4.11
   5   0   8   68.44    6.85
   5   0   9   -0.14    0.84
   5   0   9    0.10    2.07
   5   0  10    7.17    3.15
   5   0  10    5.50    1.61
   5   0  11    3.59    2.46
   5   0  12   11.04    3.80
   5   0  13   -2.65    2.64
   5   1 -16   12.83    3.53
  -5  -1  16   20.58    4.58
  -5   1  16   10.81    3.28
   5   1 -15   85.43    8.37
  -5  -1  15   74.74    7.31
  -5   1  15   68.08    7.05
   5   1 -15   62.63    6.39
   5   1 -14    1.22    2.02
   5  -1 -14   -1.43    2.37
   5  -1 -14    4.44    2.57
   5   1 -14   -1.19    1.68
  -5  -1  14    2.84    2.06
  -5   1  14   -1.98    2.15
   5   1 -13   15.63    3.93
   5  -1 -13   18.39    4.07
   5  -1 -13   17.08    3.01
   5   1 -13   14.82    3.08
  -5  -1  13   17.16    3.51
  -5   1  13   18.33    3.63
   5   1 -12   39.93    5.71
   5  -1 -12   38.84    5.72
   5  -1 -12   34.19    4.14
   5   1 -12   31.48    4.20
  -5  -1  12   30.03    4.10
  -5   1  12   26.87    4.09
   5   1 -11  105.81    8.56
   5  -1 -11   90.79    8.09
   5   1 -11   89.35    6.74
   5  -1 -11   92.00    6.62
  -5  -1  11   99.73    6.90
  -5   1  11  102.67    6.89
   5   1 -10  325.29   12.63
   5  -1 -10  318.44   11.68
   5  -1 -10  373.79   16.86
   5   1 -10  351.04   16.12
   5   1 -10  339.31   14.04
   5  -1 -10  356.67   13.65
  -5  -1  10  363.01   13.87
  -5   1  10  377.73   13.82
   5   1  -9   39.67    5.34
   5  -1  -9   39.87    5.22
   5   1  -9   29.62    3.25
   5  -1  -9   32.38    3.12
   5  -1  -9   32.51    3.68
   5   1  -9   36.27    4.17
  -5  -1   9   37.98    3.83
  -5   1   9   34.19    3.60
   5   1  -8  187.31    8.51
   5  -1  -8  180.82    7.78
   5  -1  -8  196.46   11.14
   5  -1  -8  182.36    8.63
   5   1  -8  182.67    9.15
  -5   1   8  190.26    8.15
   5  -1  -7  112.33    5.88
   5   1  -7  113.96    6.42
   5  -1  -7  115.11    8.52
   5  -1  -7  110.38    6.42
   5   1  -7  120.75    7.04
  -5   1   7  125.01    5.97
   5   1  -6  268.45   10.81
   5  -1  -6  276.41   10.44
   5   1  -6  257.07   10.07
   5  -1  -5   66.94    4.71
   5   1  -5   69.56    5.03
   5  -1  -4  507.59   15.70
   5   1  -4  500.74   16.32
  -5   1   4  480.29   15.26
  -5  -1   4  501.40   15.87
   5   1  -3  122.78    6.74
   5  -1  -3  125.65    6.46
  -5   1   3  117.48    6.18
  -5  -1   3  133.26    6.68
   5   1  -2  315.36   11.91
  -5  -1   2  328.87   11.85
  -5   1   2  323.39   11.30
   5  -1  -2  309.76   11.43
   5  -1  -1   37.11    3.57
  -5   1   1   46.29    3.65
   5   1  -1   44.45    3.96
  -5  -1   1   44.44    3.78
   5   1  -1   44.44    2.38
  -5  -1   0   51.38    4.11
   5  -1   0   40.36    3.95
   5   1   0   47.88    4.28
  -5   1   0   53.79    4.09
   5  -1   1  175.68    8.33
   5   1   1  177.65    8.52
  -5   1  -1  165.56    7.97
  -5  -1  -1  179.13    8.39
  -5   1  -2   -0.68    1.14
   5  -1   2    0.48    1.62
  -5  -1  -2    1.24    1.15
   5   1   2    1.17    1.79
   5  -1   3   89.73    6.03
  -5  -1  -3   93.84    6.23
   5   1   3   89.48    6.30
  -5   1  -3   89.23    5.93
   5  -1   4    7.81    2.37
   5   1   4    9.81    2.69
  -5   1  -4    5.97    2.02
  -5  -1  -4    7.28    2.20
   5   1   5  100.57    7.25
   5  -1   5  106.08    7.26
   5  -1   6  326.42   14.77
   5  -1   6  337.59   14.36
   5   1   6  334.70   14.41
   5   1   7   -0.01    1.85
   5  -1   7    1.88    2.12
   5   1   7    2.10    1.37
   5  -1   7   -0.17    0.84
   5  -1   8  337.79   11.35
   5   1   8  327.15   12.07
   5   1   8  342.19   15.51
   5  -1   8  361.02   15.90
   5  -1   9    1.69    0.81
   5   1   9    4.09    1.42
   5   1   9    3.34    2.37
   5  -1   9    0.14    2.11
   5  -1  10  245.09   13.35
   5   1  10  205.32   12.30
   5  -1  10  223.18    8.30
   5   1  10  209.11    9.02
   5   1  11   44.04    6.00
   5  -1  11   48.10    6.27
   5   1  12  317.41   16.54
   5  -1  12  318.37   16.86
   5   1  13   52.44    6.72
   5  -1  13   40.86    5.86
   5   2 -16   -0.96    2.25
  -5  -2  16    3.86    2.76
  -5   2  16    0.93    2.36
   5   2 -15    1.90    2.44
   5   2 -15    2.82    2.14
  -5  -2  15    7.65    3.13
  -5   2  15    4.14    2.64
   5   2 -14   20.89    4.29
   5  -2 -14   14.90    4.05
   5  -2 -14   15.87    2.99
   5   2 -14   20.53    3.91
  -5  -2  14   17.01    3.32
  -5   2  14   23.67    3.89
   5   2 -13   50.49    6.40
   5  -2 -13   50.05    6.62
   5  -2 -13   45.82    4.91
   5   2 -13   41.43    5.24
  -5   2  13   56.51    5.81
  -5  -2  13   47.81    5.62
   5   2 -12    3.54    2.79
   5  -2 -12    5.77    2.82
   5  -2 -12    7.41    2.37
   5   2 -12    4.18    2.12
  -5  -2  12    6.15    2.49
  -5   2  12    4.89    2.10
   5   2 -11  127.71    7.44
   5   2 -11  136.14    9.88
   5  -2 -11  139.78   10.04
   5   2 -11  120.90    8.21
   5  -2 -11  126.17    7.68
  -5  -2  11  143.27    8.57
  -5   2  11  147.62    8.40
   5   2 -10   52.31    4.55
   5  -2 -10   48.94    3.60
   5  -2 -10   67.32    6.95
   5   2 -10   63.28    6.49
   5  -2 -10   62.48    5.22
   5   2 -10   61.68    5.53
  -5  -2  10   60.45    5.19
  -5   2  10   53.77    4.78
   5   2  -9  375.63   13.97
   5  -2  -9  383.98   12.50
   5  -2  -9  423.65   17.75
   5   2  -9  387.13   15.01
   5  -2  -9  392.29   13.99
  -5  -2   9  419.97   14.74
  -5   2   9  415.53   14.03
   5  -2  -8    2.15    2.22
   5   2  -8    3.09    1.38
   5  -2  -8    3.44    1.34
   5   2  -8    4.79    2.28
  -5   2   8    1.37    1.52
   5  -2  -8    4.22    1.52
   5  -2  -7  294.26   10.27
   5   2  -7  293.86   11.56
   5  -2  -7  327.34   14.37
   5  -2  -7  306.73   11.20
   5   2  -7  299.16   12.15
  -5   2   7  317.45   10.36
   5   2  -6   10.24    1.99
   5  -2  -6    9.77    3.10
   5   2  -6    7.92    1.99
   5  -2  -6   11.69    2.21
   5  -2  -5  268.69   10.12
   5   2  -5  269.75   10.89
   5   2  -4    4.71    2.05
   5  -2  -4    1.99    1.36
  -5   2   4    2.85    1.14
  -5  -2   4    2.69    1.36
   5   2  -3   79.70    5.49
   5  -2  -3   76.11    4.74
  -5   2   3   78.21    4.60
  -5  -2   3   83.15    5.32
   5  -2  -2    2.03    1.44
   5   2  -2    2.99    1.75
  -5   2   2    1.76    1.15
  -5  -2   2    2.52    1.52
   5   2  -2    0.98    0.72
   5   2  -1   -1.07    1.36
   5  -2  -1    2.61    1.40
  -5  -2   1    2.57    1.46
  -5   2   1    2.98    1.18
   5   2   0    3.24    1.74
  -5   2   0    3.81    1.35
   5  -2   0    4.23    1.85
  -5  -2   0    2.29    1.40
  -5   2  -1   44.61    3.90
   5  -2   1   33.72    3.75
  -5  -2  -1   39.04    3.94
   5   2   1   35.47    4.00
   5  -2   2   12.95    2.52
   5   2   2   13.63    2.77
  -5  -2  -2   16.60    2.58
  -5   2  -2   14.39    2.42
   5  -2   3   52.98    4.79
   5   2   3   54.52    4.98
  -5  -2  -3   51.95    4.86
  -5   2  -3   61.13    5.06
   5  -2   4   22.54    3.26
  -5   2  -4   27.14    3.52
   5   2   4   26.41    3.73
   5  -2   5  350.24   14.81
   5   2   5  348.14   14.29
   5  -2   5  334.85   14.07
   5   2   6   24.92    3.90
   5  -2   6   25.87    4.12
   5  -2   7  468.77   18.26
   5   2   7  467.39   17.80
   5   2   7  422.72   14.71
   5  -2   7  422.89   13.22
   5  -2   8   36.10    5.09
   5  -2   8   37.36    2.95
   5   2   8   37.32    3.76
   5   2   8   40.51    5.26
   5   2   8   36.06    5.03
   5   2   9  249.13   10.61
   5  -2   9  292.19   14.42
   5   2   9  280.84   14.02
   5  -2   9  273.81    9.10
   5  -2  10   34.49    5.45
   5   2  10   24.13    4.55
   5   2  10   28.16    3.24
   5   2  11   93.85    8.29
   5  -2  11   90.36    8.34
   5   2  11   83.37    5.57
   5  -2  12    8.31    3.49
   5   2  12   13.85    3.97
   5  -2  13   91.91    8.84
   5   2  13  104.76    9.39
  -5   3  16    5.77    2.66
   5   3 -16    1.97    2.10
  -5  -3  16   -1.56    2.38
   5   3 -15   -1.61    2.16
  -5   3  15    0.27    2.20
   5   3 -15    5.00    2.86
  -5  -3  15   -0.82    2.55
   5   3 -14   14.34    3.51
   5  -3 -14   19.20    4.39
  -5   3  14   15.84    3.56
   5   3 -14   12.89    3.35
  -5  -3  14   13.48    3.40
   5   3 -13    6.21    2.96
   5  -3 -13    5.01    2.49
  -5   3  13    9.29    3.15
   5  -3 -13    5.76    1.99
   5   3 -13    6.06    2.53
  -5  -3  13    8.20    2.79
   5   3 -12   89.02    8.09
   5  -3 -12   82.26    8.36
   5  -3 -12   79.13    5.86
  -5  -3  12   74.81    6.65
  -5   3  12   83.23    6.60
   5   3 -12   70.81    6.46
   5   3 -11   15.52    3.85
   5  -3 -11    9.80    3.48
  -5   3  11   11.47    2.58
   5  -3 -11    9.12    2.29
   5   3 -11   10.97    2.99
  -5  -3  11   13.62    2.99
   5  -3 -10    5.31    2.41
   5   3 -10    7.26    2.08
  -5   3  10    9.06    2.22
   5  -3 -10    6.60    1.82
   5   3 -10    8.93    2.62
  -5  -3  10    7.56    2.12
   5  -3  -9    6.24    2.83
   5   3  -9   10.58    2.26
   5  -3  -9    7.31    1.35
   5   3  -9   14.74    2.95
   5  -3  -9    9.51    2.00
  -5   3   9   10.34    2.30
   5   3  -8  479.10   16.58
   5  -3  -8  472.99   14.14
   5  -3  -8  509.74   19.76
   5  -3  -8  479.34   15.45
   5   3  -8  499.72   17.48
  -5   3   8  521.37   15.43
   5  -3  -7    1.06    0.81
   5   3  -7    3.14    1.68
   5  -3  -7    1.23    2.32
   5  -3  -7    0.37    1.30
  -5   3   7   -0.37    1.14
   5   3  -7    1.81    1.65
   5  -3  -6  117.60    7.96
   5   3  -6  116.22    6.90
   5  -3  -6  117.70    6.02
  -5   3   6  116.57    4.80
   5   3  -6  117.81    6.66
   5  -3  -5   37.43    4.75
   5  -3  -5   35.22    3.25
   5   3  -5   30.70    3.78
   5   3  -4  250.51   10.53
   5  -3  -4  233.70    8.98
  -5   3   4  222.64    8.56
  -5  -3   4  245.76   10.17
   5  -3  -3   32.71    2.97
   5   3  -3   33.85    3.67
  -5  -3   3   35.50    3.51
   5   3  -3   31.50    2.57
  -5   3   3   35.72    3.00
   5  -3  -2   24.55    2.86
   5   3  -2   27.61    3.47
  -5  -3   2   32.74    3.37
  -5   3   2   24.23    2.60
   5   3  -2   24.68    2.19
  -5   3   1   29.11    2.77
  -5  -3   1   31.79    3.39
   5   3  -1   28.07    3.41
   5  -3  -1   27.09    2.90
  -5   3   0    1.65    1.32
   5   3   0   -0.27    1.57
   5  -3   0    1.34    1.44
  -5  -3   0    4.83    1.70
   5   3   1   35.03    3.81
  -5   3  -1   31.04    3.16
   5  -3   1   32.17    3.37
  -5  -3  -1   34.74    3.55
   5  -3   2   45.62    4.38
   5   3   2   48.71    4.91
  -5  -3  -2   55.69    4.99
  -5   3  -2   51.49    4.45
   5   3   3  105.55    6.89
  -5  -3  -3  116.19    7.03
  -5   3  -3  104.70    6.45
   5  -3   3  104.61    6.82
   5  -3   4  120.74    7.89
  -5   3  -4  133.00    7.79
   5   3   4  125.12    8.06
   5  -3   4  123.90    7.76
   5  -3   5    2.72    1.83
   5   3   5    0.99    2.04
   5  -3   5    0.55    2.16
   5  -3   6   36.74    5.00
   5   3   6   39.72    4.64
   5  -3   7   31.67    4.55
   5   3   7   25.06    4.02
   5  -3   7   24.32    2.32
   5   3   7   25.00    3.18
   5  -3   8  269.84   13.67
   5  -3   8  264.76    8.64
   5   3   8  245.34   10.73
   5   3   8  256.46   12.96
   5   3   9   22.71    3.17
   5   3   9   24.67    4.29
   5  -3   9   25.69    4.58
   5  -3   9   21.51    1.95
   5   3  10  238.86   13.03
   5  -3  10  234.91   13.35
   5   3  10  212.22    9.95
   5  -3  11    8.67    3.40
   5   3  11   11.86    3.64
   5   3  11    6.22    1.99
   5   3  12   51.05    6.43
   5  -3  12   56.32    6.87
   5   3  13   62.59    7.16
   5  -3  13   71.61    8.04
   5   4 -15    5.10    2.81
  -5   4  15    0.50    2.00
   5   4 -15    2.81    2.54
  -5  -4  15    2.04    2.16
   5   4 -14  123.01    9.76
   5  -4 -14  131.01   10.46
  -5  -4  14  112.96    8.82
  -5   4  14  117.34    8.48
   5   4 -14  104.88    8.50
   5   4 -13   33.76    5.33
   5  -4 -13   33.94    5.56
  -5   4  13   34.84    4.74
   5   4 -13   24.78    4.37
  -5  -4  13   21.97    4.13
   5  -4 -12  184.95   11.98
   5   4 -12  190.17   11.68
   5  -4 -12  162.55    8.44
  -5  -4  12  176.34   10.19
  -5   4  12  171.37    9.43
   5   4 -12  160.48    9.94
   5   4 -11    3.73    2.42
   5  -4 -11    1.01    2.29
   5  -4 -11    2.55    1.43
  -5   4  11    5.81    2.34
   5   4 -11    5.61    2.44
   5   4 -10   41.41    4.36
   5  -4 -10   36.36    5.20
   5  -4 -10   37.36    3.69
   5   4 -10   45.26    5.06
  -5   4  10   44.71    4.29
   5   4  -9   79.75    5.87
   5  -4  -9   75.17    3.82
   5  -4  -9   82.65    7.33
   5  -4  -9   79.39    5.00
   5   4  -9   79.96    6.43
  -5   4   9   89.43    5.52
   5   4  -8    9.55    2.22
   5  -4  -8    9.02    1.39
   5  -4  -8    9.14    3.29
   5  -4  -8    7.78    1.76
  -5   4   8    5.99    1.71
   5   4  -8   12.35    2.88
   5  -4  -7  609.46   16.73
   5   4  -7  617.17   19.87
   5  -4  -7  655.35   22.71
   5  -4  -7  606.53   17.93
   5   4  -7  614.22   20.40
  -5   4   7  659.09   17.39
   5   4  -6    8.05    1.98
   5  -4  -6    6.67    2.68
   5  -4  -6    5.17    1.46
  -5   4   6    5.68    1.25
   5   4  -6    5.13    2.03
   5  -4  -5  388.35   15.50
   5   4  -5  371.25   13.93
   5  -4  -5  377.91   12.07
   5  -4  -4  136.29    8.44
   5   4  -4  147.78    7.92
   5  -4  -4  129.37    6.15
  -5   4   4  127.85    5.89
  -5  -4   4  140.75    7.54
   5   4  -4  130.88    6.20
   5  -4  -3  101.15    6.92
   5   4  -3  105.24    6.58
   5  -4  -3  102.78    5.35
  -5  -4   3  105.25    6.31
   5   4  -3  101.11    5.08
  -5   4   3   90.85    4.82
  -5   4   2  316.94   10.68
   5   4  -2  341.33   12.91
   5  -4  -2  326.76   11.20
  -5  -4   2  321.28   12.32
   5   4  -2  320.35   10.42
  -5   4   1  139.52    6.35
   5  -4  -1  131.58    6.65
  -5  -4   1  140.47    7.51
   5   4  -1  138.08    7.69
   5  -4   0  480.04   15.26
  -5   4   0  473.27   14.97
  -5  -4   0  486.23   16.31
   5   4   0  491.85   16.58
  -5  -4  -1   11.22    2.33
  -5   4  -1   12.81    2.19
   5   4   1   11.02    2.50
   5  -4   1   10.46    2.30
   5  -4   2   94.98    6.33
   5   4   2   94.47    6.43
  -5  -4  -2   95.85    6.32
  -5   4  -2   95.57    5.71
   5  -4   2   96.33    5.95
   5  -4   2   94.63    3.37
   5  -4   3    2.79    2.14
   5  -4   3    3.19    1.90
  -5   4  -3    1.44    1.47
   5   4   3    0.47    1.81
   5  -4   3    0.59    0.84
   5  -4   4  197.23   10.32
   5   4   4  191.85   10.07
  -5   4  -4  200.82    9.61
   5  -4   4  201.96    9.91
   5  -4   5   50.74    5.47
   5   4   5   54.55    5.37
   5  -4   6    0.22    2.13
   5   4   6    2.21    1.88
   5   4   6    0.08    1.18
   5  -4   7   56.41    6.08
   5   4   7   57.48    5.78
   5  -4   7   56.92    3.26
   5   4   7   52.39    4.67
   5  -4   8   51.54    6.22
   5   4   8   50.92    5.80
   5  -4   8   44.75    2.69
   5   4   8   39.32    4.18
   5  -4   9  686.26   25.06
   5   4   9  636.58   20.94
   5   4   9  699.97   24.48
   5   4  10   -0.67    2.21
   5  -4  10   -0.28    2.18
   5   4  10    1.09    1.39
   5  -4  11  185.06   12.12
   5   4  11  187.61   11.82
   5   4  11  176.96    9.22
   5  -4  12  110.09    9.76
   5   4  12   98.59    8.81
   5   4  13  100.41    9.06
   5   5 -15  264.71   15.07
  -5  -5  15  260.87   14.64
  -5   5  15  269.49   14.01
   5   5 -15  230.79   13.77
   5   5 -14    3.77    2.72
  -5   5  14    2.07    2.49
   5   5 -14   -0.09    1.96
  -5  -5  14    3.51    2.42
   5   5 -13  675.42   25.13
   5  -5 -13  701.59   26.59
   5   5 -13  583.13   23.21
   5   5 -12   16.35    3.94
   5  -5 -12   16.53    4.39
   5  -5 -12   13.27    2.35
   5   5 -12   13.89    3.32
   5  -5 -11   86.38    8.04
   5   5 -11   83.49    6.94
   5  -5 -11   76.72    5.09
   5  -5 -10  127.87    9.82
   5  -5 -10  118.49    6.23
   5   5 -10  125.46    8.45
   5  -5  -9   11.98    1.27
   5  -5  -9    8.78    2.96
   5  -5  -9   12.91    2.11
   5   5  -9   14.81    3.07
   5   5  -8   80.80    6.00
   5  -5  -8   77.41    3.62
   5  -5  -8   87.75    7.40
   5   5  -8   84.42    6.48
   5  -5  -8   78.35    4.68
  -5   5   8   91.63    5.17
   5  -5  -7   80.75    3.96
   5   5  -7   91.47    6.31
   5  -5  -7   88.25    7.52
   5  -5  -7   80.79    4.73
   5   5  -7   88.24    6.64
  -5   5   7   83.41    4.79
   5   5  -6    5.44    1.82
   5  -5  -6    7.72    2.60
   5  -5  -6    9.23    1.56
  -5   5   6    7.71    1.32
   5   5  -6    7.42    2.21
   5  -5  -5   38.74    4.84
   5   5  -5   34.97    4.13
   5  -5  -5   31.43    2.78
  -5   5   5   29.81    1.80
   5  -5  -4    2.85    2.41
   5  -5  -4    3.66    1.16
   5   5  -4    6.53    2.54
   5   5  -4    3.50    1.55
  -5  -5   4    3.59    1.74
   5  -5  -3  145.41    8.48
   5  -5  -3  146.46    6.58
   5   5  -3  163.07    8.54
  -5  -5   3  162.91    8.24
   5   5  -3  147.80    6.72
  -5   5   3  137.35    6.02
   5  -5  -2   33.74    4.11
   5  -5  -2   33.72    3.06
   5   5  -2   35.26    3.91
  -5   5   2   35.97    2.85
   5   5  -2   35.24    2.93
  -5  -5   2   36.11    3.77
   5  -5  -1  442.35   15.42
   5   5  -1  443.36   15.58
   5  -5  -1  422.62   13.52
  -5  -5   1  446.79   15.43
  -5   5   1  402.33   12.91
   5  -5   0    2.80    1.54
   5  -5   0    4.22    1.55
   5   5   0   -0.05    1.69
  -5   5   0    3.46    1.24
  -5  -5   0    1.92    1.15
   5  -5   1  917.47   25.68
  -5   5  -1  832.83   23.63
  -5  -5  -1  873.10   25.48
   5   5   1  854.87   25.64
   5  -5   1  884.99   24.26
   5  -5   2    2.33    1.80
   5  -5   2    0.87    1.51
  -5  -5  -2    4.52    1.54
   5   5   2   -1.61    1.95
  -5   5  -2    2.80    1.30
   5  -5   3 1387.26   37.41
   5   5   3 1437.35   37.90
  -5   5  -3 1357.64   35.86
   5  -5   3 1359.50   36.12
   5  -5   3 1339.64   31.85
   5  -5   4    7.19    2.41
  -5   5  -4    4.29    1.74
   5   5   4    9.06    2.45
   5  -5   4    4.87    1.32
   5  -5   5  380.84   15.91
   5   5   5  405.97   16.08
   5  -5   5  396.46   12.81
   5  -5   6   40.63    5.08
   5   5   6   39.24    4.58
   5   5   6   37.01    4.05
   5  -5   7  110.50    8.40
   5  -5   7   99.54    4.15
   5   5   7   99.94    6.78
   5   5   7  109.37    7.92
   5  -5   8   75.51    7.11
   5  -5   8   69.00    2.73
   5   5   8   67.81    5.48
   5  -5   8   71.72    2.77
   5   5   8   80.46    6.97
   5  -5   8   70.44    2.72
   5  -5   9    1.75    2.49
   5   5   9    4.17    1.81
   5   5   9   -2.81    2.13
   5   5  10  136.81    9.62
   5  -5  10  150.59   10.65
   5   5  10  137.95    8.20
   5   5  11   24.65    4.90
   5  -5  11   12.71    3.62
   5   5  11   17.86    3.37
   5  -5  12   31.36    5.55
   5   5  12   27.82    4.72
   5   5  12   24.89    3.57
   5   5  13  108.99    9.31
   5   6 -15    7.24    3.56
   5   6 -14   87.02    8.09
   5   6 -14   71.31    7.35
   5   6 -13   11.39    3.55
   5  -6 -13   10.55    3.62
   5   6 -13   10.68    2.98
   5   6 -12    3.50    2.47
   5  -6 -12    2.82    2.35
   5   6 -12    2.80    2.01
   5  -6 -11  106.63    9.01
   5   6 -11   86.70    7.26
   5  -6 -11   87.92    5.23
   5  -6 -10   10.85    3.20
   5  -6 -10   12.91    2.04
   5   6 -10   11.98    3.27
   5  -6  -9  198.96   11.93
   5   6  -9  186.34   10.43
   5  -6  -9  187.87    7.61
   5  -6  -8    6.06    0.88
   5  -6  -8    7.11    0.89
   5  -6  -8   10.91    3.20
   5  -6  -8   10.16    1.74
   5   6  -8   11.92    3.40
   5  -6  -7  782.80   19.46
   5  -6  -7  828.57   27.03
   5  -6  -7  819.04   20.99
   5   6  -7  801.66   25.08
   5   6  -6   -0.85    1.30
   5  -6  -6   -0.28    2.09
   5  -6  -6    1.00    0.81
  -5   6   6    2.19    1.12
   5   6  -6    0.70    1.82
   5  -6  -5  541.28   19.26
   5   6  -5  503.20   17.74
   5  -6  -5  532.68   14.58
   5   6  -5  512.55   17.63
  -5   6   5  512.40   12.67
   5   6  -5  512.22   16.38
   5  -6  -4  109.58    7.63
   5  -6  -4  100.57    5.04
   5   6  -4  118.41    7.36
   5   6  -4  107.11    5.95
   5  -6  -3  444.42   14.01
   5  -6  -3  461.76   16.78
   5  -6  -3  452.26   13.31
   5   6  -3  471.84   16.51
  -5  -6   3  463.12   16.08
   5   6  -3  441.57   14.19
  -5   6   3  420.89   12.67
   5  -6  -2   83.43    5.20
   5  -6  -2   88.46    6.29
   5  -6  -2   83.73    4.59
   5   6  -2   82.22    6.09
  -5   6   2   77.57    4.23
  -5  -6   2   88.84    6.05
   5  -6  -1   67.77    5.11
   5  -6  -1   62.71    4.16
   5   6  -1   73.25    5.80
  -5  -6   1   75.23    5.62
  -5   6   1   65.54    4.01
   5  -6  -1   63.09    5.23
   5  -6   0  148.15    7.67
  -5  -6   0  155.10    8.18
  -5   6   0  139.04    6.50
   5   6   0  143.20    8.00
   5  -6   0  146.13    6.88
   5  -6   0  146.43    7.72
   5  -6   1   26.36    3.59
  -5   6  -1   36.63    3.39
   5  -6   1   27.98    3.23
   5   6   1   29.37    3.88
   5  -6   1   25.65    3.24
   5  -6   2  455.58   16.32
   5   6   2  468.36   16.61
  -5   6  -2  426.91   14.63
   5  -6   2  467.56   14.85
   5  -6   3   48.50    5.03
   5  -6   3   49.26    3.87
   5   6   3   50.76    5.24
  -5   6  -3   51.30    4.57
   5  -6   4   16.68    3.22
   5  -6   4   18.04    2.22
  -5   6  -4   14.86    2.53
   5   6   4   13.27    3.13
   5  -6   4   14.62    1.78
   5  -6   5  169.02   10.08
   5  -6   5  162.85    6.76
   5   6   5  165.44    9.54
   5  -6   5  169.56    7.32
   5  -6   6    1.52    1.93
   5  -6   6    0.95    0.91
   5   6   6    1.09    1.41
   5   6   6    3.03    2.30
   5  -6   6    0.90    1.69
   5  -6   7  225.94   12.13
   5  -6   7  209.34    6.22
   5  -6   7  197.44    6.03
   5   6   7  221.17   11.48
   5  -6   7  226.96    9.90
   5  -6   8    2.57    1.97
   5   6   8    0.45    2.04
   5  -6   8    0.72    1.71
   5  -6   9  387.78   17.41
   5   6   9  326.62   15.74
   5  -6   9  357.67   14.62
   5  -6  10    1.80    2.53
   5  -6  10    6.58    2.69
   5   6  10    2.17    1.76
   5  -6  11  444.96   20.28
   5   6  11  423.97   18.69
   5  -6  11  443.79   18.10
   5   6  11  378.16   15.85
   5   6  12   29.93    5.02
   5  -6  12   30.48    5.54
   5  -6  12   30.72    4.91
   5   6  12   22.66    3.75
   5   6  13   88.36    8.39
   5  -6  13   97.01    8.80
   5  -6  14   47.94    6.33
   5   7 -15   10.16    3.35
   5   7 -14   18.09    4.10
   5   7 -14   14.86    3.77
   5   7 -13   30.51    4.97
   5  -7 -13   34.53    5.62
   5   7 -13   23.15    4.30
   5  -7 -12   55.34    6.92
   5   7 -12   43.87    5.66
   5  -7 -11    8.17    3.46
   5   7 -11   17.36    3.75
   5  -7 -10  176.53   11.55
   5  -7 -10  162.35    6.83
   5   7 -10  179.70   10.56
   5  -7  -9   56.09    6.29
   5   7  -9   63.90    6.07
   5  -7  -9   53.71    3.48
   5  -7  -8   76.82    7.22
   5  -7  -8   78.12    4.00
   5   7  -8   73.68    6.30
   5  -7  -7    2.97    0.78
   5  -7  -7    2.61    0.66
   5  -7  -7    1.58    2.06
   5  -7  -7    2.65    1.00
   5   7  -7    3.27    2.14
   5  -7  -6  542.40   14.12
   5  -7  -6  529.66   19.99
   5   7  -6  487.98   18.27
   5  -7  -6  530.67   14.25
   5  -7  -5    0.84    0.96
   5  -7  -5    0.20    1.83
   5   7  -5    0.82    1.77
   5  -7  -5    0.78    0.95
   5   7  -5    0.87    1.27
   5  -7  -4   28.20    2.60
   5  -7  -4   31.90    4.16
   5   7  -4   23.19    3.51
   5  -7  -4   25.98    2.17
   5   7  -4   28.66    3.11
   5  -7  -3    3.14    1.28
   5  -7  -3    5.76    2.50
   5   7  -3    7.32    2.53
   5  -7  -3    5.25    1.22
  -5   7   3    6.96    1.18
   5   7  -3    7.20    1.72
   5  -7  -2    6.01    1.79
   5  -7  -2    5.08    2.11
   5  -7  -2    5.92    1.38
   5   7  -2    3.34    1.81
  -5   7   2    4.51    1.17
   5  -7  -1    2.54    1.38
   5   7  -1   -0.29    1.74
   5  -7  -1    1.94    1.11
  -5   7   1    2.63    1.13
   5  -7  -1   -0.92    1.46
   5  -7   0    4.49    1.84
   5  -7   0    3.64    1.20
  -5   7   0    5.71    1.40
   5   7   0    4.70    1.92
   5  -7   0    4.00    1.75
   5  -7   1   46.20    4.33
   5   7   1   48.76    4.62
  -5   7  -1   42.08    3.46
   5  -7   1   50.58    4.25
   5  -7   2   66.46    5.78
   5   7   2   78.09    6.15
  -5   7  -2   74.37    5.12
   5  -7   2   72.65    5.06
   5  -7   3   61.25    5.64
   5  -7   3   59.26    4.15
   5   7   3   56.53    5.31
  -5   7  -3   60.10    4.69
   5  -7   4  157.58    9.52
   5  -7   4  152.16    6.76
   5   7   4  164.42    9.49
  -5   7  -4  168.84    8.68
   5  -7   4  155.92    6.55
   5  -7   5   31.74    4.53
   5  -7   5   28.50    2.47
   5   7   5   31.91    4.18
   5  -7   5   26.18    2.75
   5  -7   6  224.82   12.19
   5  -7   6  235.86    7.33
   5   7   6  246.06   12.16
   5  -7   6  234.54    7.39
   5  -7   6  235.44    9.69
   5  -7   7    0.17    2.32
   5   7   7   -0.37    1.79
   5  -7   7   -0.01    1.45
   5  -7   8  128.25    9.46
   5   7   8  143.40    9.38
   5  -7   8  153.21    8.38
   5  -7   9  107.77    8.88
   5   7   9  113.23    8.72
   5  -7   9  100.69    7.54
   5  -7  10  404.70   18.70
   5   7  10  404.35   17.94
   5   7  10  365.97   15.48
   5  -7  10  374.90   15.92
   5   7  11    5.95    3.28
   5  -7  11    2.77    2.39
   5   7  11    5.15    2.32
   5  -7  11    3.67    2.52
   5  -7  12   87.31    8.73
   5   7  12   85.86    8.05
   5  -7  12   71.89    7.19
   5   7  12   65.30    6.14
   5   7  13    4.22    2.66
   5  -7  13    1.73    2.20
   5  -7  14   -2.05    2.08
   5   8 -14   38.22    5.57
   5   8 -14   31.56    5.13
   5  -8 -13    5.30    3.14
   5   8 -13    4.55    2.46
   5   8 -13    2.47    2.34
   5  -8 -12    9.45    3.20
   5   8 -12    5.61    2.49
   5  -8 -11  147.08   11.02
   5   8 -11  127.20    9.36
   5  -8 -10   65.78    7.10
   5   8 -10   79.66    7.09
   5  -8  -9  108.57    8.83
   5  -8  -9  101.27    4.38
   5   8  -9  116.16    8.39
   5  -8  -8    7.95    2.57
   5  -8  -8    4.75    0.97
   5   8  -8    7.74    2.69
   5  -8  -7   17.73    3.49
   5  -8  -7   20.71    1.61
   5   8  -7   24.73    3.91
   5  -8  -6   13.03    1.41
   5  -8  -6   13.29    3.53
   5  -8  -6   12.27    1.30
   5   8  -6   16.92    3.32
   5  -8  -5  242.44    8.12
   5  -8  -5  246.22   12.22
   5  -8  -5  250.32    7.42
   5   8  -5  237.39   11.43
   5   8  -5  241.70   10.50
   5  -8  -4    1.97    1.15
   5  -8  -4    6.24    2.31
   5   8  -4    3.18    1.72
   5  -8  -4    3.75    0.88
   5   8  -4    2.96    1.51
   5  -8  -3  185.68    7.75
   5  -8  -3  179.22    9.70
   5   8  -3  198.85   10.01
   5  -8  -3  172.51    6.35
   5   8  -3  181.68    8.39
  -5   8   3  168.74    6.02
   5  -8  -2   21.00    2.62
   5  -8  -2   15.05    2.69
   5  -8  -2   16.53    1.96
   5   8  -2   20.31    3.33
  -5   8   2   18.28    1.83
   5  -8  -1    7.10    1.97
   5   8  -1    7.15    2.44
  -5   8   1    8.72    1.57
   5  -8  -1    4.64    2.24
   5  -8   0   17.08    2.65
  -5   8   0   17.64    2.11
   5   8   0   19.13    3.12
   5  -8   0   16.08    2.68
   5  -8   1    6.50    2.34
   5   8   1    1.96    1.70
  -5   8  -1    4.29    1.51
   5  -8   1    3.30    1.44
   5  -8   2  124.28    7.57
   5   8   2  114.78    7.45
  -5   8  -2  112.43    6.25
   5  -8   2  122.03    6.38
   5  -8   3   18.61    3.33
   5  -8   3   21.04    2.60
  -5   8  -3   21.45    3.04
   5   8   3   19.28    3.35
   5  -8   4    1.70    2.01
   5  -8   4   -0.45    0.91
   5   8   4    2.33    2.18
  -5   8  -4    3.07    1.45
   5  -8   4    3.15    1.19
   5  -8   5  153.64    9.53
   5  -8   5  147.05    5.81
   5   8   5  149.96    9.27
   5  -8   5  139.36    5.70
   5  -8   5  140.85    6.68
   5  -8   6   26.87    4.29
   5  -8   6   20.75    1.64
   5   8   6   26.10    4.05
   5  -8   6   24.65    1.74
   5  -8   6   23.20    2.86
   5  -8   7  202.39   11.85
   5   8   7  223.74   11.78
   5  -8   7  204.15    9.53
   5  -8   8   74.38    7.41
   5   8   8   66.45    6.51
   5  -8   8   71.01    5.84
   5  -8   9   18.82    4.05
   5   8   9   23.50    4.31
   5  -8   9   28.57    4.03
   5  -8  10   44.03    6.14
   5   8  10   38.61    5.49
   5   8  10   38.12    4.77
   5  -8  10   41.06    5.06
   5  -8  11  139.32   10.74
   5  -8  11  134.70    9.24
   5   8  11  119.57    8.44
   5   8  12   46.25    5.84
   5   8  12   41.86    5.14
   5  -8  12   41.65    5.58
   5   8  13   16.90    3.92
   5  -8  13   17.02    4.09
   5  -8  14   -0.16    2.16
   5   9 -14    6.35    3.02
   5   9 -13   89.68    8.19
   5  -9 -12    0.61    2.60
   5   9 -12   -2.38    2.34
   5  -9 -11  148.77   11.01
   5   9 -11  141.69    9.94
   5  -9 -10   18.00    4.26
   5   9 -10   18.64    3.89
   5  -9  -9   66.63    7.16
   5   9  -9   65.22    6.40
   5  -9  -8   30.78    4.73
   5   9  -8   31.74    4.47
   5  -9  -7   -3.14    2.72
   5   9  -7    2.26    2.19
   5  -9  -6    2.73    2.02
   5  -9  -6    5.32    0.80
   5   9  -6    5.23    1.80
   5   9  -6    6.95    2.37
   5  -9  -5   25.95    2.18
   5  -9  -5   22.56    3.96
   5   9  -5   27.80    4.20
   5   9  -5   28.66    3.57
   5  -9  -4  271.14    9.33
   5  -9  -4  278.49   12.94
   5   9  -4  272.67   12.39
   5   9  -4  279.87   11.43
   5  -9  -3  148.87    6.92
   5  -9  -3  151.60    9.29
   5   9  -3  182.63    9.70
  -5   9   3  149.55    5.20
   5  -9  -3  161.76    9.35
   5   9  -3  159.07    8.05
   5  -9  -2  124.87    6.51
   5  -9  -2  132.14    8.09
   5   9  -2  157.06    8.82
  -5   9   2  129.20    5.09
   5  -9  -2  129.97    7.94
   5  -9  -1  208.40    9.21
   5  -9  -1  205.07   10.06
   5   9  -1  222.50   10.71
  -5   9   1  200.35    7.37
   5  -9  -1  219.06   10.28
   5  -9   0   48.00    4.53
   5  -9   0   43.45    4.41
  -5   9   0   52.63    3.66
   5   9   0   55.66    5.33
   5  -9   0   42.04    4.39
   5  -9   1  676.87   21.19
   5  -9   1  686.67   20.32
   5   9   1  641.70   21.71
  -5   9  -1  634.72   18.68
   5  -9   1  671.87   20.30
   5  -9   2    2.90    1.86
   5  -9   2    1.61    1.27
  -5   9  -2    4.63    1.64
   5   9   2    2.22    1.94
   5  -9   2    2.14    1.20
   5  -9   3  273.56   12.80
   5  -9   3  314.56   10.82
  -5   9  -3  290.73   11.51
   5   9   3  286.97   13.01
   5  -9   3  297.53   10.69
   5  -9   4   18.20    3.56
   5  -9   4   23.08    2.38
   5   9   4   27.48    4.17
  -5   9  -4   22.04    3.15
   5  -9   4   19.40    2.26
   5  -9   5  145.56    9.44
   5  -9   5  140.81    5.60
   5   9   5  154.67    9.41
   5  -9   5  144.50    5.59
   5  -9   6  141.28    9.51
   5  -9   6  129.63    4.10
   5   9   6  148.91    9.43
   5  -9   6  131.85    6.98
   5  -9   7   35.22    5.18
   5   9   7   32.67    4.52
   5  -9   7   33.48    3.81
   5  -9   8   10.05    3.15
   5   9   8   19.85    3.96
   5  -9   8   12.97    2.73
   5  -9   9   12.48    3.68
   5   9   9   17.98    3.99
   5  -9   9    9.57    2.85
   5  -9  10   25.02    4.64
   5   9  10   32.47    4.89
   5   9  10   31.80    4.37
   5  -9  10   28.34    4.31
   5  -9  11   24.68    5.15
   5   9  11   23.95    4.08
   5  -9  11   25.32    4.51
   5   9  12   49.88    6.17
   5   9  12   39.89    5.27
   5  -9  12   42.96    5.59
   5   9  13  115.73    9.58
   5  -9  13  112.63    9.30
   5  10 -14  103.11    8.89
   5 -10 -12  227.27   14.31
   5  10 -12  220.30   13.70
   5 -10 -11    1.53    2.62
   5  10 -11   -0.21    1.89
   5 -10 -10   41.90    5.98
   5  10 -10   47.36    5.92
   5 -10  -9    2.62    2.66
   5  10  -9    6.47    2.47
   5 -10  -8   50.02    6.11
   5  10  -8   43.15    5.42
   5 -10  -7  161.44   10.65
   5  10  -7  163.82    9.89
   5 -10  -6    1.37    2.44
   5  10  -6    6.23    2.51
   5 -10  -5  475.77   12.85
   5 -10  -5  484.67   18.80
   5  10  -5  468.33   17.89
   5 -10  -4   61.76    3.83
   5 -10  -4   70.05    6.44
   5  10  -4   75.30    6.41
   5  10  -4   65.21    5.25
   5 -10  -3    3.11    1.26
   5 -10  -3   -0.74    1.81
   5  10  -3    3.76    2.31
   5  10  -3    2.57    1.42
  -5  10   3    1.49    0.49
   5 -10  -2  303.94   11.30
   5 -10  -2  310.94   13.36
  -5  10   2  296.65    8.82
   5  10  -2  342.31   14.07
   5 -10  -2  300.36   13.16
   5 -10  -1   22.63    2.97
   5 -10  -1   17.22    3.03
   5  10  -1   21.69    3.69
  -5  10   1   18.74    1.92
   5 -10  -1   17.18    3.01
   5 -10   0 1073.85   29.91
   5 -10   0 1109.28   30.39
  -5  10   0 1023.54   26.90
   5  10   0 1136.54   31.80
   5 -10   0 1087.69   30.29
   5 -10   1    2.37    1.89
   5 -10   1    0.65    1.19
  -5  10  -1    2.45    1.27
   5  10   1   -0.15    1.74
   5 -10   1    0.53    1.21
   5 -10   2  560.07   19.30
   5 -10   2  592.54   17.57
  -5  10  -2  515.72   16.81
   5  10   2  562.18   19.88
   5 -10   2  553.27   17.22
   5 -10   3   33.02    4.49
   5 -10   3   34.69    3.26
  -5  10  -3   37.83    3.84
   5  10   3   32.66    4.44
   5 -10   3   31.07    3.09
   5 -10   4  588.00   21.44
   5 -10   4  614.80   17.05
  -5  10  -4  602.40   19.80
   5  10   4  615.94   21.69
   5 -10   4  601.60   16.91
   5 -10   5    7.13    2.70
   5 -10   5    3.57    0.91
   5  10   5    9.32    2.54
   5 -10   5    5.64    1.06
   5 -10   6  256.73   13.56
   5  10   6  275.41   13.46
   5 -10   7   99.87    8.31
   5  10   7  111.40    8.33
   5 -10   7  104.20    6.55
   5 -10   8   21.13    3.96
   5  10   8   25.77    4.33
   5 -10   8   21.49    3.40
   5 -10   9   60.50    6.96
   5  10   9   68.01    6.83
   5 -10   9   65.56    5.80
   5 -10  10    5.43    3.18
   5  10  10    2.98    2.54
   5  10  10    4.37    2.27
   5 -10  10    6.04    2.56
   5 -10  11   65.43    7.59
   5  10  11   63.66    7.06
   5 -10  11   68.71    6.76
   5  10  11   59.96    6.32
   5  10  12   77.95    7.72
   5 -10  12   65.18    6.77
   5  10  12   61.92    6.66
   5  10  13   62.76    6.70
   5 -10  13   64.17    7.07
   5  11 -14    7.34    3.37
   5  11 -12   46.89    6.13
   5 -11 -11    5.18    3.17
   5  11 -11    8.95    2.78
   5 -11 -10  252.41   14.91
   5  11 -10  227.67   13.23
   5 -11  -9    4.23    2.34
   5  11  -9    8.18    2.92
   5 -11  -8  243.47   13.76
   5  11  -8  231.56   12.58
   5 -11  -7   11.83    3.54
   5  11  -7    2.46    1.92
   5  11  -6  397.11   16.84
   5 -11  -6  469.08   18.80
   5 -11  -5    5.68    1.06
   5  11  -5    9.61    2.80
   5 -11  -5   12.61    3.22
   5 -11  -4  524.98   15.05
   5 -11  -4  550.71   20.15
   5  11  -4  539.93   19.67
   5 -11  -3   78.91    4.85
   5 -11  -3   81.33    6.71
   5  11  -3   91.53    7.08
  -5  11   3   79.32    3.22
   5 -11  -2  150.39    7.26
   5 -11  -2  166.05    9.29
  -5  11   2  147.31    4.98
   5  11  -2  176.11    9.70
   5 -11  -2  149.60    8.76
   5 -11  -1  204.76    9.30
   5 -11  -1  212.55   10.41
   5  11  -1  231.21   11.27
  -5  11   1  206.57    7.13
   5 -11  -1  221.55   10.51
   5 -11   0   28.24    3.70
   5 -11   0   31.77    3.97
  -5  11   0   34.37    2.85
   5  11   0   42.26    4.77
   5 -11   0   33.40    3.79
   5 -11   1    1.68    1.88
   5 -11   1    0.05    1.27
  -5  11  -1    3.06    1.35
   5  11   1   -2.92    2.36
   5 -11   1    0.44    1.05
   5 -11   2    0.90    1.69
   5 -11   2   -0.51    1.29
  -5  11  -2   -0.11    1.01
   5  11   2    1.75    1.82
   5 -11   2   -0.45    1.02
   5 -11   3    2.77    2.09
   5 -11   3    5.26    1.79
   5  11   3    8.71    2.89
  -5  11  -3    6.21    1.85
   5 -11   3    5.05    1.48
   5 -11   4   71.94    6.55
   5 -11   4   71.33    4.25
  -5  11  -4   73.17    5.59
   5  11   4   84.18    6.98
   5 -11   4   66.28    4.00
   5 -11   5    5.74    2.70
   5  11   5    0.98    2.08
   5 -11   5    2.34    0.87
   5 -11   6  286.65   14.51
   5  11   6  305.63   14.36
   5 -11   7    0.78    2.35
   5  11   7    1.83    1.92
   5 -11   8  546.90   22.42
   5  11   8  546.84   21.22
   5 -11   9    1.67    2.12
   5  11   9    6.25    2.99
   5 -11   9    0.77    1.86
   5 -11  10  175.96   12.36
   5  11  10  171.96   11.29
   5  11  10  156.98   10.44
   5 -11  10  166.25   10.06
   5  11  11   28.84    5.02
   5  11  11   34.01    5.02
   5 -11  11   33.70    4.94
   5 -11  12  257.11   13.93
   5  11  12  222.49   13.15
   5  11  13   44.64    5.74
   5 -11  13   45.21    6.02
   5 -12 -11   53.57    6.95
   5  12 -11   48.31    6.33
   5 -12 -10  141.48   11.11
   5  12 -10  123.07    9.57
   5 -12  -9   61.61    7.40
   5  12  -9   60.23    6.43
   5 -12  -8    2.79    2.68
   5  12  -8   -0.31    2.06
   5 -12  -7   65.19    7.10
   5  12  -7   86.76    7.34
   5 -12  -6    0.95    2.15
   5  12  -6    6.74    2.92
   5 -12  -5    4.27    0.81
   5  12  -5    7.81    2.64
   5 -12  -5    5.04    2.54
   5 -12  -4    0.33    0.86
   5 -12  -4    3.20    2.27
   5  12  -4    1.10    1.71
   5 -12  -3   66.80    4.37
   5 -12  -3   69.15    6.25
   5  12  -3   63.24    6.13
  -5  12   3   63.33    3.18
   5 -12  -2    4.63    1.49
   5 -12  -2    7.48    2.31
   5  12  -2    4.47    1.96
  -5  12   2    4.67    0.70
  -5  12   2    6.38    1.12
   5 -12  -1   33.80    3.66
   5 -12  -1   34.14    4.18
   5  12  -1   42.13    5.00
  -5  12   1   33.16    2.30
   5 -12  -1   35.46    4.14
   5 -12   0   40.59    4.10
   5 -12   0   35.45    3.97
   5  12   0   37.39    4.51
  -5  12   0   37.63    2.85
   5 -12   0   44.48    4.32
   5 -12   1   20.12    3.36
   5 -12   1   24.44    3.34
  -5  12  -1   22.63    2.50
   5  12   1   24.00    4.01
   5 -12   1   23.22    3.05
   5 -12   2   37.93    4.41
   5 -12   2   37.60    3.61
   5  12   2   38.12    4.50
  -5  12  -2   37.14    3.37
   5 -12   2   38.65    3.62
   5 -12   3  107.55    7.92
   5 -12   3  130.77    6.54
  -5  12  -3  125.21    7.13
   5  12   3  131.68    8.76
   5 -12   3  110.38    5.97
   5 -12   4   12.06    3.25
   5  12   4   14.51    3.39
  -5  12  -4   19.99    3.03
   5 -12   4   12.65    1.86
   5 -12   5   87.81    7.62
   5  12   5  105.80    8.02
   5 -12   5   95.76    4.14
   5 -12   6    8.49    2.55
   5  12   6   15.22    3.51
   5 -12   7  203.88   12.40
   5  12   7  192.89   11.38
   5 -12   8    0.12    2.57
   5  12   8    2.81    2.14
   5 -12   9   64.17    7.27
   5  12   9   70.16    6.85
   5 -12  10    2.52    2.99
   5  12  10    7.37    3.13
   5 -12  10    0.52    2.26
   5  12  10    6.69    3.20
   5  12  11    0.30    2.43
   5  12  11    6.84    3.19
   5 -12  11    6.60    2.85
   5  12  12    2.46    2.29
   5 -12  12    0.59    2.26
   5  13 -11    3.37    2.55
   5 -13 -10   60.30    7.43
   5  13 -10   67.24    7.25
   5 -13  -9   -1.51    2.38
   5  13  -9    1.80    2.22
   5 -13  -8   56.89    6.78
   5  13  -8   57.22    6.25
   5 -13  -7   24.22    4.70
   5  13  -7   17.89    3.68
   5  13  -6  197.24   11.48
   5 -13  -6  204.90   11.98
   5 -13  -5   37.11    2.10
   5  13  -5   36.14    4.90
   5 -13  -5   29.43    4.72
   5 -13  -4    1.33    0.90
   5 -13  -4    3.12    1.95
   5  13  -4   -1.71    2.20
   5 -13  -3   26.74    2.83
   5 -13  -3   27.01    4.12
   5  13  -3   23.04    3.84
  -5  13   3   24.17    2.09
   5 -13  -2  109.51    6.26
   5 -13  -2  114.39    7.86
   5  13  -2  128.62    8.66
  -5  13   2  103.70    4.60
   5 -13  -1  250.55   10.60
   5 -13  -1  251.41   11.84
   5  13  -1  252.34   12.46
  -5  13   1  247.73    7.49
   5 -13  -1  244.66   11.58
   5 -13   0    3.61    1.94
   5 -13   0    3.11    1.70
  -5  13   0    3.52    1.14
   5  13   0    4.53    2.41
   5 -13   0    4.57    1.71
   5 -13   1   37.34    4.05
   5 -13   1   37.78    3.97
   5  13   1   40.49    4.82
  -5  13  -1   35.61    3.04
   5 -13   1   35.13    3.75
   5 -13   2    0.99    1.73
   5 -13   2    0.90    1.21
  -5  13  -2    0.41    1.16
   5  13   2   -2.27    2.38
   5 -13   2   -0.05    1.09
   5 -13   3   63.61    6.03
   5 -13   3   65.47    4.56
  -5  13  -3   62.41    4.92
   5  13   3   58.39    5.81
   5 -13   3   67.14    4.54
   5 -13   4   21.93    4.01
  -5  13  -4   25.81    3.44
   5  13   4   29.55    4.65
   5 -13   4   27.97    2.66
   5 -13   5   14.14    3.34
   5  13   5   20.99    3.81
   5 -13   6   61.59    6.63
   5  13   6   70.38    6.66
   5 -13   7    3.39    2.93
   5  13   7    4.22    2.19
   5 -13   8  115.93    9.62
   5  13   8  111.11    8.74
   5 -13   9   56.35    7.13
   5  13   9   52.98    6.39
   5  13  10   34.31    5.14
   5  13  10   32.25    5.00
   5  13  11   16.20    3.63
   5  13  12    9.68    3.05
   5 -14 -10  176.43   12.67
   5  14 -10  182.22   12.08
   5 -14  -9    2.81    2.27
   5  14  -9    3.48    2.78
   5 -14  -8    3.71    2.58
   5  14  -8    3.91    2.51
   5 -14  -7   62.35    6.91
   5  14  -7   58.08    6.27
   5 -14  -6   33.90    5.38
   5  14  -6   31.12    4.80
   5  14  -5   67.29    6.37
   5 -14  -5   62.58    6.41
   5 -14  -4   26.45    2.33
   5  14  -4   21.26    3.91
   5 -14  -4   25.22    4.26
   5 -14  -3    1.17    1.09
   5 -14  -3    2.31    2.13
   5  14  -3    2.61    2.14
   5 -14  -2  361.72   12.98
   5 -14  -2  354.46   15.50
   5  14  -2  389.36   16.34
  -5  14   2  344.62   10.93
   5 -14  -1  105.65    6.49
   5 -14  -1  100.61    7.31
   5  14  -1  107.70    8.00
  -5  14   1   93.17    4.70
   5 -14   0  134.60    7.92
   5 -14   0  132.28    8.13
   5  14   0  138.77    9.09
  -5  14   0  132.09    5.48
   5 -14   0  129.13    7.88
   5 -14   1   39.07    4.63
   5 -14   1   35.87    4.15
  -5  14  -1   47.96    3.51
   5  14   1   49.11    5.40
   5 -14   1   38.61    4.11
   5 -14   2  287.25   13.16
   5 -14   2  311.15   11.93
  -5  14  -2  280.19   10.71
   5  14   2  278.56   13.55
   5 -14   2  285.85   11.42
   5 -14   3   -2.54    2.17
   5  14   3    0.40    2.09
  -5  14  -3   -0.57    1.28
   5 -14   3    0.91    1.10
   5 -14   4  384.90   17.02
  -5  14  -4  394.17   14.91
   5  14   4  409.07   17.39
   5 -14   4  402.48   12.60
   5 -14   5   14.17    3.46
   5  14   5   11.95    3.05
   5 -14   6   93.71    8.46
   5  14   6  100.23    8.07
   5 -14   7   24.39    4.71
   5  14   7   32.36    4.85
   5 -14   8    1.27    2.22
   5  14   8    2.27    2.06
   5 -14   9   29.47    5.19
   5  14   9   36.67    5.21
   5  14  10    8.14    3.34
   5  14  10   -1.19    2.09
   5  14  11   47.36    6.17
   5 -15  -9   47.92    6.55
   5  15  -9   45.05    6.15
   5 -15  -8  164.54   11.86
   5  15  -8  171.17   11.29
   5 -15  -7   -0.47    2.45
   5  15  -7    1.42    2.05
   5 -15  -6   28.87    4.66
   5  15  -6   24.62    4.30
   5  15  -5   24.66    4.16
   5 -15  -5   23.47    4.43
   5  15  -4  114.20    8.57
   5 -15  -4  105.01    8.49
   5 -15  -3  121.36    6.11
   5  15  -3  122.45    8.99
   5 -15  -3  118.41    8.67
   5 -15  -2  296.00   11.56
   5  15  -2  319.87   14.80
   5 -15  -2  295.97   14.07
   5 -15  -1  369.50   14.17
   5 -15  -1  380.59   16.04
   5  15  -1  412.56   17.07
   5 -15   0   76.68    6.00
   5 -15   0   77.35    6.33
   5  15   0   83.10    7.04
   5 -15   0   71.73    5.92
   5 -15   1  486.13   18.33
   5 -15   1  542.37   18.32
   5  15   1  534.92   20.03
   5 -15   1  494.88   17.54
   5 -15   2    0.37    1.64
   5  15   2   -3.36    2.37
   5 -15   2    1.30    1.37
   5 -15   3  472.80   18.95
   5  15   3  479.36   19.28
   5 -15   3  481.51   15.54
   5 -15   4   30.60    4.90
   5  15   4   39.27    5.08
   5 -15   5  159.16   10.84
   5  15   5  184.71   11.28
   5 -15   6   94.65    8.58
   5  15   6   93.93    8.00
   5 -15   7   52.13    6.78
   5  15   7   47.72    5.79
   5 -15   8  109.34   10.46
   5  15   8   92.97    8.15
   5  15   9    4.17    2.71
   5  15  10   86.04    8.35
   5 -16  -9  168.54   12.59
   5 -16  -8   12.72    3.84
   5  16  -8   11.79    3.45
   5 -16  -7  218.10   13.71
   5  16  -7  209.02   12.57
   5 -16  -6   49.43    6.39
   5  16  -6   48.28    6.01
   5  16  -5  215.56   12.44
   5 -16  -5  241.26   13.59
   5  16  -4   19.49    3.81
   5 -16  -4    9.96    3.16
   5 -16  -3  153.57    7.07
   5  16  -3  162.19   10.61
   5 -16  -3  160.04   10.35
   5 -16  -2   19.22    2.77
   5  16  -2   18.32    3.90
   5 -16  -2   21.40    4.00
   5 -16  -1   27.00    3.36
   5  16  -1   34.59    4.80
   5 -16  -1   26.51    4.18
   5 -16   0    1.16    1.41
   5  16   0    3.92    2.48
   5 -16   0    3.44    1.93
   5 -16   1    6.45    2.46
   5  16   1    6.61    2.71
   5 -16   1    4.48    1.87
   5 -16   2    3.68    2.16
   5  16   2    3.96    2.03
   5 -16   2    2.61    1.53
   5 -16   3   22.90    4.02
   5  16   3   22.37    4.37
   5 -16   3   20.24    2.64
   5 -16   4    2.75    2.22
   5  16   4    0.33    2.07
   5 -16   5   79.56    7.58
   5  16   5   80.58    7.48
   5 -16   6   10.11    3.35
   5  16   6   16.78    3.50
   5 -16   7  154.14   11.26
   5  16   7  150.13   10.48
   5 -16   8   14.15    4.17
   5  16   8   17.86    3.88
   5  16   9  357.62   17.30
   5 -17  -8   74.74    8.25
   5 -17  -7    2.77    2.38
   5  17  -7    4.23    2.56
   5  17  -6   78.97    7.59
   5 -17  -6  107.23    9.27
   5  17  -5    0.77    2.20
   5 -17  -5   -1.89    2.49
   5  17  -4   95.17    8.39
   5 -17  -4   96.25    8.36
   5  17  -3  108.21    8.64
   5 -17  -3   96.19    8.27
   5 -17  -2   34.47    3.40
   5  17  -2   27.45    4.51
   5 -17  -2   28.87    4.35
   5 -17  -1   64.83    5.18
   5  17  -1   67.13    6.67
   5 -17  -1   59.33    6.03
   5 -17   0   22.87    3.37
   5  17   0   30.94    4.87
   5 -17   0   23.71    3.81
   5 -17   1   82.49    6.65
   5  17   1   78.13    7.12
   5 -17   1   82.18    6.23
   5 -17   2   37.64    4.78
   5  17   2   35.12    4.90
   5 -17   2   36.12    3.94
   5 -17   3   28.03    4.34
   5  17   3   19.68    3.85
   5 -17   4   45.49    5.90
   5  17   4   45.95    5.70
   5 -17   5   14.94    3.72
   5  17   5   19.48    3.98
   5 -17   6   48.85    6.23
   5  17   6   50.14    6.12
   5 -17   7    9.71    3.59
   5  17   7    3.45    1.95
   5  17   8   80.23    7.81
   5 -18  -7   55.58    7.24
   5  18  -6    0.94    1.93
   5 -18  -6    0.53    2.33
   5  18  -5  104.15    8.75
   5 -18  -5  117.99    9.59
   5  18  -4  116.88    9.33
   5 -18  -4  106.16    9.07
   5  18  -3   23.74    4.50
   5 -18  -3   16.13    3.72
   5  18  -2   13.11    3.41
   5 -18  -2    9.08    2.70
   5 -18  -1   22.93    3.22
   5  18  -1   29.95    4.76
   5 -18  -1   23.71    3.91
   5 -18   0  101.72    7.14
   5  18   0  102.00    8.32
   5 -18   0  103.03    7.48
   5 -18   1   -0.90    1.94
   5  18   1    0.66    1.95
   5 -18   1    1.18    1.35
   5 -18   2  104.30    7.92
   5  18   2  119.03    8.99
   5 -18   3    0.50    1.94
   5  18   3    3.11    2.19
   5 -18   4   -1.54    2.52
   5  18   4    0.20    1.92
   5 -18   5    4.79    2.69
   5  18   5   -2.16    2.16
   5 -18   6    4.01    2.54
   5  18   6    2.50    2.27
   5 -18   7   13.61    3.88
   5  18   7   10.75    3.24
   5 -19  -6   13.74    3.74
   5  19  -5   22.28    4.48
   5 -19  -5   24.70    5.04
   5  19  -4    6.52    2.99
   5 -19  -4    5.49    2.74
   5  19  -3  108.13    9.07
   5 -19  -3   92.81    8.29
   5  19  -2   43.76    5.70
   5 -19  -2   43.13    5.49
   5  19  -1  194.95   12.04
   5 -19  -1  195.74   11.42
   5 -19   0   16.72    3.10
   5  19   0   24.48    4.41
   5 -19   0   21.36    3.61
   5 -19   1  538.96   20.30
   5  19   1  560.55   22.27
   5 -19   1  584.97   20.12
   5 -19   2    1.47    1.88
   5  19   2   -0.83    2.03
   5 -19   3  217.08   12.48
   5  19   3  220.42   12.81
   5 -19   4    4.35    2.66
   5  19   4    3.03    2.17
   5 -19   5   69.13    7.37
   5  19   5   71.86    7.41
   5 -19   6    1.22    2.00
   5  19   6    1.30    1.95
   5 -20  -6    7.22    2.96
   5 -20  -5  214.02   13.58
   5 -20  -4   14.46    3.45
   5  20  -3   64.36    7.05
   5 -20  -3   69.82    7.29
   5  20  -2   78.35    7.72
   5 -20  -2   83.29    7.64
   5  20  -1   45.64    5.96
   5 -20  -1   32.93    4.71
   5  20   0   49.63    5.99
   5 -20   0   40.97    4.98
   5 -20   1   24.92    3.95
   5  20   1   21.39    4.42
   5 -20   2  173.45   10.68
   5  20   2  172.54   11.26
   5 -20   3    3.48    2.77
   5  20   3    1.09    2.02
   5 -20   4   86.43    8.09
   5  20   4  110.64    9.10
   5 -20   5   54.97    6.54
   5  20   5   54.95    6.59
   5 -20   6   65.59    7.44
   5 -21  -5    1.87    2.61
   5 -21  -4  139.33   10.75
   5 -21  -3    6.57    2.95
   5 -21  -2   46.55    5.90
   5 -21  -1   -0.25    1.67
   5  21   0    8.87    3.16
   5  21   1   39.45    5.60
   5 -21   2    1.20    1.79
   5  21   2    7.64    2.96
   5 -21   3    7.83    3.02
   5  21   3    7.61    3.01
   5 -21   4   54.30    6.60
   5 -21   5   16.07    3.92
   5 -22  -4   31.55    5.23
   5 -22  -3    9.34    3.21
   5 -22  -2   36.04    5.55
   5 -22   3   11.38    3.23
   5 -22   4   55.80    6.64
   5 -23  -3   57.38    6.91
   6   0 -13    4.79    2.30
  -6   0  13    1.70    1.73
   6   0 -12    1.19    2.65
   6   0 -12    2.95    1.96
  -6   0  12   -0.96    1.86
   6   0 -11   -0.93    2.73
   6   0 -11   -1.58    1.70
   6   0 -10   69.84    5.80
   6   0 -10   85.62    8.09
   6   0  -9    2.29    1.80
   6   0  -9    4.79    2.89
   6   0  -8  135.72    7.24
   6   0  -8  141.21    8.04
   6   0  -7   -1.59    1.18
   6   0  -7    0.09    1.37
   6   0  -6  178.56    9.02
   6   0  -5    1.66    1.90
   6   0  -4  589.83   19.01
  -6   0   4  592.33   18.68
   6   0  -3   -1.70    1.73
  -6   0   3    0.27    1.12
  -6   0   2  863.85   25.31
   6   0  -2  897.17   25.92
   6   0  -1    1.54    1.69
  -6   0   1   -0.89    1.20
   6   0   0   13.89    2.66
   6   0   0   11.23    1.07
  -6   0   0   14.75    2.56
  -6   0  -1    0.49    1.24
   6   0   1   -1.40    2.01
   6   0   2    3.35    2.02
   6   0   3    2.53    1.68
   6   0   4    8.16    2.83
   6   0   5    0.53    1.91
   6   0   6   78.65    6.97
   6   0   7   -2.31    2.28
   6   0   7   -0.79    0.97
   6   0   7   -1.83    2.12
   6   0   8  170.71   11.31
   6   0   9   -1.78    2.30
   6   0  10  587.57   23.98
   6   0  11   -2.79    2.26
   6   1 -14   98.98    8.01
   6   1 -13   40.08    6.04
   6  -1 -13   30.41    4.23
   6   1 -13   36.46    4.86
  -6  -1  13   35.28    4.81
   6   1 -12  305.80   16.23
   6  -1 -12  304.60   16.27
   6  -1 -12  274.80   12.75
   6   1 -12  264.79   13.15
  -6   1  12  288.84   12.63
   6   1 -11   13.88    4.00
   6  -1 -11   14.73    4.08
  -6   1  11   12.44    2.43
   6  -1 -11   14.03    2.88
   6   1 -11   11.89    2.96
   6  -1 -10  158.48    8.78
   6   1 -10  144.21    8.81
   6  -1 -10  192.18   11.95
   6   1 -10  186.80   11.76
   6   1  -9   46.82    4.34
   6   1  -9   51.53    5.00
   6  -1  -9   49.95    4.68
   6  -1  -9   54.94    6.53
   6   1  -9   61.95    6.90
   6  -1  -8   56.60    4.32
   6   1  -8   55.69    4.63
   6  -1  -8   60.46    6.57
   6  -1  -8   54.58    4.87
   6   1  -8   56.26    5.06
   6   1  -7   94.72    6.07
   6  -1  -7  102.39    6.54
   6   1  -7   98.88    6.69
   6  -1  -7   95.26    5.74
   6  -1  -6   10.02    2.28
   6   1  -6   10.28    2.63
   6  -1  -5  109.95    6.67
   6   1  -5  120.71    7.24
   6  -1  -4    2.33    1.60
   6   1  -4    1.75    1.75
  -6   1   4   -0.20    1.12
  -6  -1   4    0.21    1.20
   6  -1  -3  229.48   10.02
   6   1  -3  236.87   10.48
  -6   1   3  213.11    9.45
  -6  -1   3  225.10   10.03
  -6   1   2   52.13    4.52
   6  -1  -2   55.46    4.79
   6   1  -2   56.29    4.97
  -6  -1   2   57.98    4.86
  -6  -1   1  204.76    9.57
   6  -1  -1  216.68    9.94
   6   1  -1  208.09   10.01
  -6   1   1  207.66    9.36
   6   1  -1  198.67    6.20
  -6   1   0  192.75    9.20
   6  -1   0  201.34    9.77
  -6  -1   0  198.50    9.51
   6   1   0  207.16   10.13
   6  -1   1   -0.98    1.77
  -6   1  -1   -0.50    1.08
   6   1   1   -1.67    1.95
   6  -1   2  107.88    7.18
   6   1   2  106.33    7.27
   6  -1   3    8.75    2.51
   6   1   3   15.18    3.11
   6   1   4  977.37   29.88
   6  -1   4  989.40   29.70
   6   1   5   50.21    5.46
   6  -1   5   51.61    5.54
   6  -1   6  251.62   13.23
   6  -1   6  229.12   12.35
   6   1   6  244.62   12.61
   6  -1   7   97.21    8.26
   6   1   7   95.38    7.84
   6   1   7   90.34    5.98
   6  -1   7   85.85    5.45
   6   1   8  109.58    8.94
   6  -1   8  105.72    9.25
   6  -1   9  120.00    9.65
   6   1   9  122.08    9.76
   6   1  10   12.75    3.96
   6  -1  10   14.90    4.35
   6  -1  11  129.68   10.45
   6   1  11  126.01   10.18
   6   2 -14    2.42    2.21
   6   2 -13  277.01   15.58
   6   2 -13  220.43   12.48
   6   2 -12    6.63    3.12
   6  -2 -12   -0.27    2.32
   6   2 -12   -0.27    2.07
   6  -2 -12    2.68    1.70
   6  -2 -11  177.00   11.79
   6   2 -11  169.95   11.50
   6  -2 -11  156.71    8.73
   6   2 -11  151.21    9.56
  -6   2  11  165.00    8.43
   6   2 -10    5.19    2.76
   6  -2 -10    5.19    2.58
   6  -2 -10    2.21    1.54
  -6   2  10    2.83    1.62
   6   2 -10    1.76    1.67
   6  -2  -9   46.39    6.00
   6  -2  -9   43.39    4.24
   6   2  -9   39.42    4.46
   6  -2  -8    6.37    1.52
   6   2  -8    6.68    1.97
   6   2  -8    6.73    2.14
   6  -2  -8    6.16    1.95
   6  -2  -8    8.18    3.03
   6  -2  -7    1.09    1.01
   6   2  -7    2.57    1.40
   6  -2  -7    7.56    3.34
   6  -2  -7    1.39    1.39
   6   2  -7    4.99    2.27
   6  -2  -6   24.91    4.40
   6   2  -6   21.51    3.36
   6  -2  -6   21.36    3.01
   6   2  -5   20.58    3.24
   6  -2  -5   22.94    3.01
   6   2  -4    5.71    2.11
   6  -2  -4    4.47    1.85
  -6   2   4    1.74    1.10
  -6  -2   4    4.17    1.77
   6  -2  -3   53.99    4.60
   6   2  -3   50.07    4.79
  -6   2   3   47.78    4.16
  -6  -2   3   54.61    4.74
   6   2  -2   32.33    3.84
  -6  -2   2   37.77    3.95
   6  -2  -2   34.65    3.74
  -6   2   2   32.82    3.44
   6   2  -2   31.42    2.25
   6  -2  -1   47.91    4.44
  -6   2   1   46.33    4.08
   6   2  -1   50.18    5.12
   6   2  -1   48.41    2.81
  -6   2   0   91.17    5.91
   6  -2   0   93.35    6.29
   6   2   0   95.60    6.68
   6  -2   1  152.27    8.33
   6   2   1  161.73    9.01
  -6   2  -1  147.45    7.97
   6  -2   2    4.79    2.22
  -6   2  -2    3.63    1.80
   6   2   2    5.98    2.32
   6  -2   3  368.68   14.64
   6   2   3  363.71   14.98
   6  -2   4    2.33    1.96
   6   2   4    7.29    2.55
   6  -2   5  623.59   22.45
   6   2   5  592.87   21.47
   6  -2   5  604.21   21.51
   6  -2   6    0.66    1.86
   6   2   6    3.42    1.99
   6  -2   6    2.31    2.28
   6  -2   7   74.22    7.08
   6   2   7   69.69    6.85
   6   2   7   62.10    5.11
   6  -2   8    4.98    2.79
   6   2   8    3.64    2.49
   6   2   8    2.57    2.51
   6   2   9   -1.66    2.14
   6  -2   9    2.96    3.24
   6  -2  10   34.41    5.11
   6   2  10   40.88    5.73
   6   2  11   21.78    4.65
   6  -2  11   17.71    4.58
   6   3 -14   55.68    6.36
   6   3 -13    6.74    3.58
   6   3 -13    0.39    1.97
   6   3 -12  174.14   11.88
   6  -3 -12  164.06   11.79
   6   3 -12  147.93    9.92
   6   3 -11   34.32    5.50
   6  -3 -11   35.59    5.85
   6  -3 -11   23.61    3.29
   6   3 -11   19.98    3.80
  -6   3  11   36.77    3.95
   6  -3 -10   35.01    5.51
   6  -3 -10   35.35    3.80
  -6   3  10   39.56    3.64
   6   3 -10   33.39    4.33
   6  -3  -9   23.82    4.58
   6  -3  -9   24.62    3.27
  -6   3   9   18.73    2.42
   6   3  -9   20.73    3.45
   6  -3  -8   22.20    3.08
   6   3  -8   23.10    3.65
   6  -3  -8   22.50    4.62
   6  -3  -7    0.01    0.92
   6   3  -7    1.31    1.19
   6   3  -7    0.60    2.00
   6  -3  -7    1.82    1.33
   6  -3  -7    3.70    2.39
   6   3  -6    4.03    1.71
   6  -3  -6    0.52    2.44
   6   3  -6    0.37    1.54
   6  -3  -6    2.68    1.57
   6  -3  -5    4.73    2.84
   6  -3  -5    1.53    1.26
   6   3  -5    3.10    2.15
   6   3  -4   57.67    5.36
   6  -3  -4   52.67    4.51
  -6   3   4   56.59    4.28
   6  -3  -3   25.96    2.99
   6   3  -3   26.10    3.60
  -6   3   3   23.19    2.69
   6  -3  -2   55.63    4.68
  -6   3   2   52.17    4.27
   6   3  -2   52.48    5.02
   6   3  -2   55.07    3.41
   6  -3  -1   51.32    4.46
  -6   3   1   46.40    3.93
   6   3  -1   53.72    5.04
   6   3  -1   53.81    3.20
   6  -3   0  543.02   18.17
   6   3   0  564.91   19.27
  -6   3   0  540.97   17.57
  -6   3  -1   33.10    3.60
   6  -3   1   27.99    3.60
   6   3   1   31.15    4.03
   6  -3   2  628.56   20.00
  -6   3  -2  652.18   20.01
   6   3   2  660.19   21.36
   6  -3   2  574.77   13.66
   6  -3   3    4.78    2.20
   6   3   3    8.33    2.62
   6  -3   4   40.41    4.67
   6   3   4   40.17    4.80
   6  -3   4   39.38    4.69
   6  -3   5   54.80    6.15
   6   3   5   48.53    5.55
   6  -3   5   54.78    5.73
   6  -3   6  183.71   11.27
   6   3   6  196.47   11.15
   6  -3   7   48.99    5.84
   6   3   7   45.64    5.60
   6   3   7   37.73    4.14
   6  -3   8   20.27    4.31
   6   3   8   21.17    4.27
   6   3   9    1.29    2.62
   6  -3   9    5.65    2.76
   6   3  10   -2.48    2.58
   6  -3  10    1.88    2.53
   6  -3  11    1.33    2.16
   6   3  11    4.34    3.02
   6   4 -14    0.16    1.83
   6   4 -13  107.67    9.51
   6   4 -13  102.32    8.41
   6   4 -12   32.09    5.73
   6  -4 -12   20.31    4.50
   6   4 -12   16.12    3.56
   6  -4 -11   73.38    7.69
   6   4 -11   78.66    7.75
   6   4 -11   62.24    6.21
   6  -4 -10   42.23    6.21
   6  -4 -10   37.30    3.84
  -6   4  10   44.30    3.97
   6   4 -10   32.33    4.56
   6  -4  -9  160.30   10.87
   6   4  -9  139.95    8.95
   6  -4  -9  146.62    7.59
  -6   4   9  149.54    6.84
   6  -4  -8   97.65    8.56
   6   4  -8   86.07    6.79
   6  -4  -8   89.67    5.68
   6  -4  -7   63.20    6.77
   6  -4  -7   56.69    4.42
   6   4  -7   62.73    5.74
   6  -4  -7   57.09    3.92
   6  -4  -6  103.75    8.27
   6   4  -6  111.10    7.52
   6  -4  -6  102.24    5.88
   6  -4  -5    9.31    3.40
   6  -4  -5    7.00    1.89
   6   4  -5    9.90    2.92
   6  -4  -4  174.81   10.02
   6   4  -4  157.55    8.92
   6  -4  -4  173.74    7.83
  -6   4   4  156.59    7.25
   6  -4  -3    2.56    2.26
   6  -4  -3   -0.16    1.31
   6   4  -3    1.54    2.00
   6   4  -3    1.86    1.15
  -6   4   3    0.30    1.06
   6  -4  -2   92.99    5.72
  -6   4   2   74.90    5.00
   6   4  -2   90.84    6.51
   6   4  -2   89.15    4.67
   6  -4  -1    0.13    1.30
  -6   4   1    0.98    1.08
   6  -4   0  155.67    8.21
   6   4   0  174.03    9.52
  -6   4   0  162.39    7.94
   6  -4   1  514.06   17.50
   6   4   1  536.28   18.92
  -6   4  -1  515.09   17.23
   6  -4   2    9.52    2.79
   6  -4   2    5.92    2.28
  -6   4  -2    6.08    1.89
   6   4   2    6.81    2.61
   6  -4   3   39.97    4.85
   6  -4   3   41.38    4.50
   6   4   3   33.32    4.31
   6  -4   3   37.72    2.21
   6  -4   4   30.53    4.82
   6  -4   4   34.04    4.45
   6   4   4   26.68    4.21
   6  -4   4   27.70    2.59
   6  -4   5   36.29    4.90
   6   4   5   38.36    4.85
   6  -4   6  116.57    9.07
   6   4   6  117.51    8.72
   6  -4   7  169.29   11.14
   6   4   7  171.91   10.90
   6  -4   8  169.07   11.36
   6   4   8  169.98   11.04
   6  -4   9   44.30    6.14
   6   4   9   49.86    6.19
   6   4  10  161.26   11.39
   6  -4  10  180.52   12.26
   6   4  11   10.39    3.56
   6  -4  11    4.92    2.67
   6   5 -14   10.74    3.16
   6   5 -13    3.55    2.99
   6   5 -12   44.88    6.05
   6  -5 -12   40.01    5.79
   6   5 -12   33.28    5.00
   6  -5 -11   36.06    5.82
   6   5 -11   37.75    5.15
   6  -5 -10  121.78    9.71
   6   5 -10   92.98    7.70
   6  -5  -9  152.82   11.14
   6  -5  -9  166.72    7.87
   6   5  -9  156.95    9.82
  -6   5   9  185.69    7.62
   6  -5  -8   -0.89    1.12
  -6   5   8   -0.52    0.88
   6   5  -8    0.95    1.74
   6  -5  -7  440.98   18.82
   6  -5  -7  436.16   14.03
   6   5  -7  423.04   16.64
   6  -5  -7  408.04   12.79
   6  -5  -6   -2.81    2.19
   6  -5  -6   -1.95    1.39
   6   5  -6    0.57    1.92
   6  -5  -5  680.68   23.82
   6  -5  -5  661.33   19.25
   6   5  -5  646.00   22.12
   6  -5  -4    4.36    2.42
   6   5  -4    6.03    2.29
   6  -5  -4    2.60    1.33
   6   5  -4    8.16    1.84
  -6   5   4    5.20    1.40
   6  -5  -3  315.87   13.95
   6   5  -3  307.47   13.23
   6  -5  -3  316.62   11.48
   6   5  -3  328.06   11.06
  -6   5   3  285.99   10.63
   6  -5  -2   31.52    4.35
  -6   5   2   28.67    2.98
   6  -5  -2   23.34    2.90
   6   5  -2   31.63    3.95
   6   5  -2   24.05    2.53
   6  -5  -1  106.93    6.34
  -6   5   1   95.80    5.64
   6   5  -1  114.06    7.55
   6  -5  -1  111.19    7.53
   6   5   0   34.63    4.18
   6  -5   0   35.55    3.64
  -6   5   0   35.91    3.49
   6  -5   1  284.61   13.07
  -6   5  -1  308.86   11.94
   6   5   1  314.39   13.60
   6  -5   1  288.68   12.08
   6  -5   2   43.19    4.89
  -6   5  -2   44.02    4.15
   6  -5   2   43.70    4.42
   6   5   2   46.15    5.08
   6  -5   3   21.81    3.84
   6  -5   3   21.21    3.53
   6   5   3   20.12    3.81
   6  -5   4   22.40    3.87
   6   5   4   16.90    3.07
   6  -5   4   20.66    1.95
   6  -5   5   47.76    5.55
   6   5   5   49.38    5.82
   6  -5   5   49.42    3.71
   6  -5   6  132.37    9.51
   6   5   6  123.61    9.01
   6  -5   6  129.23    6.66
   6  -5   7  217.96   12.93
   6  -5   7  196.97    7.86
   6   5   7  217.40   12.39
   6  -5   7  217.97    9.75
   6  -5   8   14.54    4.09
   6   5   8    9.00    3.25
   6  -5   8    9.02    2.52
   6  -5   9  350.71   17.55
   6   5   9  355.13   17.15
   6   5  10    0.44    2.05
   6  -5  10    3.75    2.88
   6   5  11  376.21   18.53
   6  -5  12   12.73    3.74
   6  -5  13  223.51   13.27
   6   6 -13   52.50    6.40
   6   6 -12    7.37    2.88
   6  -6 -11  139.45   10.68
   6   6 -11  120.86    9.02
   6  -6 -10    0.31    2.33
   6   6 -10    3.51    2.38
   6  -6  -9  105.51    9.04
   6   6  -9   84.86    7.26
   6  -6  -8   95.86    8.61
   6   6  -8   89.20    7.22
   6  -6  -8  100.36    5.40
  -6   6   8   98.42    4.70
   6  -6  -7   81.84    7.91
   6   6  -7   85.48    6.85
   6  -6  -7   78.56    4.73
   6  -6  -6  190.17   11.39
   6  -6  -6  178.47    7.57
   6   6  -6  179.75   10.11
   6  -6  -5   13.22    3.27
   6   6  -5    2.91    2.19
   6  -6  -5    8.59    1.83
   6  -6  -4   50.90    5.52
   6  -6  -4   49.77    3.69
   6   6  -4   48.00    4.96
  -6   6   4   46.94    3.43
   6   6  -4   44.50    3.77
   6  -6  -3   27.04    4.22
   6  -6  -3   25.28    3.17
   6   6  -3   31.62    4.24
   6  -6  -3   25.37    2.86
  -6   6   3   23.75    2.52
   6   6  -3   26.87    2.97
   6  -6  -2    9.97    2.97
   6  -6  -2   11.07    2.35
   6  -6  -2    6.74    1.74
   6   6  -2    8.03    2.65
  -6   6   2    9.07    1.73
   6   6  -2    7.23    1.74
   6  -6  -1  162.05    8.74
  -6   6   1  162.43    7.44
   6  -6  -1  151.28    7.57
   6   6  -1  170.56    9.61
   6  -6  -1  168.41    9.52
   6  -6   0   53.45    5.24
   6   6   0   58.64    5.52
  -6   6   0   47.87    4.01
   6  -6   0   55.96    4.58
   6  -6   0   61.00    5.35
   6  -6   1  420.81   16.31
  -6   6  -1  411.60   14.61
   6   6   1  440.42   16.90
   6  -6   1  413.83   15.04
   6  -6   1  439.39   15.80
   6  -6   2   23.23    3.71
  -6   6  -2   25.66    3.16
   6  -6   2   21.99    3.35
   6   6   2   20.47    3.56
   6  -6   2   21.32    3.14
   6  -6   3  668.14   22.90
   6  -6   3  691.13   20.48
   6   6   3  677.04   23.15
  -6   6  -3  612.99   20.71
   6  -6   4   17.37    3.69
   6  -6   4   23.26    2.96
   6   6   4   19.56    3.62
   6  -6   4   16.32    1.88
   6  -6   5  255.07   13.19
   6  -6   5  254.19    9.68
   6   6   5  224.43   12.21
   6  -6   5  244.64    8.97
   6  -6   6   42.95    5.50
   6  -6   6   45.61    3.56
   6   6   6   45.77    5.65
   6  -6   6   50.38    4.00
   6  -6   7  296.26   15.51
   6   6   7  283.06   14.49
   6  -6   7  298.87   11.84
   6  -6   8   62.07    7.00
   6   6   8   61.31    6.65
   6  -6   8   55.03    5.00
   6  -6   9   50.45    6.84
   6   6   9   55.85    6.58
   6  -6   9   56.88    5.52
   6  -6  10  105.14    9.32
   6   6  10  113.82    9.34
   6  -6  10  112.81    7.85
   6   6  11    3.12    2.06
   6  -6  11    4.74    2.68
   6  -6  12   19.56    3.96
   6   7 -13    2.15    2.15
   6   7 -12   27.16    4.53
   6  -7 -11    0.47    2.44
   6   7 -11    8.35    3.24
   6  -7 -10  167.95   11.67
   6   7 -10  159.84   10.37
   6  -7  -9    7.29    3.25
   6   7  -9    1.78    1.95
   6  -7  -8   55.55    6.65
   6   7  -8   49.89    5.54
   6  -7  -7    2.45    0.93
   6  -7  -7    1.78    1.05
   6   7  -7    2.11    1.96
   6  -7  -7    4.39    2.93
   6  -7  -6   -0.97    1.08
   6  -7  -6    0.90    1.95
   6  -7  -6    0.94    1.17
   6   7  -6    1.24    2.14
   6  -7  -5   15.84    2.19
   6  -7  -5   16.09    3.55
   6   7  -5   18.88    3.61
   6  -7  -5   17.15    2.11
   6   7  -5   19.90    2.87
   6  -7  -4   41.75    3.64
   6  -7  -4   34.15    4.57
   6  -7  -4   35.28    3.16
   6   7  -4   32.82    4.50
   6   7  -4   36.30    3.69
   6  -7  -3   28.44    3.24
   6  -7  -3   29.80    4.32
   6   7  -3   34.45    4.38
   6  -7  -3   27.46    2.76
  -6   7   3   21.49    2.27
   6   7  -3   30.39    3.17
   6  -7  -2  213.14    9.96
   6  -7  -2  229.80   11.66
   6   7  -2  234.86   11.59
  -6   7   2  218.09    8.56
   6  -7  -2  221.87    8.98
   6   7  -2  224.18    9.44
   6  -7  -1    4.82    2.04
   6  -7  -1   11.19    2.95
   6  -7  -1    6.17    1.81
   6   7  -1    8.24    2.76
  -6   7   1   10.31    2.06
   6  -7   0  204.34   10.28
  -6   7   0  209.49    8.97
   6   7   0  223.46   11.33
   6  -7   0  224.18    9.60
   6  -7   0  222.71   10.70
   6  -7   1   32.35    4.21
   6   7   1   26.50    4.20
  -6   7  -1   33.45    3.49
   6  -7   1   31.40    3.85
   6  -7   2  260.34   12.50
  -6   7  -2  262.97   11.01
   6   7   2  267.86   12.79
   6  -7   2  276.84   11.46
   6  -7   3    2.64    2.33
  -6   7  -3    0.02    1.17
   6   7   3    3.31    2.34
   6  -7   3    3.97    1.67
   6  -7   4  161.99   10.12
   6  -7   4  177.42    8.07
   6   7   4  171.86   10.33
   6  -7   5    6.31    2.93
   6  -7   5    1.71    1.08
   6   7   5    3.49    2.28
   6  -7   5    2.14    1.06
   6  -7   6    4.22    2.70
   6  -7   6    3.11    1.26
   6   7   6    6.03    2.64
   6  -7   6    1.45    1.18
   6  -7   7    3.05    2.31
   6   7   7    4.16    2.55
   6  -7   7    1.97    1.27
   6  -7   8   84.81    8.28
   6   7   8   78.82    7.58
   6  -7   8   85.64    6.19
   6  -7   9   -2.67    2.70
   6   7   9    5.32    3.06
   6  -7   9   -0.57    1.86
   6  -7  10    5.00    3.46
   6   7  10    2.50    2.68
   6  -7  10    2.63    2.16
   6   7  11    1.31    2.28
   6   7  11    3.68    2.17
   6  -7  11    2.19    2.21
   6   8 -12   13.27    3.54
   6  -8 -11   49.76    6.49
   6   8 -11   45.83    5.81
   6  -8 -10   72.01    7.81
   6   8 -10   66.25    6.95
   6  -8  -9   26.88    4.99
   6   8  -9   24.66    4.31
   6  -8  -8   44.06    5.82
   6   8  -8   40.79    5.02
   6   8  -7   41.67    5.22
   6  -8  -7   40.95    5.75
   6  -8  -6   43.56    3.11
   6  -8  -6   38.33    5.45
   6   8  -6   43.80    5.10
   6  -8  -6   43.13    2.87
   6  -8  -5    0.05    1.03
   6  -8  -5    1.61    2.37
   6   8  -5   -0.72    2.08
   6  -8  -5    2.31    1.06
   6   8  -5    1.27    1.46
   6  -8  -4    5.10    1.52
   6  -8  -4    3.14    2.32
   6  -8  -4    5.10    1.28
   6   8  -4    3.64    2.44
   6   8  -4    6.40    1.83
   6  -8  -3   59.06    4.61
   6  -8  -3   62.62    6.23
   6   8  -3   59.66    6.08
   6  -8  -3   50.99    3.67
   6   8  -3   56.78    4.70
  -6   8   3   55.27    3.50
   6  -8  -2   11.77    2.39
   6  -8  -2   11.39    3.20
   6  -8  -2   12.15    2.08
   6   8  -2   18.30    3.79
  -6   8   2   11.48    1.86
   6   8  -2   16.03    2.66
   6  -8  -1  232.76   10.74
  -6   8   1  214.98    8.63
   6  -8  -1  224.44    9.23
   6   8  -1  238.34   11.94
   6  -8  -1  248.09   11.74
   6  -8   0    3.38    1.68
  -6   8   0    5.38    1.73
   6   8   0    1.99    2.23
   6  -8   0    2.40    1.52
   6  -8   1   29.73    3.98
   6   8   1   22.92    3.82
  -6   8  -1   29.35    3.18
   6  -8   1   30.09    3.71
   6  -8   2    2.64    1.82
   6   8   2    0.44    2.10
  -6   8  -2    4.33    1.62
   6  -8   2   -0.13    1.45
   6  -8   3  264.80   13.06
   6   8   3  275.27   13.36
  -6   8  -3  253.09   11.24
   6  -8   3  277.06   11.00
   6  -8   4   44.77    5.58
   6   8   4   49.12    5.69
   6  -8   4   42.55    3.83
   6  -8   5   83.16    7.43
   6  -8   5   88.62    4.97
   6   8   5   99.02    7.96
   6  -8   6    9.51    3.28
   6   8   6    8.11    2.76
   6  -8   6    9.52    1.86
   6  -8   7    0.39    2.29
   6   8   7   -2.52    2.47
   6  -8   7   -0.39    1.22
   6  -8   8  165.52   11.60
   6   8   8  163.66   10.96
   6  -8   8  176.39    9.07
   6  -8   9   10.99    4.06
   6   8   9    7.63    3.17
   6  -8   9    5.08    2.04
   6  -8  10   37.44    5.96
   6   8  10   43.27    6.02
   6  -8  10   33.26    4.35
   6   8  11    3.21    2.20
   6   9 -12   48.67    6.08
   6   9 -11    9.17    2.91
   6  -9 -10  117.03    9.97
   6   9 -10  133.54    9.69
   6  -9  -9   69.42    7.71
   6   9  -9   69.40    6.88
   6  -9  -8   28.85    5.06
   6   9  -8   30.56    4.61
   6   9  -7  297.24   14.32
   6  -9  -7  297.61   15.47
   6  -9  -6   23.95    2.27
   6  -9  -6   24.30    4.39
   6   9  -6   28.53    4.57
   6  -9  -5  240.91    8.88
   6  -9  -5  229.99   12.74
   6   9  -5  238.28   12.46
   6  -9  -5  234.80    7.50
   6   9  -5  233.25   10.79
   6  -9  -4    3.14    1.42
   6  -9  -4    0.31    2.07
   6   9  -4    1.88    2.36
   6   9  -4   -0.80    1.38
   6  -9  -3  106.21    6.16
   6  -9  -3  105.58    7.85
   6   9  -3  102.48    7.69
  -6   9   3   96.24    4.53
   6   9  -3  101.47    6.39
   6  -9  -2   65.88    5.20
   6  -9  -2   60.33    5.94
   6   9  -2   65.77    6.39
  -6   9   2   63.58    3.89
   6   9  -2   66.21    5.18
   6  -9  -1  193.82    9.61
  -6   9   1  181.75    7.52
   6   9  -1  202.39   10.94
   6  -9  -1  186.40   10.13
   6  -9   0    4.29    2.03
  -6   9   0    7.00    1.67
   6   9   0    7.42    2.68
   6  -9   0    5.97    2.16
   6  -9   1   10.13    2.64
  -6   9  -1   13.88    2.24
   6   9   1   13.73    3.26
   6  -9   1   11.63    2.56
   6  -9   2   13.14    2.96
   6  -9   2   15.85    2.65
   6   9   2   13.46    3.16
  -6   9  -2   21.60    2.88
   6  -9   3   10.42    2.92
   6  -9   3    9.13    2.12
  -6   9  -3   11.32    2.44
   6   9   3   13.28    3.23
   6  -9   3    9.01    2.11
   6  -9   4  164.81   10.33
   6   9   4  172.49   10.55
   6  -9   4  169.52    7.67
   6  -9   5   38.62    5.25
   6   9   5   40.52    5.34
   6  -9   5   34.55    3.00
   6  -9   6  104.44    8.63
   6   9   6  124.80    9.22
   6  -9   7  104.97    8.86
   6   9   7  103.97    8.59
   6  -9   7  102.62    6.33
   6  -9   8   21.73    4.72
   6   9   8   18.81    4.07
   6  -9   8   16.31    2.79
   6  -9   9  280.66   15.93
   6   9   9  275.36   15.17
   6  -9   9  299.62   12.99
   6   9  11  156.62   10.30
   6  10 -11    9.54    3.21
   6  10 -10   60.01    6.71
   6 -10 -10   71.45    7.86
   6  10  -9   60.23    6.53
   6 -10  -9   66.13    7.56
   6  10  -8  164.36   10.75
   6 -10  -8  182.14   12.15
   6  10  -7   33.17    4.63
   6 -10  -7   27.94    4.97
   6  10  -6  317.76   14.96
   6 -10  -6  302.90   15.57
   6 -10  -5    0.84    0.91
   6  10  -5    1.46    2.36
   6 -10  -5   -1.28    2.56
   6 -10  -4  624.40   18.29
   6 -10  -4  612.27   22.68
   6  10  -4  617.15   22.56
   6 -10  -3    0.33    1.06
   6 -10  -3   -1.67    1.97
   6  10  -3   -1.87    2.36
  -6  10   3    0.08    0.64
   6 -10  -2  569.63   18.15
   6  10  -2  582.67   21.06
  -6  10   2  524.21   15.09
   6 -10  -2  567.41   20.46
   6 -10  -1   47.84    4.65
   6 -10  -1   56.79    5.52
  -6  10   1   56.60    3.71
   6  10  -1   53.86    5.73
   6 -10   0   58.12    5.31
   6 -10   0   58.70    5.35
  -6  10   0   60.52    4.28
   6  10   0   68.27    6.34
   6 -10   0   59.86    5.36
   6 -10   1  115.33    7.74
   6 -10   1  117.58    7.41
  -6  10  -1  107.51    6.14
   6  10   1  117.22    8.41
   6 -10   1  119.57    7.50
   6 -10   2   50.04    5.52
   6 -10   2   52.02    4.67
   6  10   2   55.89    5.79
  -6  10  -2   60.27    4.72
   6 -10   2   47.33    4.63
   6 -10   3  133.45    8.94
   6 -10   3  142.58    7.32
   6  10   3  142.18    9.50
  -6  10  -3  138.47    7.71
   6 -10   3  144.55    7.38
   6 -10   4   12.15    3.26
   6  10   4   11.25    3.42
   6 -10   4   13.58    2.29
   6 -10   5   44.47    5.84
   6  10   5   47.34    5.49
   6 -10   6   36.89    5.53
   6  10   6   36.78    5.38
   6 -10   7   23.02    4.56
   6  10   7   16.37    3.90
   6 -10   8  133.88   10.41
   6  10   8  126.33    9.73
   6 -10   9   91.45    9.08
   6  10   9   98.85    8.84
   6  10  11   -0.46    1.96
   6 -11 -10  102.98    9.47
   6  11 -10   79.46    7.66
   6 -11  -9   54.80    7.05
   6  11  -9   40.33    5.55
   6  11  -8  113.87    8.93
   6 -11  -8  116.07    9.77
   6  11  -7    3.88    2.66
   6 -11  -7    1.66    2.30
   6  11  -6   12.17    3.43
   6 -11  -6   15.20    4.06
   6  11  -5   59.33    6.31
   6 -11  -5   59.97    6.59
   6 -11  -4    1.18    1.19
   6  11  -4    1.89    2.24
   6 -11  -4   -2.30    2.42
   6 -11  -3   38.76    3.59
   6  11  -3   46.87    5.54
   6 -11  -3   45.42    5.24
   6 -11  -2   92.46    6.21
   6 -11  -2   85.89    7.11
   6  11  -2  101.56    8.06
   6 -11  -1    9.18    2.34
   6 -11  -1    4.90    2.07
   6  11  -1   12.60    3.25
  -6  11   1    6.98    1.36
   6 -11   0  147.75    8.66
   6 -11   0  143.63    8.62
  -6  11   0  148.77    6.82
   6  11   0  152.84    9.79
   6 -11   0  137.83    8.48
   6 -11   1    2.33    1.88
   6 -11   1    0.13    1.29
  -6  11  -1    0.16    1.03
   6  11   1   -1.14    2.08
   6 -11   1    1.51    1.34
   6 -11   2  339.96   14.86
   6 -11   2  346.74   13.19
   6  11   2  359.19   15.79
  -6  11  -2  306.74   12.14
   6 -11   2  323.56   12.87
   6 -11   3   15.73    3.49
  -6  11  -3   14.52    2.65
   6  11   3   22.13    4.05
   6 -11   3   14.47    2.49
   6 -11   4  290.46   14.56
   6  11   4  311.14   15.19
   6 -11   4  315.83   11.20
   6 -11   5   27.23    5.03
   6  11   5   33.00    5.16
   6 -11   6  252.44   14.22
   6  11   6  253.42   13.86
   6 -11   7   59.30    7.01
   6  11   7   63.83    6.96
   6 -11   8   19.56    4.48
   6  11   8   16.41    3.50
   6 -11   9   22.56    4.51
   6  11   9   26.95    4.73
   6  11  11   13.08    3.71
   6  12 -10   -1.09    2.52
   6 -12  -9   33.41    5.74
   6  12  -9   25.17    4.39
   6 -12  -8   25.98    5.00
   6  12  -8   17.61    3.78
   6  12  -7    3.91    2.27
   6 -12  -7   10.88    3.54
   6  12  -6   16.00    3.80
   6 -12  -6   16.57    3.95
   6  12  -5   10.90    3.24
   6 -12  -5   18.38    3.99
   6 -12  -4    2.34    1.34
   6  12  -4    3.39    2.32
   6 -12  -4    0.73    2.43
   6 -12  -3   97.06    5.95
   6  12  -3  101.71    8.47
   6 -12  -3  100.56    8.12
   6 -12  -2   69.22    5.26
   6  12  -2   72.06    6.69
   6 -12  -2   67.17    6.31
   6 -12  -1  161.27    8.76
   6  12  -1  162.38   10.25
   6 -12  -1  171.87    9.96
   6 -12   0    8.96    2.41
   6 -12   0   13.71    2.84
   6  12   0   11.13    3.11
   6 -12   1  162.33    9.51
   6 -12   1  172.73    9.14
   6  12   1  177.14   10.66
   6 -12   1  155.79    8.80
   6 -12   2    7.85    2.74
   6  12   2   10.79    3.03
   6 -12   2    8.97    2.43
   6 -12   3   82.42    7.09
   6  12   3   82.63    7.20
   6 -12   3   86.46    5.58
   6 -12   4    8.28    3.19
   6  12   4    4.24    2.75
   6 -12   5   69.20    7.05
   6  12   5   68.91    6.85
   6 -12   6    4.99    2.91
   6  12   6    6.39    2.91
   6 -12   7   27.56    4.82
   6  12   7   29.47    5.17
   6 -12   8   11.70    3.44
   6  12   8   12.41    4.02
   6  12  11    6.06    2.64
   6 -13  -9   25.09    5.14
   6  13  -9   15.99    3.78
   6 -13  -8   12.54    4.22
   6  13  -8    9.80    3.26
   6  13  -7   17.47    3.82
   6 -13  -7   21.41    4.50
   6  13  -6    5.10    2.87
   6 -13  -6    1.71    2.44
   6  13  -5   96.93    8.18
   6 -13  -5   95.48    8.36
   6  13  -4   -1.11    2.04
   6 -13  -4    2.66    2.27
   6 -13  -3  203.72    8.95
   6  13  -3  216.96   12.38
   6 -13  -3  213.16   11.97
   6 -13  -2   10.05    2.28
   6  13  -2   12.40    3.61
   6 -13  -2   16.84    3.49
   6 -13  -1    2.56    1.65
   6  13  -1    3.15    2.65
   6 -13  -1    4.48    2.09
   6 -13   0   22.56    3.44
   6  13   0   20.01    3.93
   6 -13   0   22.81    3.65
   6 -13   1   40.04    4.74
   6  13   1   42.37    5.37
   6 -13   1   43.07    4.58
   6 -13   2   64.99    6.23
   6  13   2   79.16    7.13
   6 -13   2   73.96    5.61
   6 -13   3   28.47    4.59
   6  13   3   40.31    5.33
   6 -13   3   35.45    3.67
   6 -13   4   50.60    5.91
   6  13   4   51.00    6.07
   6 -13   5   11.23    3.47
   6  13   5   22.42    4.40
   6 -13   6  108.41    9.30
   6  13   6  116.88    9.33
   6 -13   7   26.61    5.09
   6  13   7   31.12    4.89
   6 -13   8    7.55    3.56
   6  13   8    8.51    3.27
   6  14  -8   78.05    7.92
   6 -14  -8   96.08    9.23
   6  14  -7    0.79    1.83
   6 -14  -7    2.98    2.53
   6  14  -6  271.01   14.65
   6 -14  -6  274.83   15.31
   6  14  -5    2.85    2.52
   6 -14  -5    1.22    2.31
   6  14  -4  499.21   20.68
   6 -14  -4  488.49   20.47
   6  14  -3   10.56    3.20
   6 -14  -3   12.88    3.34
   6 -14  -2  182.96    8.98
   6  14  -2  186.22   11.61
   6 -14  -2  175.31   10.65
   6 -14  -1    5.92    2.14
   6  14  -1    7.73    2.96
   6 -14  -1    3.55    1.72
   6 -14   0   80.59    6.39
   6  14   0   76.56    7.23
   6 -14   0   79.92    6.57
   6 -14   1   16.29    3.19
   6  14   1   21.79    4.09
   6 -14   1   18.39    3.03
   6 -14   2   -0.17    1.65
   6  14   2    1.13    2.17
   6 -14   2    0.76    1.50
   6 -14   3   29.61    4.52
   6  14   3   29.37    4.59
   6 -14   4    8.70    3.15
   6  14   4    4.99    2.33
   6 -14   5    1.76    2.41
   6  14   5   -2.32    2.51
   6 -14   6   63.47    7.44
   6  14   6   76.78    7.83
   6 -14   7   12.28    3.31
   6  14   7   19.15    4.30
   6 -15  -8    2.33    2.39
   6  15  -7  137.14   10.37
   6 -15  -7  133.79   10.85
   6  15  -6    1.81    2.26
   6 -15  -6    3.40    2.98
   6  15  -5  266.53   14.57
   6 -15  -5  259.55   14.70
   6  15  -4   11.70    3.69
   6 -15  -4    7.89    3.08
   6  15  -3  313.33   15.80
   6 -15  -3  283.47   14.64
   6 -15  -2    4.04    1.67
   6  15  -2    3.03    2.65
   6 -15  -2    4.04    2.24
   6 -15  -1  143.22    8.36
   6  15  -1  160.46   10.71
   6 -15  -1  150.43    9.59
   6 -15   0   95.41    7.01
   6  15   0   85.94    7.63
   6 -15   0   82.39    6.75
   6 -15   1   30.08    4.29
   6  15   1   38.11    5.41
   6 -15   1   37.38    4.44
   6 -15   2   34.14    4.78
   6  15   2   34.35    4.89
   6 -15   2   34.83    3.96
   6 -15   3    0.89    2.03
   6  15   3    1.00    2.12
   6 -15   4  130.08    9.73
   6  15   4  144.55   10.42
   6 -15   5    3.72    2.77
   6  15   5    0.57    2.10
   6 -15   6   60.96    7.09
   6  15   6   73.22    7.50
   6 -15   7   41.17    6.05
   6 -16  -7   33.83    5.89
   6 -16  -6   23.64    4.88
   6  16  -5    1.09    2.84
   6 -16  -5   -0.14    2.09
   6  16  -4   27.38    4.73
   6 -16  -4   34.75    5.27
   6  16  -3   17.21    4.33
   6 -16  -3   15.70    3.61
   6  16  -2    2.44    2.07
   6 -16  -2   -0.56    1.77
   6 -16  -1  134.34    8.23
   6  16  -1  148.45   10.31
   6 -16  -1  129.85    9.15
   6 -16   0    1.74    1.50
   6  16   0   -1.71    1.76
   6 -16   0    1.92    1.73
   6 -16   1  217.34   11.71
   6  16   1  235.59   13.44
   6 -16   1  240.16   11.73
   6 -16   2    9.51    2.86
   6  16   2   10.27    3.35
   6 -16   3  177.30   11.28
   6  16   3  199.93   12.20
   6 -16   4    1.41    1.91
   6  16   4    8.27    3.30
   6 -16   5  210.94   13.26
   6  16   5  227.58   13.53
   6 -16   6    1.54    2.17
   6 -17  -6    8.72    2.83
   6 -17  -5   92.90    8.88
   6  17  -4   29.97    4.98
   6 -17  -4   22.86    4.22
   6  17  -3   44.35    6.03
   6 -17  -3   46.61    5.92
   6  17  -2   12.68    3.68
   6 -17  -2    8.60    2.85
   6  17  -1   20.21    4.30
   6 -17  -1   24.41    4.20
   6 -17   0   69.37    6.17
   6  17   0   83.47    7.90
   6 -17   0   76.30    6.70
   6 -17   1    2.23    1.87
   6  17   1    3.74    2.77
   6 -17   2   79.54    7.23
   6  17   2   96.43    8.44
   6 -17   3    4.05    2.52
   6  17   3   -2.08    2.23
   6 -17   4   89.15    8.16
   6  17   4   95.58    8.58
   6 -17   5   20.26    4.54
   6 -17   6    1.58    2.02
   6 -18  -6  158.28   12.10
   6 -18  -5    0.62    2.29
   6 -18  -4   23.68    4.57
   6 -18  -3   -0.73    2.25
   6 -18  -2   23.39    4.29
   6  18  -1   15.33    3.80
   6 -18  -1   12.14    3.29
   6  18   0    2.02    2.08
   6 -18   1   54.37    5.77
   6  18   1   44.84    6.01
   6 -18   2    0.88    2.03
   6 -18   3   58.03    6.54
   6 -18   4   27.52    5.05
   6 -18   5   24.01    4.53
   6 -19  -5  123.78   10.44
   6 -19  -4    1.53    2.28
   6 -19  -3  108.85    9.27
   6 -19  -2   15.99    3.75
   6 -19  -1  167.09   10.76
   6 -19   2    2.59    2.48
   6 -19   3   -1.06    2.36
   6 -19   4    6.22    2.77
   6 -19   5    6.83    3.18
   6 -20  -4  111.85   10.00
   6 -20  -3   30.28    5.09
   6 -20  -2   30.73    4.99
   6 -20   3   93.97    8.41
   6 -20   4   -0.84    1.98
   6 -21  -3    4.14    2.81
   7   0 -11   -2.38    1.84
   7   0 -10  125.68    8.42
   7   0 -10  141.37   10.87
   7   0  -9    2.55    2.07
   7   0  -9    1.70    2.62
   7   0  -8  261.07   12.43
   7   0  -8  281.65   15.29
   7   0  -7   -2.25    1.76
   7   0  -6   37.13    4.36
   7   0  -5    0.36    1.69
   7   0  -4   65.50    5.82
   7   0  -3   -1.61    2.03
   7   0  -2   17.93    3.25
   7   0  -1   -0.27    1.75
   7   0   0   75.97    6.59
   7   0   1    2.12    2.36
   7   0   2  434.18   17.44
   7   0   3    0.18    1.85
   7   0   4  418.51   17.46
   7   0   5   -1.92    2.39
   7   0   6  537.53   21.48
   7   0   7    1.05    2.18
   7   0   7    2.16    2.53
   7   0   8   75.79    7.93
   7   0   9    2.77    2.67
   7   1 -12    8.67    2.57
   7   1 -11   65.22    6.31
   7   1 -10    0.95    1.63
   7  -1 -10   -0.44    1.57
   7   1 -10    9.77    3.61
   7  -1 -10    8.60    3.61
   7  -1  -9   70.38    6.08
   7   1  -9   72.07    6.42
   7  -1  -9   84.53    8.42
   7   1  -9   75.26    7.81
   7  -1  -8   16.57    3.11
   7   1  -8   19.70    3.45
   7  -1  -8   28.44    5.26
   7   1  -7   -1.34    1.52
   7  -1  -7    3.47    2.11
   7  -1  -7    6.05    3.08
   7  -1  -6   37.25    4.26
   7   1  -6   37.27    4.52
   7  -1  -5    0.61    1.63
   7   1  -5    4.87    2.14
   7  -1  -4  426.58   16.00
   7   1  -4  406.95   16.10
   7  -1  -3    9.11    2.19
   7   1  -3    7.78    2.43
   7  -1  -2  221.29   10.84
   7   1  -2  216.96   10.96
   7  -1  -1    6.00    2.10
   7   1  -1    5.90    2.32
   7  -1   0  167.95    9.54
   7   1   0  158.59    9.56
   7  -1   1  116.30    8.05
   7   1   1  126.67    8.52
   7  -1   2  100.50    7.58
   7   1   2   87.11    7.26
   7  -1   3  207.94   11.26
   7   1   3  213.05   11.63
   7  -1   4   20.89    3.96
   7   1   4   20.80    3.88
   7  -1   5  223.79   12.34
   7   1   5  221.06   12.31
   7  -1   6   -1.72    2.22
   7   1   6   -1.19    2.19
   7  -1   6   -2.82    2.67
   7   1   7   23.39    4.48
   7  -1   7   27.70    4.90
   7   1   7   31.58    5.31
   7  -1   8   12.07    3.68
   7   1   8   12.96    3.64
   7  -1   9   11.66    3.77
   7   1   9   13.18    3.96
   7   2 -12   -2.78    2.38
   7   2 -11    0.83    1.67
   7   2 -10   10.50    4.01
   7  -2 -10   10.62    3.63
   7  -2 -10    5.61    1.90
   7   2 -10    7.63    2.79
   7  -2  -9   44.99    6.44
   7   2  -9   35.10    5.00
   7  -2  -9   35.53    4.23
   7  -2  -8   18.60    4.28
   7   2  -8   13.72    2.95
   7  -2  -8   13.47    2.72
   7  -2  -7  158.41   11.09
   7   2  -7  138.91    9.00
   7  -2  -7  148.58    8.39
   7   2  -6    0.36    1.75
   7  -2  -6    2.31    1.34
   7  -2  -5  293.36   12.37
   7   2  -5  288.89   13.15
   7  -2  -4    9.26    2.22
   7   2  -4   12.04    2.89
  -7   2   4   12.97    2.45
   7  -2  -3  324.66   13.33
   7   2  -3  318.40   13.91
   7   2  -2    8.12    2.60
   7  -2  -2    5.42    2.23
   7  -2  -1  124.53    7.81
   7   2  -1  126.03    8.29
   7  -2   0    3.04    1.78
   7   2   0   -0.63    2.15
   7  -2   1   58.66    5.67
   7   2   1   50.86    5.49
   7  -2   2   12.17    2.97
   7   2   2   16.49    3.30
   7  -2   3   10.46    2.76
   7   2   3   13.63    3.16
   7  -2   4    0.93    1.98
   7   2   4   -0.83    2.33
   7  -2   5   22.48    4.15
   7   2   5   22.22    4.11
   7  -2   5   22.70    4.57
   7  -2   6   11.03    3.33
   7   2   6    7.76    2.88
   7  -2   6    3.95    2.31
   7  -2   7   76.16    7.92
   7   2   7   84.34    8.19
   7  -2   8    2.10    2.43
   7   2   8    3.18    2.96
   7   2   8    0.83    2.11
   7   3 -13   13.44    3.42
   7   3 -12    5.73    2.30
   7   3 -11    0.86    1.77
   7  -3 -10   -2.08    2.89
   7   3 -10   -0.52    1.96
   7  -3  -9   20.66    4.62
   7  -3  -9   22.32    3.25
   7   3  -9   19.56    3.71
   7  -3  -8   61.64    8.80
   7   3  -8   50.20    5.76
   7  -3  -8   55.22    4.87
   7  -3  -7   11.32    3.76
   7   3  -7   10.57    2.93
   7  -3  -7    8.52    2.29
   7  -3  -6  123.25    9.65
   7   3  -6  122.79    8.29
   7  -3  -6  118.81    7.19
   7  -3  -5    2.10    2.48
   7  -3  -5    1.03    1.40
   7   3  -5    4.90    2.33
   7  -3  -4  164.27    8.57
   7   3  -4  158.09    9.36
  -7   3   4  153.68    8.02
   7   3  -3    1.80    2.19
   7  -3  -3    0.63    1.62
  -7   3   3   -0.67    1.20
   7  -3  -2  325.69   13.06
  -7   3   2  288.69   12.07
   7   3  -2  298.29   13.65
   7   3  -1   43.91    4.99
   7  -3  -1   35.04    4.20
   7  -3   0  140.13    8.49
   7   3   0  139.44    9.14
   7  -3   1   24.04    3.57
   7   3   1   24.00    3.91
   7  -3   2   13.10    2.86
   7   3   2   15.04    3.60
   7   3   3   80.80    7.00
   7  -3   3   73.82    6.46
   7  -3   3   77.88    7.14
   7  -3   4   -2.48    2.03
   7   3   4   -0.99    2.00
   7  -3   4    0.14    2.00
   7  -3   5   53.21    5.69
   7   3   5   43.47    5.50
   7  -3   5   55.60    6.35
   7  -3   6    8.73    3.43
   7   3   6    6.50    2.83
   7  -3   7   11.77    3.69
   7   3   7    2.16    2.12
   7  -3   8   64.76    7.39
   7   3   8   60.43    7.19
   7   4 -13   -3.02    2.21
   7   4 -12   44.59    5.67
   7   4 -11   -0.17    1.82
   7  -4 -10  176.55   12.49
   7   4 -10  173.02   10.86
   7  -4  -9   11.28    3.69
   7   4  -9    9.30    3.03
   7  -4  -8   13.45    3.65
   7   4  -8   13.89    3.41
   7  -4  -8   16.54    2.65
   7  -4  -7   82.79    8.08
   7   4  -7   90.25    7.45
   7  -4  -7   84.16    5.88
   7  -4  -6   52.09    6.40
   7   4  -6   57.71    5.81
   7  -4  -6   53.68    4.59
   7  -4  -5   29.51    4.94
   7  -4  -5   28.67    3.46
   7   4  -5   34.42    4.51
   7  -4  -4    9.70    3.32
   7   4  -4    6.65    2.54
   7  -4  -4    8.32    2.27
  -7   4   4    2.13    1.28
   7  -4  -3   30.61    4.66
   7   4  -3   25.12    3.96
   7  -4  -3   24.56    3.16
  -7   4   3   22.76    2.88
   7   4  -2   31.71    4.59
   7  -4  -2   28.47    3.73
  -7   4   2   27.04    3.34
   7  -4  -1  195.36    9.71
   7   4  -1  205.46   11.06
  -7   4   1  172.88    8.82
   7  -4   0  150.93    8.73
   7   4   0  152.40    9.58
   7  -4   1   71.35    5.92
   7   4   1   78.38    6.83
   7  -4   2  160.43   10.28
   7   4   2  173.28   10.56
   7  -4   2  165.11    9.57
   7  -4   3   20.87    3.90
   7   4   3   32.82    4.73
   7  -4   3   20.30    4.34
   7  -4   4  221.97   12.60
   7   4   4  213.57   12.11
   7  -4   4  201.32   11.31
   7  -4   5   -0.18    2.23
   7   4   5    2.47    2.51
   7  -4   6   58.09    6.63
   7   4   6   53.83    6.10
   7  -4   7    2.36    2.45
   7   4   7    5.89    2.82
   7  -4   8   95.61    9.04
   7   4   8   93.13    8.50
   7   5 -12    7.12    2.66
   7   5 -11  119.32    9.11
   7   5 -10   21.05    4.08
   7  -5  -9  200.49   13.01
   7   5  -9  175.37   11.05
   7  -5  -8    1.77    2.32
   7   5  -8    3.30    2.33
   7  -5  -7  274.58   15.15
   7   5  -7  269.46   13.61
   7  -5  -7  272.24   11.03
   7  -5  -6   19.05    4.32
   7   5  -6   18.40    3.40
   7  -5  -6   18.85    2.60
   7  -5  -5   32.61    5.18
   7   5  -5   35.61    4.73
   7  -5  -5   27.62    3.30
   7  -5  -4    4.26    2.91
   7  -5  -4    1.97    1.48
   7   5  -4    0.96    2.00
  -7   5   4    0.90    1.13
   7  -5  -3    2.19    2.35
   7  -5  -3   -1.48    1.70
   7   5  -3    2.11    2.20
  -7   5   3   -0.20    1.02
   7  -5  -2  103.80    6.52
  -7   5   2   96.38    6.01
   7   5  -2   95.73    7.37
   7  -5  -2  102.72    7.89
   7   5  -1   38.56    5.06
   7  -5  -1   31.22    3.98
  -7   5   1   33.53    3.74
   7  -5  -1   33.87    4.80
   7   5   0   27.97    4.24
   7  -5   0   23.69    3.38
   7  -5   0   27.64    4.19
   7  -5   0   27.77    4.08
   7  -5   1  149.36    9.63
   7   5   1  163.83   10.27
   7  -5   1  146.05    8.71
   7  -5   2   12.34    2.87
   7   5   2   11.39    3.19
   7  -5   2   17.65    3.83
   7  -5   3  244.23   13.12
   7   5   3  238.16   12.83
   7  -5   3  241.74   12.11
   7  -5   4    7.05    3.13
   7   5   4    2.62    2.25
   7  -5   5  321.10   16.05
   7   5   5  327.62   15.82
   7  -5   6    9.61    3.11
   7   5   6    9.59    3.23
   7  -5   7  322.53   16.95
   7   5   7  328.47   16.48
   7  -5   8    3.19    2.59
   7   5   8    2.42    2.50
   7   6 -12   62.54    7.00
   7   6 -11   -1.91    2.54
   7   6 -10   74.27    7.17
   7   6  -9   15.83    3.66
   7  -6  -9   10.78    3.42
   7   6  -8   74.40    7.14
   7  -6  -8   80.58    8.18
   7   6  -7   60.30    6.37
   7  -6  -7   61.32    7.18
   7   6  -6    5.43    2.68
   7  -6  -6    1.71    1.23
   7  -6  -6    6.26    3.35
   7  -6  -6    1.65    1.38
   7  -6  -5  142.83    7.71
   7  -6  -5  136.32   10.11
   7   6  -5  140.92    9.34
   7  -6  -5  142.31    7.26
   7  -6  -4   13.74    3.69
   7  -6  -4   15.59    2.67
   7  -6  -4   12.81    2.34
   7   6  -4   18.10    3.66
   7  -6  -3  316.43   12.95
   7  -6  -3  316.14   14.99
   7  -6  -3  319.14   12.07
   7   6  -3  303.28   14.17
  -7   6   3  263.73   10.82
   7  -6  -2   27.07    4.24
   7  -6  -2   28.85    3.96
   7  -6  -2   26.85    3.38
   7   6  -2   34.92    4.69
  -7   6   2   26.99    3.14
   7  -6  -1  389.57   15.57
   7   6  -1  389.75   16.47
  -7   6   1  331.29   13.04
   7  -6  -1  383.63   14.21
   7  -6  -1  387.96   16.27
   7  -6   0   49.89    5.37
  -7   6   0   52.80    4.57
   7   6   0   61.38    6.21
   7  -6   0   48.46    4.92
   7  -6   0   58.21    5.78
   7  -6   1  182.94   10.69
   7   6   1  205.23   11.57
   7  -6   1  194.30   10.07
   7  -6   1  200.67   10.60
   7  -6   2   63.94    6.38
   7   6   2   72.94    6.99
   7  -6   2   66.34    5.90
   7  -6   2   78.29    6.12
   7  -6   3   37.57    5.15
   7   6   3   42.40    5.51
   7  -6   3   38.63    4.35
   7  -6   4   26.04    4.75
   7   6   4   25.17    4.34
   7  -6   4   25.18    3.32
   7  -6   5    0.73    2.33
   7   6   5    1.49    2.14
   7  -6   5    3.28    1.64
   7  -6   6   69.32    7.33
   7   6   6   70.89    7.36
   7  -6   7   10.95    3.55
   7   6   7   13.52    3.85
   7  -6   8  145.48   11.39
   7   6   8  155.89   11.31
   7   7 -11    0.13    1.98
   7   7 -10   63.31    6.75
   7   7  -9   10.56    3.31
   7  -7  -9   17.46    4.28
   7   7  -8   91.15    8.10
   7  -7  -8   95.46    9.23
   7   7  -7    6.08    3.10
   7  -7  -7   -3.18    2.69
   7   7  -6   86.40    7.64
   7  -7  -6   98.31    8.78
   7  -7  -5    0.40    1.09
   7   7  -5    3.48    2.63
   7  -7  -5    2.72    1.40
   7  -7  -5    5.03    2.78
   7  -7  -4  121.50    7.14
   7  -7  -4  114.67    6.30
   7   7  -4  110.30    8.38
   7  -7  -4  123.06    9.23
   7  -7  -3   -0.18    1.32
   7  -7  -3   -1.13    1.19
   7   7  -3    0.63    2.15
   7  -7  -3   -0.24    2.16
   7  -7  -2  166.33    9.16
   7  -7  -2  165.57   10.36
   7   7  -2  164.52   10.27
   7  -7  -2  177.69    8.44
   7  -7  -1    0.40    1.60
   7  -7  -1    0.59    1.97
   7  -7  -1   -0.93    1.67
   7   7  -1   -1.50    2.25
  -7   7   1    1.89    1.09
   7  -7   0  209.88   11.17
  -7   7   0  185.67    9.01
   7   7   0  222.26   12.06
   7  -7   0  203.02    9.88
   7  -7   0  214.16   11.27
   7  -7   1    0.58    1.97
   7   7   1    0.33    2.01
   7  -7   1    0.73    1.72
   7  -7   2   10.07    2.92
   7   7   2    9.63    3.11
   7  -7   2   10.70    2.53
   7  -7   3    8.49    2.86
   7   7   3    7.02    2.82
   7  -7   3    9.64    2.34
   7  -7   4   12.57    3.51
   7   7   4   10.76    3.30
   7  -7   4   12.87    2.64
   7  -7   5    3.06    2.37
   7   7   5    2.00    1.99
   7  -7   6   51.60    6.71
   7   7   6   58.62    6.88
   7  -7   7   11.43    3.29
   7   7   7    8.90    3.20
   7  -7   8   95.42    9.21
   7   8 -10   -0.79    1.95
   7   8  -9   61.77    6.85
   7  -8  -9   69.15    7.89
   7   8  -8   51.88    6.26
   7  -8  -8   50.10    6.58
   7   8  -7   35.14    5.14
   7  -8  -7   30.66    5.29
   7   8  -6    2.68    2.18
   7  -8  -6    4.57    2.77
   7  -8  -5   73.48    5.11
   7   8  -5   81.76    7.38
   7  -8  -5   73.12    7.31
   7  -8  -4    2.88    1.60
   7   8  -4    8.22    2.99
   7  -8  -4    1.59    2.03
   7  -8  -3  204.62    9.95
   7  -8  -3  208.69    8.86
   7   8  -3  210.91   11.80
   7  -8  -3  190.70   11.56
   7  -8  -2   25.05    3.63
   7  -8  -2   22.06    2.87
   7   8  -2   26.21    4.44
   7  -8  -2   25.43    4.12
   7  -8  -1   37.20    4.43
   7  -8  -1   38.66    3.84
   7   8  -1   43.57    5.44
   7  -8  -1   37.88    4.69
   7  -8   0   92.80    7.38
   7   8   0   97.12    8.06
   7  -8   0   80.90    6.83
   7  -8   1   71.34    6.64
   7   8   1   80.90    7.38
   7  -8   1   76.38    6.32
   7  -8   2   41.93    5.23
   7   8   2   53.29    6.07
   7  -8   2   46.62    4.82
   7  -8   3    6.61    3.08
   7   8   3    5.18    2.52
   7  -8   3    5.09    1.99
   7  -8   4   10.80    3.30
   7   8   4   16.87    3.76
   7  -8   4   13.09    2.31
   7  -8   5    8.45    3.01
   7   8   5   13.43    3.73
   7  -8   6   20.74    4.57
   7   8   6   23.24    4.37
   7  -8   7   33.96    5.82
   7   8   7   26.86    5.09
   7   9 -10   -0.45    2.02
   7   9  -9  175.75   11.65
   7   9  -8    0.13    2.28
   7  -9  -8    6.78    3.21
   7   9  -7   59.62    6.74
   7  -9  -7   65.39    7.37
   7   9  -6    8.64    2.97
   7  -9  -6   13.92    3.75
   7   9  -5    4.60    2.97
   7  -9  -5    4.01    2.67
   7  -9  -4   41.12    4.03
   7   9  -4   41.99    5.41
   7  -9  -4   49.48    5.98
   7  -9  -3   11.21    2.64
   7   9  -3    7.09    2.69
   7  -9  -3   10.15    3.27
   7  -9  -2   40.93    4.50
   7   9  -2   45.75    5.53
   7  -9  -2   45.75    5.47
   7  -9  -1   49.84    5.25
   7   9  -1   52.05    5.94
   7  -9  -1   53.14    5.81
   7  -9   0    3.63    2.18
   7   9   0    5.04    3.02
   7  -9   0    2.09    2.01
   7  -9   1   76.53    7.02
   7   9   1   96.30    8.12
   7  -9   1   81.24    6.68
   7  -9   2   16.45    3.57
   7   9   2   21.90    4.31
   7  -9   2   13.59    2.82
   7  -9   3  115.05    8.93
   7   9   3  142.37   10.11
   7  -9   3  126.04    7.64
   7  -9   4   11.79    3.56
   7   9   4    5.24    2.47
   7  -9   5  146.08   10.57
   7   9   5  129.46    9.90
   7  -9   6   -4.22    2.92
   7   9   6    4.23    2.61
   7  -9   7  299.02   16.71
   7   9   7  308.31   16.34
   7  10  -9    4.97    2.83
   7  10  -8   94.27    8.41
   7 -10  -8  101.23    9.37
   7  10  -7   24.78    4.61
   7 -10  -7   25.19    4.92
   7  10  -6  123.07    9.54
   7 -10  -6  113.62    9.66
   7  10  -5   71.12    7.20
   7 -10  -5   50.37    6.42
   7  10  -4   11.63    3.37
   7 -10  -4    8.57    3.12
   7 -10  -3   14.67    2.59
   7  10  -3   16.50    3.59
   7 -10  -3   13.59    3.39
   7 -10  -2    3.29    1.70
   7  10  -2    6.57    3.02
   7 -10  -2    5.57    2.47
   7 -10  -1   97.79    7.16
   7  10  -1   95.19    8.18
   7 -10  -1  101.27    7.89
   7 -10   0   66.98    6.35
   7  10   0   74.02    7.29
   7 -10   0   77.81    6.64
   7 -10   1   52.91    5.67
   7  10   1   61.10    6.49
   7 -10   1   52.51    5.28
   7 -10   2  115.94    8.74
   7  10   2  122.44    9.26
   7 -10   2  119.18    7.69
   7 -10   3   -2.42    2.45
   7  10   3    3.63    2.58
   7 -10   3   -3.05    1.82
   7 -10   4  306.46   15.74
   7  10   4  341.98   16.63
   7 -10   5    9.77    3.23
   7  10   5    6.54    2.68
   7 -10   6  347.63   17.71
   7  10   6  352.25   17.55
   7 -10   7    0.65    1.96
   7  11  -8   23.27    4.60
   7 -11  -8   26.98    5.14
   7  11  -7    6.50    3.09
   7 -11  -7    2.95    2.83
   7  11  -6  236.54   13.85
   7 -11  -6  250.62   14.84
   7  11  -5    6.37    2.95
   7 -11  -5    3.33    2.63
   7  11  -4  161.24   10.92
   7 -11  -4  167.29   11.26
   7 -11  -3    4.14    1.71
   7  11  -3    4.82    2.80
   7 -11  -3    4.32    2.05
   7 -11  -2  237.29   11.06
   7  11  -2  230.60   13.07
   7 -11  -2  228.26   12.66
   7 -11  -1   11.20    2.78
   7  11  -1   11.12    3.37
   7 -11  -1   10.97    3.01
   7 -11   0   77.96    6.72
   7  11   0   81.11    7.59
   7 -11   0   93.78    7.33
   7 -11   1    1.12    1.82
   7  11   1   -3.24    3.04
   7 -11   2   96.33    8.03
   7  11   2  114.10    9.16
   7 -11   2  104.26    7.15
   7 -11   3   23.36    4.26
   7  11   3   37.05    5.60
   7 -11   4   10.81    3.52
   7  11   4   14.53    3.84
   7 -11   5   67.92    7.34
   7  11   5   69.70    7.33
   7 -11   6    4.16    2.68
   7 -11   7    1.07    2.23
   7  12  -7   98.03    9.01
   7 -12  -7   99.45    9.62
   7  12  -6    7.79    3.13
   7 -12  -6    0.19    2.62
   7  12  -5  190.60   12.24
   7 -12  -5  179.96   12.20
   7  12  -4    0.99    2.22
   7 -12  -4    2.08    3.50
   7  12  -3   88.89    8.12
   7 -12  -3   93.56    8.21
   7 -12  -2   -2.26    1.66
   7  12  -2    2.85    2.41
   7 -12  -2    0.79    1.80
   7 -12  -1  108.33    7.48
   7  12  -1  122.33    9.35
   7 -12  -1  108.92    8.22
   7 -12   0    4.62    2.20
   7  12   0    3.07    2.18
   7 -12   0    7.22    2.61
   7 -12   1    5.45    2.64
   7  12   1    1.79    2.09
   7 -12   1    0.81    1.65
   7 -12   2    8.27    2.95
   7  12   2    4.45    2.83
   7 -12   3    6.96    2.93
   7  12   3    5.31    2.88
   7 -12   4    3.87    2.52
   7  12   4    1.14    1.96
   7 -12   5    2.48    2.53
   7 -12   6   30.23    5.15
   7 -13  -7    2.93    2.75
   7 -13  -6  112.05    9.97
   7  13  -5    5.02    2.94
   7 -13  -5    2.31    2.68
   7  13  -4   63.81    6.87
   7 -13  -4   53.00    6.62
   7  13  -3   13.47    3.68
   7 -13  -3   17.59    4.10
   7  13  -2   19.27    4.05
   7 -13  -2   19.83    4.06
   7 -13  -1   57.79    5.52
   7  13  -1   45.57    6.04
   7 -13  -1   46.17    5.50
   7 -13   0    2.02    1.65
   7  13   0    4.16    2.20
   7 -13   0    4.06    2.41
   7 -13   1   41.37    5.19
   7  13   1   46.80    6.11
   7 -13   1   45.43    5.06
   7 -13   2    2.76    2.10
   7  13   2    9.59    3.38
   7 -13   3  116.47    9.23
   7  13   3  123.04    9.87
   7 -13   4    4.55    2.72
   7 -13   5  137.65   10.59
   7 -13   6    6.25    3.31
   7 -14  -6   10.39    3.51
   7 -14  -5    2.04    2.38
   7 -14  -4   13.18    3.71
   7  14  -3   -0.48    2.37
   7 -14  -3    0.92    2.14
   7  14  -2    1.73    2.62
   7 -14  -2    3.91    2.59
   7  14  -1   95.66    8.61
   7 -14  -1   93.85    7.83
   7 -14   0    4.80    1.92
   7  14   0    2.50    2.42
   7 -14   0    4.59    2.43
   7 -14   1   46.19    5.50
   7  14   1   43.39    5.93
   7 -14   2   69.89    7.01
   7  14   2   91.08    8.47
   7 -14   3   -0.11    2.27
   7 -14   4  392.92   18.66
   7 -14   5   10.98    3.69
   7 -15  -6   14.50    4.09
   7 -15  -5    8.78    3.83
   7 -15  -4  143.26   10.72
   7 -15  -3    7.05    3.10
   7 -15  -2   60.24    6.51
   7 -15  -1   38.92    5.32
   7 -15   0   63.95    6.21
   7 -15   1   90.43    7.73
   7 -15   2    5.03    2.70
   7 -15   3  189.40   12.13
   7 -15   4   12.74    3.53
   7 -15   5  129.88   10.42
   7 -16  -5  127.46   10.65
   7 -16  -4    1.25    2.06
   7 -16  -3  181.16   11.99
   7 -16  -2   -4.46    2.62
   7 -16  -1   46.58    5.58
   7 -16   1   40.08    5.16
   7 -16   2   17.87    3.74
   7 -16   3   13.42    3.36
   7 -16   4    3.90    2.73
   7 -16   5   -4.87    2.90
   7 -17  -4   58.17    7.00
   7 -17  -3    1.51    2.35
   7 -17  -2   66.29    7.08
   7 -17   3   26.65    4.89
   7 -17   4   22.05    4.70
   7 -18  -4    9.77    3.97
   7 -18  -3   24.70    4.61
   8   0  -8    9.18    2.93
   8   0  -7    2.25    2.02
   8   0  -6   68.84    6.36
   8   0  -5    0.01    1.64
   8   0  -4  228.80   12.06
   8   0  -3    2.47    2.03
   8   0  -2  312.35   14.60
   8   0  -1    0.02    1.76
   8   0   0   87.45    7.27
   8   0   1   -2.41    2.32
   8   0   2  201.79   11.87
   8   0   3   -1.41    2.01
   8   0   4   45.64    5.87
   8   0   5    2.10    2.53
   8   0   6   11.81    3.97
   8   0   6    5.48    3.14
   8   1  -9    3.59    2.42
   8  -1  -8   66.73    6.04
   8   1  -8   69.55    6.45
   8  -1  -7   34.51    4.51
   8   1  -7   35.56    4.93
   8  -1  -7   47.62    6.73
   8  -1  -6  114.49    8.07
   8   1  -6  111.22    8.19
   8  -1  -5   75.35    6.48
   8   1  -5   75.54    6.77
   8   1  -4   38.64    4.84
   8  -1  -4   37.03    4.63
   8  -1  -3  152.63    9.43
   8   1  -3  142.67    9.41
   8  -1  -2    4.33    2.18
   8   1  -2    5.86    2.58
   8  -1  -1  194.66   11.00
   8   1  -1  193.79   11.25
   8  -1   0    9.56    2.81
   8   1   0   10.08    3.19
   8  -1   1   60.46    6.19
   8   1   1   66.84    6.66
   8  -1   2   37.76    5.24
   8   1   2   41.79    5.58
   8  -1   3    6.42    2.59
   8   1   3    8.21    3.24
   8  -1   4   38.61    5.43
   8   1   4   37.79    5.33
   8  -1   5   -1.79    2.55
   8   1   5    5.13    2.97
   8  -1   5   -0.28    2.45
   8  -1   6   85.92    8.48
   8  -1   6   86.80    8.24
   8   1   6   83.35    8.08
   8   2 -10   13.67    3.49
   8   2  -9  163.17   10.48
   8   2  -8    2.19    2.28
   8  -2  -7  127.20    8.16
   8   2  -7  118.44    8.68
   8  -2  -7  140.17   10.86
   8  -2  -6    3.41    2.11
   8   2  -6    4.19    1.98
   8  -2  -6    9.68    3.46
   8  -2  -5   67.77    6.02
   8   2  -5   71.96    6.64
   8  -2  -5   68.33    7.51
   8   2  -4    8.16    2.82
   8  -2  -4   10.22    2.78
   8   2  -3    6.70    2.56
   8  -2  -3    6.12    2.34
   8  -2  -2   -2.10    2.31
   8   2  -2    2.61    2.31
   8  -2  -1   -0.85    1.96
   8   2  -1   -2.69    2.37
   8  -2   0    4.61    2.08
   8   2   0   13.15    3.61
   8  -2   1   55.53    5.97
   8   2   1   58.34    6.47
   8  -2   2    8.48    2.94
   8   2   2    7.62    2.87
   8   2   3  101.47    8.58
   8  -2   3   95.20    8.03
   8  -2   4    3.44    2.60
   8   2   4   -0.01    2.00
   8  -2   4    1.76    2.10
   8  -2   5  189.20   12.62
   8  -2   5  174.52   11.43
   8   2   5  166.41   11.36
   8   2   6    0.75    2.68
   8  -2   6    0.68    2.22
   8   3 -11    3.26    2.22
   8   3 -10   26.67    4.46
   8   3  -9    7.81    3.07
   8   3  -8  172.62   10.94
   8   3  -7   27.00    4.43
   8  -3  -7   34.89    5.86
   8  -3  -6   56.85    5.23
   8   3  -6   51.66    5.91
   8  -3  -6   69.24    7.59
   8  -3  -5   49.30    5.11
   8   3  -5   52.09    5.88
   8  -3  -5   53.70    6.79
   8   3  -4    6.14    2.54
   8  -3  -4    5.49    2.26
   8  -3  -4    7.52    3.26
   8   3  -3   32.59    4.71
   8  -3  -3   31.83    4.11
   8   3  -2    0.74    2.04
   8  -3  -2   -2.79    2.07
   8  -3  -1    8.84    2.82
   8   3  -1    7.76    2.91
   8  -3   0   65.90    6.22
   8   3   0   63.21    6.80
   8  -3   1    2.67    2.00
   8   3   1    4.92    2.97
   8   3   2   96.84    8.30
   8  -3   2   91.09    7.65
   8  -3   2   99.60    8.62
   8  -3   3    8.30    3.06
   8   3   3   17.93    4.17
   8  -3   3    4.23    2.83
   8  -3   4   86.76    8.42
   8   3   4   98.52    8.63
   8  -3   4   98.60    8.27
   8   3   5    4.90    2.36
   8  -3   5    2.36    3.74
   8  -3   6  126.87   10.49
   8   3   6  128.14   10.13
   8   4 -11   35.32    5.46
   8   4 -10    3.64    2.46
   8   4  -9   40.50    5.47
   8   4  -8   17.79    4.11
   8   4  -7   55.09    6.16
   8  -4  -7   63.41    7.61
   8   4  -6   57.95    6.42
   8  -4  -6   63.12    7.67
   8   4  -5   17.42    3.80
   8  -4  -5    9.84    2.63
   8  -4  -5   10.03    3.91
   8  -4  -4  115.23    7.62
   8   4  -4  126.22    9.14
   8  -4  -4  137.85   10.44
   8   4  -3   24.68    4.40
   8  -4  -3   23.87    3.59
   8  -4  -3   26.39    4.75
   8  -4  -2  166.73    9.52
   8   4  -2  165.25   10.58
   8  -4  -2  159.01   10.83
   8  -4  -1   35.99    4.55
   8   4  -1   39.43    5.52
   8  -4   0  299.10   13.83
   8   4   0  328.15   15.82
   8  -4   1    9.58    3.38
   8   4   1    9.48    3.24
   8  -4   1    7.46    2.98
   8  -4   2   22.69    4.03
   8   4   2   18.07    4.02
   8  -4   2   21.86    4.13
   8  -4   3    4.80    2.71
   8   4   3    4.89    2.59
   8  -4   3    3.50    2.83
   8  -4   4   15.81    4.24
   8  -4   4   15.02    3.71
   8   4   4   12.76    3.54
   8  -4   5   64.00    7.45
   8   4   5   74.03    7.56
   8  -4   6    9.57    3.67
   8   5 -10   32.96    5.10
   8   5  -9   12.57    3.77
   8   5  -8   44.65    5.78
   8   5  -7   35.58    5.24
   8  -5  -7   41.90    6.42
   8   5  -6    8.44    2.80
   8  -5  -6   12.95    3.94
   8   5  -5   84.48    7.68
   8  -5  -5   93.65    9.01
   8   5  -4   23.85    4.30
   8  -5  -4   19.71    3.19
   8  -5  -4   27.25    4.87
   8  -5  -3  195.60   10.18
   8   5  -3  210.21   12.27
   8  -5  -3  208.61   12.82
   8   5  -2   -0.48    2.20
   8  -5  -2    4.23    1.55
   8  -5  -2    8.77    3.13
   8  -5  -2    6.23    2.33
   8  -5  -1  205.92   11.67
   8  -5  -1  206.19   10.69
   8   5  -1  207.53   12.13
   8  -5  -1  194.54   11.81
   8  -5   0    7.24    2.56
   8   5   0   13.59    3.62
   8  -5   0    9.24    3.08
   8  -5   0    6.39    2.80
   8  -5   1  260.20   13.92
   8   5   1  268.90   14.44
   8  -5   1  256.74   12.86
   8  -5   1  264.27   13.44
   8  -5   2    8.83    3.02
   8   5   2    4.49    2.72
   8  -5   2    8.62    2.78
   8  -5   2    2.47    2.30
   8  -5   3  123.02    9.67
   8   5   3  115.58    9.49
   8  -5   3  104.34    8.25
   8  -5   3  116.88    8.18
   8  -5   4    9.89    3.49
   8   5   4    7.61    3.29
   8  -5   5   12.48    3.95
   8   5   5   12.94    3.82
   8   6  -9   80.43    7.81
   8   6  -8   10.56    3.50
   8   6  -7  224.32   13.19
   8  -6  -7  247.89   15.02
   8   6  -6   23.84    4.59
   8  -6  -6   32.13    5.49
   8   6  -5   77.81    7.42
   8  -6  -5   91.70    8.74
   8   6  -4   25.59    4.30
   8  -6  -4   36.05    5.52
   8  -6  -4   29.67    4.05
   8   6  -3    7.47    2.98
   8  -6  -3   11.85    3.89
   8  -6  -3    1.84    1.94
   8  -6  -2  114.75    8.24
   8   6  -2  105.11    8.62
   8  -6  -2   99.26    6.94
   8  -6  -2  118.29    9.22
   8   6  -1   14.24    3.69
   8  -6  -1   11.48    2.78
   8  -6  -1   10.94    3.21
   8  -6  -1   10.57    2.98
   8  -6   0   92.83    7.74
   8   6   0   81.87    7.79
   8  -6   0   83.58    6.68
   8  -6   0   92.48    7.74
   8  -6   1    0.05    2.09
   8  -6   1    2.08    1.89
   8   6   1    2.92    2.66
   8  -6   1    2.23    2.25
   8  -6   2   26.11    4.77
   8   6   2   27.17    4.92
   8  -6   2   25.44    4.16
   8  -6   3   80.02    8.01
   8   6   3   84.32    8.09
   8  -6   3   71.38    6.50
   8  -6   4    5.98    3.08
   8   6   4    8.77    3.31
   8  -6   5  103.80    9.51
   8   7  -8   71.65    7.48
   8   7  -7   -0.54    2.20
   8   7  -6   76.77    7.63
   8  -7  -6   88.06    8.69
   8   7  -5    1.28    2.11
   8  -7  -5   -2.69    2.57
   8   7  -4    4.30    2.61
   8  -7  -4    7.66    3.33
   8  -7  -3    0.27    1.50
   8   7  -3   -1.43    2.17
   8  -7  -2    4.44    2.36
   8   7  -2    2.16    2.40
   8  -7  -2    8.47    3.13
   8  -7  -1   25.61    4.19
   8   7  -1   23.12    4.11
   8  -7  -1   20.82    3.22
   8  -7  -1   21.25    4.04
   8  -7   0    8.79    2.98
   8  -7   0    7.36    2.11
   8   7   0    1.71    2.22
   8  -7   0    7.32    2.99
   8  -7   1    1.23    1.95
   8   7   1   -0.70    2.35
   8  -7   1    1.76    1.86
   8  -7   2   52.62    6.50
   8   7   2   58.52    6.93
   8  -7   2   53.04    5.80
   8  -7   3    7.09    2.97
   8   7   3    4.49    2.70
   8  -7   4  130.04   10.44
   8   7   4  131.26   10.31
   8  -7   5    0.30    2.53
   8   8  -7   28.21    4.99
   8   8  -6   33.85    5.30
   8  -8  -6   26.98    5.07
   8   8  -5   42.49    5.71
   8  -8  -5   43.06    6.19
   8   8  -4   27.77    4.81
   8  -8  -4   31.67    5.13
   8  -8  -3    5.19    2.23
   8   8  -3    7.74    3.25
   8  -8  -3    4.22    2.83
   8  -8  -2   98.96    7.61
   8   8  -2  113.62    9.13
   8  -8  -2  109.90    9.03
   8  -8  -1   10.84    3.16
   8   8  -1    9.81    3.12
   8  -8  -1   17.76    4.14
   8  -8   0   12.25    3.07
   8   8   0    7.82    2.38
   8  -8   0   11.41    3.03
   8  -8   1    7.08    2.62
   8   8   1    8.10    3.13
   8  -8   1    6.92    2.51
   8  -8   2   38.69    5.69
   8   8   2   44.67    5.87
   8  -8   2   40.01    4.83
   8  -8   3   80.69    8.17
   8   8   3  106.80    9.25
   8  -8   4   17.12    4.17
   8  -8   5  160.63   11.83
   8   9  -6    7.37    2.98
   8  -9  -6    5.30    3.08
   8   9  -5   84.77    8.16
   8  -9  -5   86.52    8.67
   8   9  -4   25.05    4.75
   8  -9  -4   24.44    4.82
   8   9  -3  106.90    9.46
   8  -9  -3  100.80    8.99
   8  -9  -2   -1.84    1.78
   8   9  -2    3.52    2.25
   8  -9  -2    1.70    2.22
   8  -9  -1  241.04   12.58
   8   9  -1  221.14   13.41
   8  -9  -1  230.28   13.01
   8  -9   0    1.55    2.19
   8   9   0    1.90    2.26
   8  -9   0    2.23    2.13
   8  -9   1  103.88    8.57
   8   9   1  117.83    9.64
   8  -9   1  113.63    8.33
   8  -9   2    0.53    1.94
   8   9   2   -1.55    2.64
   8  -9   3   43.17    5.97
   8  -9   4   71.08    7.76
   8  -9   5    5.41    2.86
   8 -10  -5   17.38    4.04
   8  10  -4  163.85   11.45
   8 -10  -4  144.63   11.03
   8  10  -3    7.37    2.84
   8 -10  -3   15.27    3.80
   8  10  -2  113.21    9.34
   8 -10  -2  129.54    9.81
   8 -10  -1    2.74    1.97
   8  10  -1    2.00    2.62
   8 -10  -1    2.81    2.02
   8 -10   0  177.01   10.94
   8  10   0  180.67   12.05
   8 -10   0  185.65   11.11
   8 -10   1    9.83    3.23
   8 -10   1    8.76    2.65
   8 -10   2  194.12   12.35
   8 -10   3    6.22    2.97
   8 -10   4   76.96    8.13
   8 -11  -5    9.92    3.25
   8 -11  -4   94.37    8.96
   8 -11  -3    4.33    2.54
   8 -11  -2   12.45    3.50
   8 -11  -1   53.42    6.13
   8 -11   0    1.15    1.95
   8 -11   0    0.86    2.16
   8 -11   1   24.71    4.34
   8 -11   2   41.51    5.70
   8 -11   3   28.16    5.05
   8 -11   4  164.87   11.92
   8 -12  -5    7.56    3.64
   8 -12  -4    7.51    2.99
   8 -12  -3    5.21    2.83
   8 -12  -2   -0.04    2.36
   8 -12  -1   22.91    4.37
   8 -12   0   38.00    4.97
   8 -12   1   58.56    6.53
   8 -12   2    7.54    3.14
   8 -12   3  137.31   10.56
   8 -12   4   10.95    3.60
   8 -13  -4    9.13    3.36
   8 -13  -3   84.44    8.60
   8 -13  -2    3.22    2.37
   8 -13  -1   38.00    5.25
   8 -13   1   28.15    4.60
   8 -13   2   46.72    6.31
   8 -13   3   10.34    3.30
   8 -13   4   33.57    5.58
   8 -14  -4   39.99    5.96
   8 -14  -3    2.13    2.47
   8 -14  -2  151.37   11.00
   8 -14   2  108.57    9.13
   8 -14   3   -0.79    2.40
   8 -15  -3  110.12    9.77
   9   0  -5   -3.49    2.46
   9   0  -4   50.60    5.90
   9   0  -3   -0.22    1.85
   9   0  -2   21.59    4.00
   9   0  -1    1.77    2.00
   9   0   0    7.38    3.09
   9   0   1    1.20    2.49
   9   0   2   36.23    5.46
   9   0   3   -1.54    1.86
   9   1  -6    1.76    2.31
   9   1  -5   36.52    5.02
   9  -1  -4   15.01    3.56
   9   1  -4   10.05    3.09
   9  -1  -3    7.37    2.59
   9   1  -3    2.84    2.20
   9  -1  -2   59.35    6.35
   9   1  -2   58.65    6.48
   9  -1  -1    9.68    3.41
   9   1  -1   12.67    3.34
   9   1   0   62.57    6.83
   9  -1   0   59.20    6.40
   9  -1   1    7.94    3.00
   9   1   1    6.57    2.63
   9  -1   2   27.18    4.56
   9   1   2   29.19    4.69
   9  -1   3   34.75    5.28
   9   1   3   32.44    5.28
   9   2  -7   18.72    3.99
   9   2  -6    3.57    2.38
   9   2  -5   28.68    4.82
   9   2  -4   23.90    4.31
   9  -2  -3   60.87    6.20
   9   2  -3   58.05    6.53
   9  -2  -2    2.18    2.14
   9   2  -2    9.55    3.18
   9  -2  -1   87.01    7.68
   9   2  -1   95.92    8.41
   9  -2   0    1.64    2.09
   9   2   0    0.54    2.11
   9  -2   1   87.55    7.84
   9   2   1   90.22    8.29
   9  -2   2    5.01    2.70
   9   2   2    9.82    3.26
   9  -2   3   91.32    8.55
   9  -2   4    4.20    2.91
   9   3  -7   29.03    4.79
   9   3  -6   11.99    3.47
   9   3  -5    3.93    2.45
   9   3  -4   82.26    7.83
   9   3  -3    3.07    2.31
   9  -3  -3    2.43    2.58
   9  -3  -2   90.64    7.57
   9   3  -2   81.00    7.90
   9  -3  -2   90.36    8.76
   9  -3  -1    5.75    2.36
   9   3  -1    8.35    3.35
   9  -3   0   90.84    7.75
   9   3   0  107.10    9.08
   9  -3   1    0.39    2.06
   9   3   1    6.24    3.22
   9  -3   1    8.40    3.02
   9  -3   2  170.63   12.01
   9  -3   2  156.86   10.84
   9  -3   3   10.59    3.43
   9  -3   4   17.76    3.93
   9   4  -7   -0.89    2.24
   9   4  -6   40.43    5.49
   9   4  -5    6.85    2.75
   9   4  -4   46.19    6.01
   9   4  -3    8.54    2.97
   9  -4  -3    7.33    3.38
   9   4  -2    5.83    3.00
   9  -4  -2    1.71    2.23
   9  -4  -1   18.33    3.67
   9   4  -1   18.39    4.09
   9  -4  -1   13.88    3.98
   9  -4  -1   16.22    3.86
   9  -4   0    5.11    2.48
   9   4   0    7.95    3.01
   9  -4   0    7.83    3.27
   9  -4   0    5.88    3.08
   9  -4   1   87.49    8.46
   9  -4   1   89.38    7.89
   9  -4   1  104.93    8.73
   9  -4   2   11.02    3.39
   9  -4   2   14.18    4.02
   9  -4   3   28.80    4.85
   9   5  -5  152.80   11.03
   9   5  -4   -6.47    2.79
   9   5  -3   78.52    7.76
   9  -5  -3   77.45    8.21
   9   5  -2   -1.94    2.20
   9  -5  -2    4.42    3.00
   9  -5  -2    1.27    1.90
   9   5  -1   -1.87    2.43
   9  -5  -1    4.56    2.86
   9  -5  -1    1.00    2.04
   9  -5   0    0.67    2.07
   9  -5   0    3.27    2.38
   9  -5   1    3.14    2.72
   9  -5   1    3.81    2.43
   9  -5   1    1.20    2.22
   9  -5   2   12.15    3.61
   9  -5   2    8.62    2.99
   9  -6  -3   47.38    6.62
   9  -6  -2    5.48    2.81
   9  -6  -2    8.65    3.07
   9  -6  -1   44.16    6.10
   9  -6  -1   41.46    5.60
   9  -6   0    6.20    2.99
   9  -6   0    3.22    2.76
   9  -6   1  165.95   11.67
   9  -6   2   18.19    4.45
   9  -7  -3    5.63    2.86
   9  -7  -2  109.45    9.58
   9  -7  -1    4.17    2.59
   9  -7  -1    3.06    2.26
   9  -7   0  202.10   12.58
   9  -7   0  204.75   12.70
   9  -7   1    1.70    2.21
   9  -7   2   98.73    9.02
   9  -8  -3   71.72    8.01
   9  -8  -2    0.41    2.44
   9  -8  -1  120.02    9.76
   9  -8   0    5.25    2.92
   9  -8   1   74.70    7.76
   9  -8   2   13.06    3.76
   9  -9  -2   34.51    5.69
   9  -9  -1    8.85    3.09
   9  -9   1    6.26    2.81
   9  -9   2   21.01    4.60
   9 -10  -2   26.85    5.14
   0   0   0    0.00    0.00


TITL pvl488Se_autored in P2(1)/c
REM P2(1)/c (#14 in standard setting)
CELL 0.71073   7.131860  19.954113  13.468734  90.0000  93.2649  90.0000
ZERR   22.00   0.000244   0.000637   0.000405   0.0000   0.0030   0.0000
LATT  1
SYMM -x, y+1/2,-z+1/2
SFAC C H N O Se Cd
UNIT 22.00 22.00 22.00 22.00 22.00 22.00
REM  CrysAlisPro recorded range (K): Min=150.0; max=150.0; aver:150.0
TEMP -123
TREF
HKLF 4
END
_computing_structure_solution     'SHELXT 2018/2 (Sheldrick, 2018)'
;
_shelx_hkl_checksum   67618

