 
data_pvl540_a
 
_audit_creation_method            'SHELXL-2018/3'
_shelx_SHELXL_version_number      '2018/3'
_chemical_name_systematic         ?
_chemical_name_common             ?
_chemical_melting_point           ?
_chemical_formula_moiety          ?
_chemical_formula_sum
 'C4.50 H2.50 Co0.25 N2 O S0.25' 
_chemical_formula_weight          123.33

loop_
 _atom_type_symbol
 _atom_type_description
 _atom_type_scat_dispersion_real
 _atom_type_scat_dispersion_imag
 _atom_type_scat_source
 'C'  'C'   0.0033   0.0016
 'International Tables Vol C Tables 4.2.6.8 and 6.1.1.4'
 'H'  'H'   0.0000   0.0000
 'International Tables Vol C Tables 4.2.6.8 and 6.1.1.4'
 'N'  'N'   0.0061   0.0033
 'International Tables Vol C Tables 4.2.6.8 and 6.1.1.4'
 'O'  'O'   0.0106   0.0060
 'International Tables Vol C Tables 4.2.6.8 and 6.1.1.4'
 'S'  'S'   0.1246   0.1234
 'International Tables Vol C Tables 4.2.6.8 and 6.1.1.4'
 'Co'  'Co'   0.3494   0.9721
 'International Tables Vol C Tables 4.2.6.8 and 6.1.1.4'
 
_space_group_crystal_system       triclinic
_space_group_IT_number            2
_space_group_name_H-M_alt         'P -1'
_space_group_name_Hall            '-P 1'
 
_shelx_space_group_comment
;
The symmetry employed for this shelxl refinement is uniquely defined
by the following loop, which should always be used as a source of
symmetry information in preference to the above space-group names.
They are only intended as comments.
;
 
loop_
 _space_group_symop_operation_xyz
 'x, y, z'
 '-x, -y, -z'
 
_cell_length_a                    7.2922(10)
_cell_length_b                    11.9243(16)
_cell_length_c                    11.9557(16)
_cell_angle_alpha                 107.537(4)
_cell_angle_beta                  103.488(5)
_cell_angle_gamma                 103.222(5)
_cell_volume                      912.4(2)
_cell_formula_units_Z             8
_cell_measurement_temperature     150(2)
_cell_measurement_reflns_used     ?
_cell_measurement_theta_min       ?
_cell_measurement_theta_max       ?
 
_exptl_crystal_description        ?
_exptl_crystal_colour             ?
_exptl_crystal_density_meas       ?
_exptl_crystal_density_method     ?
_exptl_crystal_density_diffrn     1.796          
_exptl_crystal_F_000              498
_exptl_transmission_factor_min    ?
_exptl_transmission_factor_max    ?
_exptl_crystal_size_max           ?
_exptl_crystal_size_mid           ?
_exptl_crystal_size_min           ?
_exptl_absorpt_coefficient_mu     1.105
_shelx_estimated_absorpt_T_min    ?
_shelx_estimated_absorpt_T_max    ?
_exptl_absorpt_correction_type    ?
_exptl_absorpt_correction_T_min   ?
_exptl_absorpt_correction_T_max   ?
_exptl_absorpt_process_details    ?
_exptl_absorpt_special_details    ?
_diffrn_ambient_temperature       150(2)
_diffrn_radiation_wavelength      0.71073
_diffrn_radiation_type            MoK\a
_diffrn_source                    ?
_diffrn_measurement_device_type   ?
_diffrn_measurement_method        ?
_diffrn_detector_area_resol_mean  ?
_diffrn_reflns_number             7399
_diffrn_reflns_av_unetI/netI      0.0617
_diffrn_reflns_av_R_equivalents   0.0366
_diffrn_reflns_limit_h_min        -8
_diffrn_reflns_limit_h_max        8
_diffrn_reflns_limit_k_min        -14
_diffrn_reflns_limit_k_max        14
_diffrn_reflns_limit_l_min        -12
_diffrn_reflns_limit_l_max        14
_diffrn_reflns_theta_min          1.892
_diffrn_reflns_theta_max          25.728
_diffrn_reflns_theta_full         25.242
_diffrn_measured_fraction_theta_max   0.987
_diffrn_measured_fraction_theta_full  0.990
_diffrn_reflns_Laue_measured_fraction_max    0.987
_diffrn_reflns_Laue_measured_fraction_full   0.990
_diffrn_reflns_point_group_measured_fraction_max   0.987
_diffrn_reflns_point_group_measured_fraction_full  0.990
_reflns_number_total              3449
_reflns_number_gt                 2804
_reflns_threshold_expression      'I > 2\s(I)'
_reflns_Friedel_coverage          0.000
_reflns_Friedel_fraction_max      .
_reflns_Friedel_fraction_full     .
 
_reflns_special_details
;
 Reflections were merged by SHELXL according to the crystal
 class for the calculation of statistics and refinement.
 
 _reflns_Friedel_fraction is defined as the number of unique
 Friedel pairs measured divided by the number that would be
 possible theoretically, ignoring centric projections and
 systematic absences.
;
 
_computing_data_collection        ?
_computing_cell_refinement        ?
_computing_data_reduction         ?
_computing_structure_solution     'SHELXT 2018/2 (Sheldrick, 2018)'
_computing_structure_refinement 'SHELXL-2018/3 (Sheldrick, 2018)'
_computing_molecular_graphics     ?
_computing_publication_material   ?
_refine_special_details           ?
_refine_ls_structure_factor_coef  Fsqd
_refine_ls_matrix_type            full
_refine_ls_weighting_scheme       calc
_refine_ls_weighting_details
'w=1/[\s^2^(Fo^2^)+4.7309P] where P=(Fo^2^+2Fc^2^)/3'
_atom_sites_solution_primary      ?
_atom_sites_solution_secondary    ?
_atom_sites_solution_hydrogens    geom
_refine_ls_hydrogen_treatment     constr
_refine_ls_extinction_method      none
_refine_ls_extinction_coef        .
_refine_ls_number_reflns          3449
_refine_ls_number_parameters      298
_refine_ls_number_restraints      0
_refine_ls_R_factor_all           0.0854
_refine_ls_R_factor_gt            0.0698
_refine_ls_wR_factor_ref          0.1526
_refine_ls_wR_factor_gt           0.1477
_refine_ls_goodness_of_fit_ref    1.185
_refine_ls_restrained_S_all       1.185
_refine_ls_shift/su_max           0.000
_refine_ls_shift/su_mean          0.000
 
loop_
 _atom_site_label
 _atom_site_type_symbol
 _atom_site_fract_x
 _atom_site_fract_y
 _atom_site_fract_z
 _atom_site_U_iso_or_equiv
 _atom_site_adp_type
 _atom_site_occupancy
 _atom_site_site_symmetry_order  
 _atom_site_calc_flag
 _atom_site_refinement_flags_posn
 _atom_site_refinement_flags_adp
 _atom_site_refinement_flags_occupancy
 _atom_site_disorder_assembly
 _atom_site_disorder_group
Co01 Co 0.75114(12) 0.60338(7) 0.89553(7) 0.0274(2) Uani 1 1 d . . . . .
N1 N 0.5627(9) 0.2094(4) 0.8200(4) 0.0418(14) Uani 1 1 d . . . . .
N2 N -0.0665(9) -0.3198(4) 0.2893(4) 0.0417(14) Uani 1 1 d . . . . .
O003 O 0.5191(6) 0.6778(3) 0.8992(3) 0.0313(9) Uani 1 1 d . . . . .
N004 N 0.0228(6) -0.2119(4) 0.2793(4) 0.0200(9) Uani 1 1 d . . . . .
O005 O 0.9825(6) 0.6002(3) 0.8214(3) 0.0324(10) Uani 1 1 d . . . . .
O006 O 0.8156(6) 0.8052(3) 0.9384(3) 0.0323(10) Uani 1 1 d . . . . .
O007 O 0.6844(6) 0.5618(3) 0.6944(3) 0.0329(10) Uani 1 1 d . . . . .
N008 N 0.4780(6) 0.2197(4) 0.7115(4) 0.0213(10) Uani 1 1 d . . . . .
N009 N -0.1302(7) -0.3440(4) 0.0893(4) 0.0247(10) Uani 1 1 d . . . . .
N00A N 0.6318(7) 0.4097(4) 0.8422(4) 0.0265(11) Uani 1 1 d . . . . .
C00B C 0.1376(8) -0.1043(5) 0.3880(5) 0.0216(11) Uani 1 1 d . . . . .
C00E C 0.3627(8) 0.1111(5) 0.6031(5) 0.0228(11) Uani 1 1 d . . . . .
C00F C 0.8630(9) 0.5678(5) 0.7113(5) 0.0288(13) Uani 1 1 d . . . . .
C00G C 0.5633(9) 0.8968(5) 0.9641(5) 0.0313(14) Uani 1 1 d . . . . .
C00H C -0.0172(9) -0.2276(5) 0.1597(5) 0.0306(14) Uani 1 1 d . . . . .
H00H H 0.028263 -0.164927 0.129599 0.037 Uiso 1 1 calc R U . . .
C00I C 0.6383(10) 0.7886(5) 0.9320(5) 0.0325(14) Uani 1 1 d . . . . .
C00J C 0.6527(9) 0.3263(5) 0.8953(5) 0.0334(14) Uani 1 1 d . . . . .
H00J H 0.726384 0.350030 0.980241 0.040 Uiso 1 1 calc R U . . .
C00K C 0.5188(9) 0.3389(5) 0.7265(5) 0.0329(14) Uani 1 1 d . . . . .
H00K H 0.473552 0.368796 0.663469 0.040 Uiso 1 1 calc R U . . .
C00L C -0.1564(9) -0.3951(5) 0.1725(5) 0.0338(14) Uani 1 1 d . . . . .
H00L H -0.234048 -0.479294 0.148998 0.041 Uiso 1 1 calc R U . . .
C00M C 0.3622(9) 0.8811(5) 0.9421(5) 0.0319(14) Uani 1 1 d . . . . .
H00M H 0.267982 0.799811 0.903049 0.038 Uiso 1 1 calc R U . . .
C00N C 1.1371(9) 0.5574(5) 0.6184(5) 0.0316(14) Uani 1 1 d . . . . .
H00N H 1.231373 0.596853 0.699631 0.038 Uiso 1 1 calc R U . . .
C00O C 0.3051(9) -0.0030(5) 0.6095(5) 0.0306(13) Uani 1 1 d . . . . .
H00O H 0.341265 -0.010809 0.687805 0.037 Uiso 1 1 calc R U . . .
C00P C 0.9366(9) 0.5354(5) 0.6028(5) 0.0305(13) Uani 1 1 d . . . . .
C00Q C 0.1921(9) -0.1103(5) 0.5018(5) 0.0309(14) Uani 1 1 d . . . . .
H00Q H 0.153666 -0.188583 0.509571 0.037 Uiso 1 1 calc R U . . .
C00S C 0.3079(9) 0.1213(5) 0.4856(5) 0.0311(13) Uani 1 1 d . . . . .
C00U C 0.7025(10) 1.0177(5) 1.0237(5) 0.0359(15) Uani 1 1 d . . . . .
H00U H 0.840859 1.029313 1.040235 0.043 Uiso 1 1 calc R U . . .
C00V C 0.7976(10) 0.4772(5) 0.4824(5) 0.0359(15) Uani 1 1 d . . . . .
H00V H 0.659350 0.461823 0.470415 0.043 Uiso 1 1 calc R U . . .
C0 C 0.1949(9) 0.0122(5) 0.3769(5) 0.0305(13) Uani 1 1 d . . . . .
N3 N 0.1538(11) 0.0367(5) 0.2735(5) 0.066(2) Uani 1 1 d . . . . .
N4 N 0.3523(11) 0.2254(5) 0.4619(5) 0.068(2) Uani 1 1 d . . . . .
S2 S 0.2060(16) 0.1883(11) 0.3193(11) 0.077(4) Uani 0.5 1 d . . P A 1
S1 S 0.2940(15) 0.1798(10) 0.3123(10) 0.062(3) Uani 0.5 1 d . . P A 2
 
loop_
 _atom_site_aniso_label
 _atom_site_aniso_U_11
 _atom_site_aniso_U_22
 _atom_site_aniso_U_33
 _atom_site_aniso_U_23
 _atom_site_aniso_U_13
 _atom_site_aniso_U_12
Co01 0.0307(4) 0.0171(4) 0.0186(4) 0.0012(3) -0.0018(3) -0.0033(3)
N1 0.069(4) 0.022(2) 0.022(2) 0.004(2) -0.001(3) 0.014(3)
N2 0.066(4) 0.022(2) 0.024(2) 0.004(2) 0.015(3) -0.003(2)
O003 0.033(2) 0.0197(19) 0.027(2) 0.0038(16) -0.0017(17) 0.0012(17)
N004 0.018(2) 0.015(2) 0.018(2) -0.0009(17) 0.0027(18) 0.0017(17)
O005 0.036(2) 0.024(2) 0.0213(19) 0.0025(16) 0.0033(17) -0.0031(17)
O006 0.037(2) 0.0214(19) 0.026(2) 0.0055(16) 0.0029(18) 0.0002(18)
O007 0.039(3) 0.023(2) 0.025(2) 0.0063(16) 0.0021(18) 0.0014(18)
N008 0.022(2) 0.017(2) 0.015(2) -0.0003(17) 0.0016(18) 0.0017(18)
N009 0.022(2) 0.021(2) 0.022(2) 0.0033(18) 0.0017(19) 0.0029(18)
N00A 0.028(3) 0.017(2) 0.022(2) 0.0033(18) 0.002(2) -0.0021(19)
C00B 0.020(3) 0.019(2) 0.019(2) 0.001(2) 0.005(2) 0.004(2)
C00E 0.020(3) 0.021(3) 0.019(2) 0.000(2) 0.005(2) 0.002(2)
C00F 0.038(4) 0.018(3) 0.024(3) 0.005(2) 0.009(3) 0.001(2)
C00G 0.040(4) 0.019(3) 0.023(3) 0.004(2) 0.002(3) 0.003(2)
C00H 0.036(3) 0.020(3) 0.021(3) 0.003(2) -0.001(2) -0.001(2)
C00I 0.046(4) 0.020(3) 0.019(3) 0.007(2) -0.002(3) 0.001(3)
C00J 0.046(4) 0.025(3) 0.017(3) 0.003(2) 0.003(3) 0.005(3)
C00K 0.039(3) 0.021(3) 0.022(3) 0.005(2) -0.004(3) -0.003(2)
C00L 0.047(4) 0.015(3) 0.027(3) 0.001(2) 0.009(3) -0.001(2)
C00M 0.035(3) 0.019(3) 0.030(3) 0.004(2) 0.001(3) 0.003(2)
C00N 0.036(3) 0.024(3) 0.022(3) 0.002(2) 0.004(2) -0.001(2)
C00O 0.044(4) 0.022(3) 0.017(3) 0.004(2) 0.006(3) 0.004(3)
C00P 0.035(3) 0.022(3) 0.024(3) 0.005(2) 0.006(2) 0.000(2)
C00Q 0.041(3) 0.019(3) 0.025(3) 0.008(2) 0.006(3) 0.001(2)
C00S 0.039(3) 0.023(3) 0.019(3) 0.005(2) 0.001(2) -0.001(2)
C00U 0.042(4) 0.021(3) 0.032(3) 0.007(2) -0.001(3) 0.003(3)
C00V 0.038(3) 0.033(3) 0.023(3) 0.007(2) 0.006(3) -0.004(3)
C0 0.037(3) 0.020(3) 0.024(3) 0.006(2) 0.002(2) 0.000(2)
N3 0.113(6) 0.022(3) 0.024(3) 0.007(2) -0.014(3) -0.012(3)
N4 0.116(6) 0.021(3) 0.024(3) 0.007(2) -0.012(3) -0.015(3)
S2 0.131(9) 0.023(2) 0.031(4) 0.007(2) -0.024(5) -0.001(5)
S1 0.120(7) 0.016(3) 0.0163(19) 0.0054(17) 0.001(4) -0.018(4)
 
_geom_special_details
;
 All esds (except the esd in the dihedral angle between two l.s. planes)
 are estimated using the full covariance matrix.  The cell esds are taken
 into account individually in the estimation of esds in distances, angles
 and torsion angles; correlations between esds in cell parameters are only
 used when they are defined by crystal symmetry.  An approximate (isotropic)
 treatment of cell esds is used for estimating esds involving l.s. planes.
;
 
loop_
 _geom_bond_atom_site_label_1
 _geom_bond_atom_site_label_2
 _geom_bond_distance
 _geom_bond_site_symmetry_2
 _geom_bond_publ_flag
Co01 O005 2.083(4) . ?
Co01 O003 2.086(4) . ?
Co01 N00A 2.105(4) . ?
Co01 N009 2.109(4) 1_666 ?
Co01 O007 2.211(4) . ?
Co01 O006 2.214(4) . ?
Co01 C00F 2.475(6) . ?
Co01 C00I 2.482(6) . ?
N1 C00J 1.317(7) . ?
N1 N008 1.355(6) . ?
N2 C00L 1.317(7) . ?
N2 N004 1.356(6) . ?
O003 C00I 1.288(6) . ?
N004 C00H 1.335(7) . ?
N004 C00B 1.425(6) . ?
O005 C00F 1.282(6) . ?
O006 C00I 1.243(8) . ?
O007 C00F 1.252(7) . ?
N008 C00K 1.331(7) . ?
N008 C00E 1.430(6) . ?
N009 C00H 1.328(6) . ?
N009 C00L 1.342(7) . ?
N00A C00K 1.324(7) . ?
N00A C00J 1.349(7) . ?
C00B C00Q 1.355(7) . ?
C00B C0 1.412(7) . ?
C00E C00O 1.360(7) . ?
C00E C00S 1.419(7) . ?
C00F C00P 1.497(8) . ?
C00G C00M 1.386(9) . ?
C00G C00U 1.411(7) . ?
C00G C00I 1.495(8) . ?
C00M C00U 1.378(8) 2_677 ?
C00N C00V 1.381(8) 2_766 ?
C00N C00P 1.382(8) . ?
C00O C00Q 1.416(7) . ?
C00P C00V 1.406(8) . ?
C00S N4 1.340(7) . ?
C00S C0 1.432(7) . ?
C0 N3 1.337(7) . ?
N3 S1 1.636(11) . ?
N3 S2 1.645(13) . ?
N4 S1 1.622(12) . ?
N4 S2 1.651(13) . ?
 
loop_
 _geom_angle_atom_site_label_1
 _geom_angle_atom_site_label_2
 _geom_angle_atom_site_label_3
 _geom_angle
 _geom_angle_site_symmetry_1
 _geom_angle_site_symmetry_3
 _geom_angle_publ_flag
O005 Co01 O003 141.77(16) . . ?
O005 Co01 N00A 96.36(17) . . ?
O003 Co01 N00A 108.10(17) . . ?
O005 Co01 N009 108.45(17) . 1_666 ?
O003 Co01 N009 96.01(17) . 1_666 ?
N00A Co01 N009 99.94(17) . 1_666 ?
O005 Co01 O007 61.43(16) . . ?
O003 Co01 O007 91.38(16) . . ?
N00A Co01 O007 84.85(16) . . ?
N009 Co01 O007 169.44(17) 1_666 . ?
O005 Co01 O006 91.63(16) . . ?
O003 Co01 O006 61.17(15) . . ?
N00A Co01 O006 168.89(18) . . ?
N009 Co01 O006 84.75(16) 1_666 . ?
O007 Co01 O006 92.25(14) . . ?
O005 Co01 C00F 31.18(17) . . ?
O003 Co01 C00F 118.52(18) . . ?
N00A Co01 C00F 89.11(17) . . ?
N009 Co01 C00F 139.64(19) 1_666 . ?
O007 Co01 C00F 30.31(17) . . ?
O006 Co01 C00F 93.79(16) . . ?
O005 Co01 C00I 118.43(19) . . ?
O003 Co01 C00I 31.23(17) . . ?
N00A Co01 C00I 139.3(2) . . ?
N009 Co01 C00I 88.94(18) 1_666 . ?
O007 Co01 C00I 93.52(17) . . ?
O006 Co01 C00I 30.00(17) . . ?
C00F Co01 C00I 109.41(19) . . ?
C00J N1 N008 102.4(4) . . ?
C00L N2 N004 102.5(4) . . ?
C00I O003 Co01 91.6(4) . . ?
C00H N004 N2 109.7(4) . . ?
C00H N004 C00B 130.1(4) . . ?
N2 N004 C00B 120.1(4) . . ?
C00F O005 Co01 91.5(4) . . ?
C00I O006 Co01 87.0(3) . . ?
C00F O007 Co01 86.6(3) . . ?
C00K N008 N1 110.0(4) . . ?
C00K N008 C00E 129.6(5) . . ?
N1 N008 C00E 120.5(4) . . ?
C00H N009 C00L 103.1(4) . . ?
C00H N009 Co01 120.0(4) . 1_444 ?
C00L N009 Co01 136.3(3) . 1_444 ?
C00K N00A C00J 103.1(4) . . ?
C00K N00A Co01 120.6(4) . . ?
C00J N00A Co01 136.0(4) . . ?
C00Q C00B C0 119.0(5) . . ?
C00Q C00B N004 122.0(5) . . ?
C0 C00B N004 119.1(5) . . ?
C00O C00E C00S 118.8(5) . . ?
C00O C00E N008 121.5(5) . . ?
C00S C00E N008 119.8(5) . . ?
O007 C00F O005 120.2(5) . . ?
O007 C00F C00P 120.0(5) . . ?
O005 C00F C00P 119.9(6) . . ?
O007 C00F Co01 63.1(3) . . ?
O005 C00F Co01 57.3(3) . . ?
C00P C00F Co01 174.0(4) . . ?
C00M C00G C00U 119.4(6) . . ?
C00M C00G C00I 121.8(5) . . ?
C00U C00G C00I 118.8(6) . . ?
N009 C00H N004 109.7(5) . . ?
O006 C00I O003 119.9(6) . . ?
O006 C00I C00G 120.3(5) . . ?
O003 C00I C00G 119.8(6) . . ?
O006 C00I Co01 63.0(3) . . ?
O003 C00I Co01 57.1(3) . . ?
C00G C00I Co01 174.1(4) . . ?
N1 C00J N00A 114.6(5) . . ?
N00A C00K N008 109.9(5) . . ?
N2 C00L N009 114.9(5) . . ?
C00U C00M C00G 120.6(5) 2_677 . ?
C00V C00N C00P 121.0(5) 2_766 . ?
C00E C00O C00Q 121.2(5) . . ?
C00N C00P C00V 119.3(6) . . ?
C00N C00P C00F 121.6(5) . . ?
C00V C00P C00F 119.1(5) . . ?
C00B C00Q C00O 121.7(5) . . ?
N4 C00S C00E 126.8(5) . . ?
N4 C00S C0 113.5(5) . . ?
C00E C00S C0 119.7(5) . . ?
C00M C00U C00G 120.0(6) 2_677 . ?
C00N C00V C00P 119.7(6) 2_766 . ?
N3 C0 C00B 127.6(5) . . ?
N3 C0 C00S 112.7(5) . . ?
C00B C0 C00S 119.7(5) . . ?
C0 N3 S1 105.7(5) . . ?
C0 N3 S2 106.1(6) . . ?
C00S N4 S1 105.6(5) . . ?
C00S N4 S2 105.3(6) . . ?
N3 S2 N4 97.8(7) . . ?
N4 S1 N3 99.3(6) . . ?
 
_refine_diff_density_max    0.777
_refine_diff_density_min   -0.788
_refine_diff_density_rms    0.100

_shelx_res_file
;
TITL pvl540_a.res in P-1
    pvl540_a.res
    created by SHELXL-2018/3 at 16:21:33 on 05-Dec-2021
REM Old TITL pvl540 in P-1
REM SHELXT solution in P-1: R1 0.217, Rweak 0.033, Alpha 0.075
REM <I/s>   0.000 for    0 systematic absences,  Orientation as input
REM Formula found by SHELXT:  C22 N4 O5 Co
CELL  0.71073   7.2922  11.9243  11.9557  107.537  103.488  103.222
ZERR    8.000   0.0010   0.0016   0.0016    0.004    0.005    0.005
LATT  1
SFAC C H N O S CO
UNIT 36 20 16 8 2 2
ACTA
LIST 4
TEMP -123.150
L.S. 10
BOND
REM LIST 6
FMAP 2
PLAN 20
WGHT    0.000000    4.730900
FVAR       0.50228
CO01  6    0.751139    0.603377    0.895535    11.00000    0.03074    0.01714 =
         0.01857    0.00120   -0.00175   -0.00326
N1    3    0.562735    0.209396    0.819975    11.00000    0.06918    0.02194 =
         0.02229    0.00425   -0.00071    0.01426
N2    3   -0.066490   -0.319807    0.289308    11.00000    0.06572    0.02240 =
         0.02402    0.00398    0.01467   -0.00284
O003  4    0.519085    0.677797    0.899216    11.00000    0.03272    0.01968 =
         0.02741    0.00382   -0.00166    0.00122
N004  3    0.022819   -0.211914    0.279281    11.00000    0.01810    0.01488 =
         0.01811   -0.00091    0.00267    0.00174
O005  4    0.982452    0.600244    0.821374    11.00000    0.03637    0.02448 =
         0.02127    0.00250    0.00333   -0.00305
O006  4    0.815648    0.805191    0.938423    11.00000    0.03729    0.02142 =
         0.02627    0.00552    0.00291    0.00019
O007  4    0.684432    0.561771    0.694422    11.00000    0.03947    0.02336 =
         0.02453    0.00629    0.00215    0.00141
N008  3    0.477992    0.219667    0.711467    11.00000    0.02216    0.01721 =
         0.01487   -0.00029    0.00158    0.00171
N009  3   -0.130187   -0.343981    0.089254    11.00000    0.02243    0.02051 =
         0.02228    0.00328    0.00172    0.00285
N00A  3    0.631838    0.409730    0.842206    11.00000    0.02820    0.01739 =
         0.02186    0.00326    0.00162   -0.00210
C00B  1    0.137578   -0.104318    0.387977    11.00000    0.01977    0.01920 =
         0.01915    0.00114    0.00453    0.00391
C00E  1    0.362664    0.111085    0.603088    11.00000    0.02034    0.02096 =
         0.01859    0.00016    0.00540    0.00213
C00F  1    0.862965    0.567821    0.711338    11.00000    0.03772    0.01825 =
         0.02350    0.00513    0.00900    0.00084
C00G  1    0.563279    0.896828    0.964074    11.00000    0.04027    0.01946 =
         0.02298    0.00389    0.00174    0.00337
C00H  1   -0.017219   -0.227593    0.159715    11.00000    0.03649    0.01978 =
         0.02086    0.00330   -0.00087   -0.00117
AFIX  43
H00H  2    0.028263   -0.164927    0.129599    11.00000   -1.20000
AFIX   0
C00I  1    0.638297    0.788572    0.931952    11.00000    0.04595    0.01964 =
         0.01919    0.00677   -0.00226    0.00108
C00J  1    0.652710    0.326326    0.895319    11.00000    0.04628    0.02503 =
         0.01701    0.00256    0.00302    0.00474
AFIX  43
H00J  2    0.726384    0.350030    0.980241    11.00000   -1.20000
AFIX   0
C00K  1    0.518800    0.338915    0.726457    11.00000    0.03882    0.02061 =
         0.02195    0.00501   -0.00443   -0.00342
AFIX  43
H00K  2    0.473552    0.368796    0.663469    11.00000   -1.20000
AFIX   0
C00L  1   -0.156441   -0.395125    0.172526    11.00000    0.04723    0.01476 =
         0.02667    0.00107    0.00867   -0.00069
AFIX  43
H00L  2   -0.234048   -0.479294    0.148998    11.00000   -1.20000
AFIX   0
C00M  1    0.362160    0.881108    0.942083    11.00000    0.03498    0.01877 =
         0.02959    0.00387    0.00102    0.00276
AFIX  43
H00M  2    0.267982    0.799811    0.903049    11.00000   -1.20000
AFIX   0
C00N  1    1.137094    0.557357    0.618395    11.00000    0.03606    0.02359 =
         0.02151    0.00167    0.00445   -0.00123
AFIX  43
H00N  2    1.231373    0.596853    0.699631    11.00000   -1.20000
AFIX   0
C00O  1    0.305057   -0.002997    0.609539    11.00000    0.04421    0.02247 =
         0.01715    0.00412    0.00644    0.00443
AFIX  43
H00O  2    0.341265   -0.010809    0.687805    11.00000   -1.20000
AFIX   0
C00P  1    0.936593    0.535353    0.602788    11.00000    0.03514    0.02223 =
         0.02447    0.00518    0.00630   -0.00001
C00Q  1    0.192148   -0.110331    0.501817    11.00000    0.04099    0.01896 =
         0.02517    0.00752    0.00646    0.00119
AFIX  43
H00Q  2    0.153666   -0.188583    0.509571    11.00000   -1.20000
AFIX   0
C00S  1    0.307918    0.121320    0.485570    11.00000    0.03870    0.02311 =
         0.01884    0.00504    0.00118   -0.00059
C00U  1    0.702514    1.017688    1.023687    11.00000    0.04201    0.02072 =
         0.03226    0.00716   -0.00055    0.00339
AFIX  43
H00U  2    0.840859    1.029313    1.040235    11.00000   -1.20000
AFIX   0
C00V  1    0.797583    0.477230    0.482384    11.00000    0.03773    0.03326 =
         0.02341    0.00712    0.00599   -0.00408
AFIX  43
H00V  2    0.659350    0.461823    0.470415    11.00000   -1.20000
AFIX   0
C0    1    0.194934    0.012171    0.376896    11.00000    0.03671    0.01973 =
         0.02363    0.00618    0.00159   -0.00040
N3    3    0.153807    0.036688    0.273534    11.00000    0.11343    0.02207 =
         0.02369    0.00716   -0.01355   -0.01246
N4    3    0.352348    0.225406    0.461948    11.00000    0.11638    0.02146 =
         0.02411    0.00684   -0.01221   -0.01472
PART 1
S2    5    0.206006    0.188349    0.319258    10.50000    0.13133    0.02346 =
         0.03053    0.00715   -0.02385   -0.00118
PART 0
PART 2
S1    5    0.294036    0.179815    0.312261    10.50000    0.11954    0.01642 =
         0.01632    0.00542    0.00080   -0.01809
PART 0
HKLF 4




REM  pvl540_a.res in P-1
REM wR2 = 0.1526, GooF = S = 1.185, Restrained GooF = 1.185 for all data
REM R1 = 0.0698 for 2804 Fo > 4sig(Fo) and 0.0854 for all 3449 data
REM 298 parameters refined using 0 restraints

END

WGHT      0.0000      4.7309

REM Highest difference peak  0.777,  deepest hole -0.788,  1-sigma level  0.100
Q1    1   0.6776  0.6457  0.9394  11.00000  0.05    0.78
Q2    1   0.7360  0.5607  0.9432  11.00000  0.05    0.69
Q3    1   0.7550  0.6583  0.8522  11.00000  0.05    0.64
Q4    1   0.7505  0.7149  0.9485  11.00000  0.05    0.53
Q5    1   0.8751  0.6002  0.8210  11.00000  0.05    0.48
Q6    1   0.7210  0.4762  0.8198  11.00000  0.05    0.37
Q7    1   0.3770 -0.1777  0.6367  11.00000  0.05    0.33
Q8    1   0.0967 -0.2438  0.2432  11.00000  0.05    0.32
Q9    1   0.8218  0.9993  0.9764  11.00000  0.05    0.32
Q10   1   0.2827 -0.1406  0.4378  11.00000  0.05    0.31
Q11   1   1.1635  0.5970  0.5761  11.00000  0.05    0.31
Q12   1   0.1536 -0.1612  0.6877  11.00000  0.05    0.31
Q13   1  -0.2066 -0.3023  0.1111  11.00000  0.05    0.30
Q14   1   0.5651  0.0995  0.8911  11.00000  0.05    0.30
Q15   1   1.1583  0.6810  0.6774  11.00000  0.05    0.30
Q16   1   0.6457  0.4818  0.8804  11.00000  0.05    0.30
Q17   1   0.9111  0.8762  0.9077  11.00000  0.05    0.30
Q18   1   1.0669  0.6235  0.8912  11.00000  0.05    0.30
Q19   1   0.5799  0.5245  0.6022  11.00000  0.05    0.29
Q20   1   0.9703  0.6594  0.9002  11.00000  0.05    0.29
;
_shelx_res_checksum   90562

_shelx_hkl_file
;
  -1   0   0    4.10    1.10
  -1   0   0    6.50    1.20
   1   0   0    3.70    1.10
   1   0   0    6.40    1.30
  -2   0   0  825.32   39.90
  -2   0   0  809.62   39.60
   2   0   0  791.32   39.60
   2   0   0  783.92   39.60
  -3   0   0   -0.70    1.70
  -3   0   0    0.30    1.60
   3   0   0    0.80    2.00
   3   0   0    0.50    1.60
  -4   0   0  102.89    6.80
  -4   0   0   99.99    6.50
   4   0   0  101.89    6.70
   4   0   0   96.79    6.70
  -5   0   0    2.70    2.50
  -5   0   0   -6.00    2.60
   5   0   0    1.50    2.60
   6   0   0   31.30    5.20
  -7   0   0    1.00    3.30
  -7   0   0    3.40    4.40
  -8   0   0   33.90    6.80
  -8   0   0   45.20    7.50
  -8   1   0   53.39    7.40
  -7   1   0    9.90    4.50
   6  -1   0   12.80    3.80
  -6   1   0   24.10    5.20
  -6   1   0   17.60    3.80
   5  -1   0  100.99    7.30
  -5   1   0  126.09    7.70
  -5   1   0  108.09    7.50
  -5   1   0   96.79    7.00
   4  -1   0  109.89    7.00
  -4   1   0  110.29    6.90
  -4   1   0  106.39    6.90
   3  -1   0   62.89    4.60
  -3   1   0   64.99    4.50
  -3   1   0   72.49    4.70
   2  -1   0   46.30    3.10
  -2   1   0   30.10    2.80
  -2   1   0   34.50    3.40
  -2   1   0   38.70    3.20
   1  -1   0  714.13   34.20
   1  -1   0  684.43   34.10
  -1   1   0  695.23   34.20
  -1   1   0  697.23   34.10
   0  -1   0  267.67   13.20
  -1  -1   0 3577.34  172.78
   1   1   0 3520.65  172.78
  -2  -1   0   48.70    4.00
  -2  -1   0   58.39    4.10
   2   1   0   53.09    4.20
   2   1   0   53.29    4.20
  -3  -1   0  114.79    7.10
  -3  -1   0  117.09    7.20
   3   1   0  116.99    7.20
   3   1   0  114.49    7.10
  -4  -1   0  127.39   10.60
  -4  -1   0  114.49    7.60
   4   1   0  129.59    7.90
   4   1   0  126.09    8.00
  -5  -1   0   17.60    3.40
   5   1   0   26.80    4.10
  -6  -1   0   58.69    6.20
   6   1   0   66.89    6.60
  -7  -1   0    4.80    3.70
   7   1   0   15.30    4.90
  -8   2   0    6.40    4.30
  -8   2   0   20.40    5.90
   7  -2   0   54.49    6.60
  -7   2   0   59.49    6.70
   6  -2   0   -1.50    2.90
  -6   2   0    2.80    3.20
  -6   2   0    3.80    3.00
   5  -2   0  222.98   12.50
  -5   2   0  219.08   12.40
  -5   2   0  222.78   12.40
  -5   2   0  216.48   12.50
   4  -2   0   98.09    6.70
  -4   2   0  117.69    6.90
   3  -2   0   70.49    4.60
  -3   2   0   65.29    4.50
  -3   2   0   72.99    4.90
  -3   2   0   75.19    4.90
   2  -2   0 3136.29  164.68
   2  -2   0 3621.44  164.88
  -2   2   0 3283.67  164.68
  -2   2   0 3500.35  164.88
   1  -2   0    4.10    1.50
   1  -2   0    2.50    0.80
  -1   2   0    2.20    1.30
   0  -2   0    7.80    1.30
   0  -2   0    4.40    1.40
   0   2   0    5.00    1.40
  -1  -2   0  925.11   45.20
  -1  -2   0  921.41   45.30
   1   2   0  900.41   45.20
  -2  -2   0   28.00    3.20
  -2  -2   0   30.80    3.30
   2   2   0   23.90    3.20
  -3  -2   0   81.69    5.70
  -3  -2   0   86.39    5.80
   3   2   0   79.79    5.80
  -4  -2   0    5.20    2.50
  -4  -2   0    4.10    2.50
   4   2   0    7.30    2.90
  -5  -2   0   93.59    7.20
  -5  -2   0   90.39    7.70
   5   2   0   89.19    7.20
  -6  -2   0   39.40    5.60
   6   2   0   45.60    6.20
  -7  -2   0   16.00    5.20
   7   2   0   22.40    5.40
  -8   3   0   29.40    6.20
   7  -3   0   13.40    4.30
  -7   3   0   15.40    4.60
   6  -3   0   12.00    3.30
  -6   3   0   21.60    4.20
  -6   3   0   14.00    3.50
  -6   3   0   17.90    4.30
   5  -3   0   51.69    4.80
  -5   3   0   50.99    4.80
  -5   3   0   57.99    5.20
  -5   3   0   50.99    4.60
   4  -3   0  140.79    8.20
  -4   3   0  142.89    8.50
  -4   3   0  146.99    8.40
  -4   3   0  146.19    8.10
   3  -3   0  329.77   17.00
   3  -3   0  334.87   16.70
  -3   3   0  323.87   16.90
   2  -3   0   28.20    2.20
  -2   3   0   19.90    2.00
  -2   3   0   24.10    3.00
   1  -3   0  186.98    9.40
   1  -3   0  185.18    9.80
  -1   3   0  184.58    9.40
  -1   3   0  181.28    9.80
   0  -3   0   28.30    3.00
   0  -3   0   30.70    3.00
   0   3   0   30.20    2.90
   0   3   0   29.30    3.10
  -1  -3   0  217.68   11.90
  -1  -3   0  225.08   12.00
  -1  -3   0  226.68   11.90
   1   3   0  223.48   12.00
  -2  -3   0   11.50    2.50
  -2  -3   0   14.20    2.40
  -2  -3   0   14.70    2.70
   2   3   0   12.30    2.50
  -3  -3   0   55.19    7.20
  -3  -3   0   56.49    4.70
  -3  -3   0   42.30    4.40
   3   3   0   51.69    4.60
  -4  -3   0    3.00    2.40
  -4  -3   0    5.70    2.70
   4   3   0    3.40    2.70
  -5  -3   0  367.66   20.30
   5   3   0  361.46   20.10
  -6  -3   0   15.90    4.10
   6   3   0   18.20    4.40
  -7  -3   0   23.80    5.30
   7   3   0   26.20    5.50
  -8   4   0   40.50    6.60
   7  -4   0    2.30    3.50
  -7   4   0    3.00    4.00
   6  -4   0   29.90    4.30
  -6   4   0   35.40    4.90
  -6   4   0   26.50    4.90
  -6   4   0   22.30    4.30
   5  -4   0    3.60    2.30
  -5   4   0    5.70    2.50
  -5   4   0    4.70    2.70
  -5   4   0    3.30    2.20
   4  -4   0   53.39    4.10
  -4   4   0   67.19    4.80
  -4   4   0   49.70    3.80
   3  -4   0  433.66   22.60
   3  -4   0  462.75   23.10
  -3   4   0  456.55   23.00
  -3   4   0  463.65   22.60
   2  -4   0  312.77   16.20
  -2   4   0  314.77   16.20
   1  -4   0  648.44   31.30
   1  -4   0  622.24   31.70
  -1   4   0  644.14   31.30
  -1   4   0  620.44   31.70
   0  -4   0  490.45   24.90
   0  -4   0  489.45   25.10
   0   4   0  515.75   25.00
   0   4   0  490.05   25.10
  -1  -4   0  829.02   41.50
  -1  -4   0  843.72   41.50
  -1  -4   0  824.32   41.60
   1   4   0  834.02   41.70
  -2  -4   0   66.59    5.30
  -2  -4   0   62.99    5.10
  -2  -4   0   74.29    5.30
   2   4   0   68.59    5.30
  -3  -4   0  232.18   13.30
  -3  -4   0  232.38   13.30
   3   4   0  238.68   13.40
  -4  -4   0    8.60    2.80
   4   4   0    6.50    2.90
  -5  -4   0    5.10    3.20
   5   4   0    8.00    3.40
  -6  -4   0   18.60    4.60
   6   4   0   21.80    4.90
  -7  -4   0    2.40    4.00
   7   4   0   -3.90    5.10
   8  -5   0    4.60    4.50
  -8   5   0    2.40    4.80
   7  -5   0   25.90    4.50
  -7   5   0   13.10    4.30
  -7   5   0   29.30    5.10
   6  -5   0    3.80    2.90
  -6   5   0    1.60    2.60
  -6   5   0    4.60    3.70
  -6   5   0    3.70    3.30
   5  -5   0   13.80    2.70
  -5   5   0   12.60    2.40
  -5   5   0   23.60    3.80
   4  -5   0  403.96   21.00
   4  -5   0  394.46   20.40
  -4   5   0  422.06   20.90
  -4   5   0  391.16   20.30
   3  -5   0   85.79    5.80
  -3   5   0   82.79    5.70
   2  -5   0  794.72   39.70
   2  -5   0  805.02   39.10
  -2   5   0  793.22   39.10
  -2   5   0  787.12   39.70
   1  -5   0   31.50    3.50
   1  -5   0   28.50    2.70
  -1   5   0   21.50    3.00
  -1   5   0   23.10    2.80
   0  -5   0 2128.89  104.99
   0  -5   0 2136.59  104.69
   0   5   0 2126.49  104.99
   0   5   0 2159.18  104.79
  -1  -5   0   86.89    6.00
  -1  -5   0   84.29    5.80
  -1  -5   0   86.19    5.80
   1   5   0   77.99    6.00
  -2  -5   0  289.87   16.30
  -2  -5   0  311.27   16.50
  -2  -5   0  306.07   16.40
   2   5   0  300.67   16.50
  -3  -5   0    4.00    2.60
   3   5   0    4.60    2.60
  -4  -5   0  211.48   12.70
   4   5   0  198.48   12.50
  -5  -5   0   23.30    4.80
   5   5   0   23.50    4.70
  -6  -5   0   16.90    4.60
   6   5   0   15.50    4.80
   8  -6   0   22.40    5.30
  -8   6   0   36.00    6.50
   7  -6   0   22.20    4.20
  -7   6   0   13.40    3.90
  -7   6   0   31.20    5.40
  -6   6   0   35.50    4.30
  -6   6   0   39.70    5.00
   5  -6   0   46.50    6.00
  -5   6   0   76.59    5.90
   4  -6   0  166.88   10.30
  -4   6   0  178.48   10.10
   3  -6   0  446.66   22.50
  -3   6   0  441.36   22.40
  -3   6   0  412.46   21.90
   2  -6   0  290.67   15.00
   2  -6   0  292.57   15.70
  -2   6   0  296.27   15.10
  -2   6   0  293.77   15.70
   1  -6   0  472.15   23.60
   1  -6   0  471.65   24.10
  -1   6   0  462.75   23.70
  -1   6   0  461.25   24.10
   0  -6   0   26.10    3.30
   0  -6   0   27.80    3.80
   0   6   0   30.90    4.00
   0   6   0   24.60    3.00
  -1  -6   0  582.94   30.10
  -1  -6   0  589.44   30.40
  -1  -6   0  584.34   30.00
   1   6   0  600.34   30.40
  -2  -6   0   37.40    4.50
  -2  -6   0   41.80    6.00
  -2  -6   0   45.10    5.00
   2   6   0   38.70    4.80
  -3  -6   0   45.40    5.40
   3   6   0   39.20    5.10
  -4  -6   0   45.70    6.00
   4   6   0   48.70    6.30
  -5  -6   0   21.90    4.90
   5   6   0   24.50    5.10
  -6  -6   0    4.00    4.30
   6   6   0   10.70    5.10
   8  -7   0    2.10    4.30
  -8   7   0    7.00    5.60
   7  -7   0   15.70    3.90
  -7   7   0    1.20    6.00
  -7   7   0   30.60    5.50
   6  -7   0    8.00    4.60
  -6   7   0   21.90    4.50
   5  -7   0  163.68   11.30
  -5   7   0  206.28   11.40
  -4   7   0   69.49    5.90
   3  -7   0  337.57   18.50
  -3   7   0  350.06   18.40
   2  -7   0   38.60    3.40
  -2   7   0   35.00    3.40
  -2   7   0   38.10    4.30
   1  -7   0    9.80    3.20
   1  -7   0   11.20    2.20
  -1   7   0   13.00    3.10
  -1   7   0   11.50    2.40
   0  -7   0   18.10    3.60
   0  -7   0   30.70    3.50
   0   7   0   19.50    3.70
  -1  -7   0   34.00    4.20
  -1  -7   0   32.70    4.20
   1   7   0   41.10    5.10
  -2  -7   0  349.87   19.10
   2   7   0  351.66   19.50
  -3  -7   0   36.90    5.20
   3   7   0   40.20    5.80
  -4  -7   0    6.70    3.70
   4   7   0    7.60    3.80
  -5  -7   0   33.10    5.80
   5   7   0   26.60    6.40
  -8   8   0   12.30    5.70
  -7   8   0   14.90    5.30
  -6   8   0    8.00    4.50
   5  -8   0   53.19    7.00
   4  -8   0    7.20    3.70
   3  -8   0   80.79    6.60
  -3   8   0   64.89    6.70
   2  -8   0    4.40    2.00
   2  -8   0    4.00    2.90
  -2   8   0    1.90    1.90
   1  -8   0  121.29    7.10
  -1   8   0  101.89    7.10
  -1   8   0  110.59    8.00
   0  -8   0    3.60    2.40
   0  -8   0    8.80    2.70
   0   8   0    9.10    3.20
  -1  -8   0  168.68   10.50
   1   8   0  174.58   11.20
  -2  -8   0  166.58   10.70
   2   8   0  163.88   11.10
  -3  -8   0  254.87   15.20
   3   8   0  248.48   15.50
   4   8   0   60.19    7.80
  -5  -8   0    8.40    4.60
   5   8   0   14.20    5.00
  -8   9   0    6.20    6.40
  -7   9   0   14.00    5.60
  -6   9   0  128.19    9.90
  -5   9   0   87.69    7.90
  -4   9   0   73.79    7.10
   3  -9   0   91.19    6.00
  -3   9   0   79.59    6.00
  -3   9   0   99.39    7.50
   2  -9   0  173.58    9.40
  -2   9   0  175.98   10.60
  -2   9   0  139.19    9.40
   1  -9   0  305.47   16.40
  -1   9   0  301.47   17.30
   0  -9   0  172.68   10.60
   0   9   0  174.78   11.40
  -1  -9   0   22.40    4.20
   1   9   0   24.80    5.00
  -2  -9   0  152.18   10.60
   2   9   0  166.28   11.30
  -3  -9   0   46.40    6.40
   3   9   0   53.79    7.50
  -4  -9   0  113.39    9.70
   4   9   0  111.59   10.00
  -7  10   0    8.00    5.90
  -6  10   0   23.70    5.90
  -5  10   0   36.00    6.30
  -4  10   0   71.59    7.40
   3 -10   0   19.90    3.40
  -3  10   0   13.90    2.90
  -3  10   0   19.90    4.50
   2 -10   0   97.09    6.80
  -2  10   0   99.99    8.30
   1 -10   0   13.80    3.40
   1 -10   0   23.40    4.60
  -1  10   0   24.70    5.00
   0 -10   0  550.74   28.50
   0  10   0  535.65   29.30
  -1 -10   0    5.10    3.30
   1  10   0    6.70    3.90
  -2 -10   0  131.49   10.10
   2  10   0  140.09   10.70
  -3 -10   0    4.60    4.20
   3  10   0    5.50    4.30
  -7  11   0    4.30    6.40
  -6  11   0   14.00    6.20
  -5  11   0   11.80    5.00
  -4  11   0   58.19    7.50
   3 -11   0   69.19    5.80
  -3  11   0   50.09    5.50
  -3  11   0   86.79    7.80
   2 -11   0   21.00    4.50
  -2  11   0   24.80    5.40
   1 -11   0   70.19    6.50
  -1  11   0   75.99    7.80
   0 -11   0   53.89    6.20
   0  11   0   58.29    7.50
  -1 -11   0   25.60    4.90
   2  11   0   11.40    4.90
  -6  12   0   10.70    6.20
  -5  12   0   98.09    9.70
  -4  12   0   17.10    5.30
   3 -12   0    7.70    3.60
  -3  12   0    8.00    5.00
   2 -12   0   12.40    3.60
  -2  12   0   14.50    5.20
   1 -12   0   19.90    4.20
  -1  12   0   17.20    5.20
   0 -12   0    7.90    3.90
   0  12   0   -0.10    4.30
  -1 -12   0    2.30    4.10
   1  12   0    3.50    4.40
  -5  13   0  105.49   16.00
   3 -13   0   -1.60    3.60
  -3  13   0    2.40    5.90
   2 -13   0   13.70    4.00
  -2  13   0   16.20    5.30
   1 -13   0   33.50    5.20
  -1  13   0   28.30    6.00
   0 -13   0    3.70    4.20
   0  13   0    2.00    4.80
  -2  14  -1   -0.30    5.10
   2 -14   1    7.10    4.10
  -3  14  -1   -0.30    5.30
   3 -14   1    0.10    4.10
   0  13  -1   47.70    7.40
   0 -13   1   47.30    6.30
  -1  13  -1   35.40    6.60
   1 -13   1   29.60    5.10
   2 -13   1   -2.00    3.30
  -3  13  -1    2.00    5.20
   3 -13   1    4.50    3.70
  -4  13  -1   71.29    8.90
   4 -13   1   54.59    9.40
  -5  13  -1   24.10    7.20
   2  12  -1   10.70    4.90
  -2 -12   1   20.40    5.30
   1  12  -1   83.29    8.80
  -1 -12   1   76.89    7.80
   0  12  -1   31.00    8.10
   0 -12   1   40.90    5.50
  -1  12  -1   21.50    5.60
   1 -12   1   32.00    4.70
  -2  12  -1   38.20    6.40
   2 -12   1   26.60    4.30
  -3  12  -1   83.99    8.90
   3 -12   1   96.29    8.50
  -4  12  -1   11.20    3.80
  -4  12  -1   26.40    6.20
   4 -12   1   13.60    4.10
  -5  12  -1   25.90    6.20
  -6  12  -1    5.30    5.90
   3  11  -1   16.90    5.30
  -3 -11   1   25.10    5.80
   2  11  -1    1.70    3.90
  -2 -11   1   -0.10    3.50
   1  11  -1   37.70    6.40
  -1 -11   1   25.60    4.70
   0  11  -1   46.10    6.70
   0 -11   1   48.40    5.90
  -1  11  -1   44.80    6.60
   1 -11   1   40.50    5.00
  -2  11  -1    6.00    3.10
  -2  11  -1   12.10    4.30
   2 -11   1   13.80    3.70
  -3  11  -1   65.79    7.30
  -3  11  -1   48.70    5.70
   3 -11   1   61.29    5.60
  -4  11  -1   17.50    4.80
  -4  11  -1    5.10    3.10
   4 -11   1   11.70    3.20
  -5  11  -1   21.60    5.80
  -6  11  -1    4.60    5.50
  -7  11  -1   13.40    6.40
   4  10  -1   -0.90    3.90
  -4 -10   1    3.40    4.70
   3  10  -1   75.29    8.10
   2  10  -1   76.29    7.90
  -2 -10   1   74.49    7.20
   1  10  -1  126.49    9.80
  -1 -10   1  125.89    9.00
   0  10  -1    5.90    3.80
   0 -10   1    4.20    2.90
  -1  10  -1  268.27   16.40
  -1  10  -1  318.57   17.30
   1 -10   1  300.57   17.00
  -2  10  -1   13.90    4.20
  -2  10  -1   12.20    3.30
   2 -10   1   14.90    3.10
  -3  10  -1   17.70    3.30
  -3  10  -1   29.70    4.90
   3 -10   1   19.80    3.60
  -4  10  -1   13.80    4.50
  -4  10  -1    7.20    2.80
   4 -10   1    9.10    3.00
  -5  10  -1   17.30    4.90
  -6  10  -1   49.90    6.80
  -7  10  -1   15.80    5.90
   4   9  -1   96.69    9.00
  -4  -9   1   98.29    8.90
   3   9  -1   30.50    5.80
  -3  -9   1   27.40    5.00
   2   9  -1  250.27   15.10
  -2  -9   1  238.38   14.60
   1   9  -1   28.00    5.00
  -1  -9   1   30.40    4.30
   0   9  -1  251.87   14.20
   0   9  -1  199.48   13.90
   0  -9   1  251.07   13.50
  -1   9  -1   11.40    3.20
  -1   9  -1   13.90    3.90
   1  -9   1   12.60    2.90
  -2   9  -1  332.17   17.10
  -2   9  -1  280.67   16.20
   2  -9   1  299.27   16.10
  -3   9  -1    1.50    2.20
  -3   9  -1    2.70    3.20
   3  -9   1    2.50    2.30
   3  -9   1    2.80    3.60
  -4   9  -1   55.39    6.40
  -4   9  -1   44.10    4.50
   4  -9   1   42.70    6.00
   4  -9   1   53.59    4.60
  -5   9  -1    7.40    2.70
  -5   9  -1   16.30    4.20
   5  -9   1    5.80    2.80
  -6   9  -1   20.60    5.30
  -7   9  -1   24.10    5.90
  -7   9  -1    5.80    3.60
   7  -9   1   12.90    4.40
   5   8  -1   14.50    5.20
  -5  -8   1   16.10    4.90
   4   8  -1   52.09    7.10
  -4  -8   1   49.70    6.60
   3   8  -1   46.40    6.10
  -3  -8   1   46.00    5.70
   2   8  -1   43.20    6.00
  -2  -8   1   39.70    5.10
   1   8  -1   20.20    4.20
  -1  -8   1   23.20    3.90
   0   8  -1  436.36   23.80
   0   8  -1  445.16   23.50
   0  -8   1  457.45   23.30
  -1   8  -1  383.76   20.40
  -1   8  -1  391.96   21.00
   1  -8   1  374.66   20.90
   1  -8   1  407.86   20.30
  -2   8  -1  131.49    8.00
  -2   8  -1  130.99    8.60
   2  -8   1  125.89    8.70
   2  -8   1  143.79    8.00
  -3   8  -1    9.90    2.30
  -3   8  -1   15.00    3.40
   3  -8   1   14.40    2.50
   3  -8   1   19.20    4.60
  -4   8  -1  385.66   18.90
  -4   8  -1  310.37   17.90
   4  -8   1  361.36   18.10
   4  -8   1  333.17   19.50
  -5   8  -1    2.40    2.30
  -5   8  -1   10.20    3.80
   5  -8   1    6.90    2.80
   5  -8   1    2.40    3.60
  -6   8  -1    8.10    3.00
   6  -8   1   13.40    3.50
   6  -8   1   10.30    4.40
  -7   8  -1    7.70    3.80
  -7   8  -1    7.40    4.70
   7  -8   1   15.60    6.00
  -8   8  -1   20.80    6.10
   8  -8   1   10.10    5.00
   5   7  -1   70.79    8.00
  -5  -7   1   80.09    8.80
   4   7  -1   16.90    4.40
  -4  -7   1   20.10    4.60
   3   7  -1  182.18   11.40
  -3  -7   1  162.48   11.00
   2   7  -1   36.10    5.00
  -2  -7   1   33.50    4.50
  -1  -7   1  101.49    6.80
  -1  -7   1   94.09    7.10
   0   7  -1    1.70    2.00
   0   7  -1   -0.70    2.20
   0  -7   1    1.20    1.90
   0  -7   1    1.60    2.50
  -1   7  -1  315.67   17.70
  -1   7  -1  335.97   17.40
   1  -7   1  329.67   17.80
   1  -7   1  345.97   17.30
  -2   7  -1   69.49    5.50
  -2   7  -1   64.19    4.70
   2  -7   1   68.19    5.50
   2  -7   1   71.99    4.70
  -3   7  -1  104.99    7.00
   3  -7   1   97.59    6.90
  -4   7  -1   39.80    3.80
  -4   7  -1   51.09    4.90
   4  -7   1   45.40    4.10
   4  -7   1   51.59    5.00
  -5   7  -1   62.09    5.10
   5  -7   1   73.29    5.40
   5  -7   1   65.09    6.00
  -6   7  -1   32.00    5.00
  -6   7  -1   26.50    4.90
   6  -7   1   39.10    4.80
  -7   7  -1    2.00    6.90
  -7   7  -1   13.90    4.70
  -7   7  -1    1.60    4.60
   7  -7   1   11.30    4.20
  -8   7  -1   -0.60    5.10
   8  -7   1   -0.70    4.70
  -6  -6   1    1.90    4.10
   5   6  -1   37.40    6.00
  -5  -6   1   41.10    6.00
   4   6  -1  271.87   16.00
  -4  -6   1  268.87   15.80
   3   6  -1   11.90    3.40
  -3  -6   1   10.10    3.10
  -2  -6   1   61.79    5.50
  -2  -6   1   70.49    5.80
  -2  -6   1   69.89    7.00
   1   6  -1  132.39    8.10
   1   6  -1  134.19    8.40
  -1  -6   1  129.79    8.00
   0   6  -1   22.60    3.50
   0   6  -1   22.30    3.00
   0  -6   1   23.80    2.90
   0  -6   1   17.10    3.10
  -1   6  -1  398.96   19.80
  -1   6  -1  368.96   20.10
   1  -6   1  383.96   20.20
   1  -6   1  397.66   19.80
  -2   6  -1  255.27   14.10
   2  -6   1  266.77   14.20
   2  -6   1  269.17   13.70
  -3   6  -1   98.09    6.30
  -3   6  -1   84.89    5.60
   3  -6   1   98.69    6.40
   3  -6   1   97.89    5.80
  -4   6  -1   48.90    4.00
   4  -6   1   51.79    4.20
   4  -6   1   59.59    4.80
  -5   6  -1    1.40    2.60
  -5   6  -1    2.90    2.20
   5  -6   1    2.10    2.40
   5  -6   1    2.30    3.10
  -6   6  -1   13.00    4.20
  -6   6  -1   28.40    4.40
  -6   6  -1   14.20    3.50
   6  -6   1   19.20    3.80
  -7   6  -1   27.90    4.70
  -8   6  -1    5.30    5.20
   8  -6   1    2.20    4.60
   6   5  -1    0.10    4.10
   5   5  -1   51.09    6.60
  -5  -5   1   50.29    6.20
   4   5  -1    0.70    2.90
  -4  -5   1    3.90    2.70
   3   5  -1   82.19    7.20
  -3  -5   1   90.99    6.80
  -3  -5   1   90.19    6.70
   2   5  -1  247.58   13.70
  -2  -5   1  242.38   13.50
   1   5  -1 2001.80   99.59
   1   5  -1 2103.79   99.59
  -1  -5   1 1993.30   99.59
  -1  -5   1 1995.80   99.29
   0   5  -1 1164.58   55.69
   0   5  -1 1096.79   55.89
   0  -5   1 1172.98   55.69
   0  -5   1 1076.69   55.79
  -1   5  -1  104.29    6.70
  -1   5  -1  113.59    6.30
   1  -5   1  113.89    6.30
   1  -5   1  106.89    6.80
  -2   5  -1  746.73   37.00
  -2   5  -1  735.63   37.30
   2  -5   1  786.72   37.10
   2  -5   1  729.33   37.30
   3  -5   1   34.50    3.60
  -4   5  -1    1.30    1.60
  -4   5  -1    2.40    2.20
   4  -5   1    2.90    1.90
   4  -5   1    4.00    2.20
  -5   5  -1   44.00    4.30
  -5   5  -1   53.99    4.80
  -5   5  -1   48.50    4.60
   5  -5   1   50.89    4.60
  -6   5  -1   34.70    4.60
  -6   5  -1   41.90    5.40
  -6   5  -1   32.60    4.50
   6  -5   1   44.00    5.10
  -7   5  -1    9.20    3.70
  -7   5  -1    5.60    7.00
   7  -5   1    7.40    4.20
  -8   5  -1    2.10    5.10
   8  -5   1    1.20    4.50
   7   4  -1    1.20    4.80
  -7  -4   1    2.80    4.10
   6   4  -1  194.78   13.10
  -6  -4   1  212.18   13.30
   5   4  -1   17.00    4.20
  -5  -4   1   24.30    4.20
   4   4  -1   86.59    7.00
  -4  -4   1   85.79    6.80
   3   4  -1    3.70    2.40
  -3  -4   1    7.70    2.90
  -3  -4   1    9.80    2.70
  -3  -4   1    8.50    2.50
   2   4  -1 1310.77   66.09
  -2  -4   1 1330.27   65.89
  -2  -4   1 1315.57   65.89
  -2  -4   1 1369.86   66.09
   1   4  -1   35.90    3.80
   1   4  -1   42.70    3.90
  -1  -4   1   45.90    4.00
  -1  -4   1   41.40    3.80
   0   4  -1 2517.35  121.39
   0   4  -1 2404.56  121.49
   0  -4   1 2579.44  121.39
   0  -4   1 2439.06  121.49
  -1   4  -1  179.08    9.20
  -1   4  -1  165.78    9.40
   1  -4   1  167.98    9.40
   1  -4   1  180.38    9.20
  -2   4  -1  293.87   16.00
  -2   4  -1  347.47   16.80
   2  -4   1  305.37   15.90
  -3   4  -1    1.00    1.80
  -3   4  -1    0.50    1.40
   3  -4   1    1.30    1.60
   3  -4   1    4.10    1.90
  -4   4  -1   23.50    2.90
  -4   4  -1   18.90    2.90
   4  -4   1   19.40    2.70
  -5   4  -1   95.39    6.70
  -5   4  -1  106.39    6.90
  -5   4  -1   94.69    6.70
   5  -4   1  108.99    7.00
  -6   4  -1    0.60    2.80
  -6   4  -1    1.20    3.10
  -6   4  -1    1.80    3.30
  -7   4  -1    1.30    3.30
  -7   4  -1    2.10    7.30
   7  -4   1   -3.30    3.70
  -8   4  -1   21.60    5.70
   8  -4   1   13.90    5.20
   7   3  -1   27.60    5.50
   6   3  -1   -1.70    3.70
  -6  -3   1    0.60    3.40
   5   3  -1  179.48   11.30
  -5  -3   1  177.28   11.20
   4   3  -1  369.16   19.90
  -4  -3   1  348.87   19.80
  -4  -3   1  388.66   19.90
  -4  -3   1  367.26   19.90
   3   3  -1  138.79    8.60
  -3  -3   1  145.09    8.70
  -3  -3   1  136.19    8.50
  -3  -3   1  138.19    8.60
   2   3  -1  383.16   19.70
  -2  -3   1  377.36   19.50
  -2  -3   1  363.76   19.50
  -2  -3   1  386.86   19.70
   1   3  -1  132.59    7.80
   1   3  -1  140.29    7.80
  -1  -3   1  139.79    7.90
  -1  -3   1  132.39    7.70
   0   3  -1 4341.97  209.38
   0  -3   1 4131.49  209.38
   0  -3   1 4431.36  209.38
  -1   3  -1 1604.14   79.79
   1  -3   1 1590.64   79.79
   1  -3   1 1708.63   79.79
  -2   3  -1  151.58    8.10
  -2   3  -1  164.18    8.40
   2  -3   1  148.69    8.10
   2  -3   1  145.99    8.10
  -3   3  -1   10.90    2.00
  -3   3  -1   12.40    2.10
   3  -3   1   11.70    1.90
  -4   3  -1  313.37   16.10
  -4   3  -1  314.87   16.20
  -4   3  -1  303.47   16.10
   4  -3   1  303.07   16.20
  -5   3  -1   16.00    3.00
  -5   3  -1    9.80    2.60
   5  -3   1    8.00    2.70
  -6   3  -1   50.29    5.30
  -6   3  -1   40.60    4.90
   6  -3   1   46.50    5.50
  -7   3  -1   -3.60    4.60
  -7   3  -1    2.20    3.40
   7  -3   1    2.60    3.80
  -8   3  -1   55.19    7.20
   8  -3   1   37.70    6.10
   7   2  -1   41.50    6.40
  -7  -2   1   38.80    5.90
   6   2  -1   11.10    4.30
  -6  -2   1   10.30    3.70
   5   2  -1   45.30    5.50
  -5  -2   1   41.20    4.90
  -5  -2   1   47.30    6.80
   4   2  -1   42.30    4.70
  -4  -2   1   43.70    4.90
  -4  -2   1   38.80    4.50
  -4  -2   1   44.50    4.60
   3   2  -1   71.29    5.40
  -3  -2   1   70.69    5.20
  -3  -2   1   72.99    5.20
  -3  -2   1   68.49    5.40
   2   2  -1   24.40    3.20
  -2  -2   1   23.40    3.10
  -2  -2   1   21.60    2.80
  -2  -2   1   23.30    2.90
   1   2  -1   70.19    4.50
   1   2  -1   63.69    4.40
  -1  -2   1   67.99    4.70
  -1  -2   1   66.19    4.30
   0   2  -1  786.82   37.40
   0   2  -1  731.83   37.40
   0  -2   1  796.02   37.40
   0  -2   1  730.43   37.40
  -1   2  -1 1419.66   69.69
  -1   2  -1 1425.36   69.79
   1  -2   1 1409.16   69.69
   1  -2   1 1471.75   69.89
  -2   2  -1  125.79    7.50
  -2   2  -1  128.69    7.10
   2  -2   1  143.09    7.40
  -3   2  -1  267.57   14.60
  -3   2  -1  277.07   14.80
  -3   2  -1  321.07   15.00
   3  -2   1  271.87   14.80
  -4   2  -1  176.98   10.60
  -4   2  -1  201.38   10.50
  -4   2  -1  190.08   10.50
   4  -2   1  192.58   10.80
  -5   2  -1  131.09    7.80
  -5   2  -1  118.79    8.10
  -5   2  -1  117.89    7.80
   5  -2   1  126.89    8.10
  -6   2  -1   14.70    3.60
   6  -2   1   10.60    3.60
  -7   2  -1   30.80    5.40
   7  -2   1   25.80    5.00
  -8   2  -1    8.90    5.40
  -8  -1   1   32.90    6.10
  -8  -1   1   27.70    7.40
   7   1  -1   20.70    5.10
  -7  -1   1   14.60    4.50
   6   1  -1    8.20    3.80
  -6  -1   1    1.90    3.10
   5   1  -1  141.49    9.00
  -5  -1   1  127.99    9.00
  -5  -1   1  141.89    9.00
  -5  -1   1  132.39    8.80
   4   1  -1   22.00    3.40
  -4  -1   1   10.10    2.20
  -4  -1   1   13.60    2.70
  -4  -1   1   17.90    3.10
   3   1  -1  155.08    9.10
  -3  -1   1  144.89    8.80
  -3  -1   1  160.38    9.00
  -3  -1   1  163.78    9.00
   2   1  -1  246.28   13.20
  -2  -1   1  261.27   13.10
  -2  -1   1  247.48   13.20
  -2  -1   1  249.18   13.10
   1   1  -1  279.27   14.50
  -1  -1   1  280.47   14.50
  -1  -1   1  301.77   14.60
   0   1  -1  711.43   30.90
   0  -1   1  607.74   30.70
   0  -1   1  567.14   30.70
  -1   1  -1  254.77   12.90
   1  -1   1  259.27   12.90
  -2   1  -1  240.88   12.00
  -2   1  -1  219.08   12.30
   2  -1   1  242.68   12.00
   2  -1   1  239.08   12.30
  -3   1  -1  154.18    8.90
  -3   1  -1  176.58    8.90
   3  -1   1  146.49    8.50
   3  -1   1  149.99    8.80
  -4   1  -1   19.50    3.10
  -4   1  -1   18.50    2.70
   4  -1   1   22.70    3.00
   4  -1   1   17.60    3.20
  -5   1  -1  126.69    7.80
  -5   1  -1  126.29    8.50
   5  -1   1  119.59    9.60
  -6   1  -1    6.60    3.70
  -6   1  -1    2.70    2.80
   6  -1   1    3.70    3.20
  -7   1  -1   22.60    5.20
   7  -1   1   15.30    4.30
  -8   1  -1   13.30    5.40
  -8   1  -1   31.50    6.00
  -8   0   1   26.10    5.60
  -8   0   1   47.90    7.50
  -7   0   1   -0.10    3.40
  -7   0   1   -3.10    4.20
  -6   0   1   45.30    5.20
   5   0  -1  121.09    8.10
  -5   0   1  110.59    7.90
   4   0  -1  109.89    7.20
  -4   0   1  111.09    7.00
  -4   0   1  107.69    7.10
   3   0  -1   70.79    5.20
  -3   0   1   70.89    4.80
  -3   0   1   74.49    5.10
   2   0  -1   31.60    3.40
  -2   0   1   33.80    2.90
   1   0  -1  811.92   39.80
  -1   0   1  786.52   39.70
  -1   0   1  844.12   40.00
  -1   0  -1 3481.55  169.98
   1   0   1 3558.34  169.78
   1   0   1 3435.36  169.98
  -2   0  -1   54.09    3.70
  -2   0  -1   58.49    4.00
   2   0   1   50.29    4.10
   2   0   1   56.19    3.90
  -3   0  -1  113.89    6.80
  -3   0  -1  107.39    6.50
   3   0   1  108.89    6.90
   3   0   1  106.69    6.60
  -4   0  -1  129.49    7.70
   4   0   1  121.99    8.10
   4   0   1  129.79    7.80
  -5   0  -1   23.60    3.50
  -6   0  -1   49.90    5.40
   6   0   1   62.59    6.40
   6   0   1   93.29   10.40
  -8   1   1   10.00    5.20
  -8   1   1    0.30    3.90
  -7   1   1   -3.00    3.10
  -7   1   1   11.30    4.30
  -6   1   1   26.50    4.80
  -6   1   1   16.80    3.80
  -6   1   1   16.60    4.60
   5  -1  -1    1.50    2.50
  -5   1   1    7.80    2.90
  -5   1   1    9.30    3.00
  -5   1   1   -2.70    2.40
   4  -1  -1 1389.16   67.39
  -4   1   1 1372.16   67.69
  -4   1   1 1390.26   67.39
  -4   1   1 1315.27   67.59
   3  -1  -1    8.30    1.80
  -3   1   1   17.50    2.70
  -3   1   1    8.60    1.70
  -3   1   1   14.70    2.60
   2  -1  -1 9713.13  478.75
  -2   1   1 9999.00  478.75
   1  -1  -1    3.30    1.40
  -1   1   1    3.60    1.40
   0  -1  -1  471.65   23.50
   0  -1  -1  492.65   23.40
   0   1   1  464.55   23.50
   0   1   1  476.55   23.40
  -1  -1  -1    1.00    1.60
  -1  -1  -1    1.90    1.40
   1   1   1    0.10    1.50
   1   1   1    2.30    1.60
  -2  -1  -1   28.50    3.00
  -2  -1  -1   25.10    2.90
   2   1   1   23.30    2.90
   2   1   1   20.20    2.70
  -3  -1  -1    1.20    1.70
  -3  -1  -1    0.10    1.80
   3   1   1    1.00    1.80
   3   1   1    1.50    1.90
  -4  -1  -1   30.40    4.20
  -4  -1  -1   29.20    3.70
   4   1   1   30.00    3.90
   4   1   1   35.10    4.20
  -5  -1  -1   -1.80    2.20
   5   1   1   -5.00    2.70
   5   1   1    1.20    2.80
   6   1   1   66.29    6.50
  -7  -1  -1    0.60    3.50
   7   1   1    0.60    4.00
  -8   2   1    9.30    4.40
  -8   2   1   27.70    6.00
  -7   2   1   67.39    6.20
  -6   2   1   30.90    4.50
  -6   2   1   23.20    4.20
   5  -2  -1   72.79    5.70
  -5   2   1   76.59    5.90
  -5   2   1   72.59    5.50
  -5   2   1   79.79    5.90
   4  -2  -1  298.57   17.00
  -4   2   1  338.27   17.50
  -4   2   1  342.97   17.50
  -4   2   1  345.87   17.10
   3  -2  -1  978.00   45.00
   3  -2  -1  847.42   44.30
  -3   2   1  860.11   44.30
  -3   2   1  926.31   44.80
   2  -2  -1  364.96   18.30
  -2   2   1  341.87   18.00
   1  -2  -1  428.96   21.30
  -1   2   1  421.26   21.30
   0  -2  -1   99.59    5.80
   0  -2  -1   98.99    5.50
   0   2   1   99.19    5.70
  -1  -2  -1  447.46   23.10
  -1  -2  -1  469.15   23.10
   1   2   1  469.65   23.10
   1   2   1  448.06   23.10
  -2  -2  -1  186.58   10.30
  -2  -2  -1  189.28   10.40
   2   2   1  188.38   10.40
   2   2   1  185.48   10.30
  -3  -2  -1   16.40    3.00
  -3  -2  -1   22.40    3.10
   3   2   1   19.30    3.10
   3   2   1   26.20    3.30
  -4  -2  -1  289.27   17.10
   4   2   1  318.47   17.10
   4   2   1  321.67   16.90
  -5  -2  -1   22.10    4.10
   5   2   1   21.40    4.10
  -6  -2  -1   70.29    7.20
   6   2   1   75.49    6.90
  -7  -2  -1   -0.60    3.60
   7   2   1   -2.10    4.00
  -8   3   1    3.10    5.00
  -8   3   1   -1.30    3.70
  -7   3   1   69.49    7.00
   6  -3  -1    5.80    3.10
  -6   3   1    9.10    3.30
  -6   3   1   13.50    4.20
  -6   3   1    2.80    2.90
   5  -3  -1   63.49    4.80
  -5   3   1   61.69    4.60
  -5   3   1   53.29    5.30
  -5   3   1   65.19    5.40
   4  -3  -1  872.51   43.10
   3  -3  -1  470.05   23.60
  -3   3   1  455.65   23.50
   2  -3  -1   72.59    4.80
  -2   3   1   64.49    4.80
   1  -3  -1   32.40    3.50
  -1   3   1   34.70    3.40
   0  -3  -1   30.10    2.90
   0  -3  -1   28.80    3.20
   0  -3  -1   25.50    2.80
   0   3   1   29.30    3.20
  -1  -3  -1  271.07   14.50
  -1  -3  -1  281.87   14.50
   1   3   1  273.67   14.50
  -2  -3  -1  262.57   14.10
  -2  -3  -1  267.27   14.20
   2   3   1  255.87   14.10
   2   3   1  263.47   14.20
  -3  -3  -1   76.89    5.90
  -3  -3  -1   87.99    6.20
   3   3   1   85.09    6.10
   3   3   1   84.19    6.20
  -4  -3  -1    9.80    2.90
   4   3   1    8.80    3.20
  -5  -3  -1  231.68   14.10
   5   3   1  220.98   13.40
  -6  -3  -1   14.80    4.40
   6   3   1   26.20    5.10
  -7  -3  -1   10.50    4.60
   7   3   1    9.20    4.70
  -8   4   1   -0.90    3.70
  -8   4   1    7.70    5.20
  -7   4   1   34.50    5.20
  -7   4   1   16.50    4.00
   6  -4  -1    6.60    2.90
  -6   4   1    8.70    3.40
  -6   4   1    5.00    2.60
  -6   4   1    8.90    4.30
   5  -4  -1  203.48   10.70
  -5   4   1  201.78   11.40
  -5   4   1  185.48   11.20
  -5   4   1  189.28   10.50
   4  -4  -1  147.39    9.00
  -4   4   1  144.99    8.90
   3  -4  -1  664.83   33.90
  -3   4   1  684.63   33.90
   2  -4  -1  117.79    7.10
  -2   4   1  116.39    7.00
   1  -4  -1   35.70    3.70
   1  -4  -1   38.80    2.80
  -1   4   1   38.70    3.80
   0  -4  -1    2.10    1.50
   0  -4  -1    4.10    1.60
   0  -4  -1    3.10    2.00
   0   4   1    2.10    1.80
  -1  -4  -1  626.04   31.20
  -1  -4  -1  621.24   31.30
  -1  -4  -1  609.54   31.30
   1   4   1  617.64   31.40
  -2  -4  -1  122.49    7.90
  -2  -4  -1  122.99    7.50
  -2  -4  -1  110.69    7.40
   2   4   1  112.99    7.40
  -3  -4  -1  168.78   10.40
  -3  -4  -1  180.38   10.70
   3   4   1  175.28   10.50
  -4  -4  -1   40.60    5.20
   4   4   1   39.60    5.00
  -5  -4  -1   12.30    4.10
   5   4   1   23.60    4.50
  -6  -4  -1   20.80    4.70
   6   4   1   19.00    4.90
  -8   5   1   13.70    5.60
   7  -5  -1   10.20    3.80
  -7   5   1   28.10    5.10
  -7   5   1   12.20    3.90
   6  -5  -1   22.70    3.40
  -6   5   1   18.10    3.90
  -6   5   1   18.90    3.00
  -6   5   1   40.90    7.90
  -5   5   1  161.68   10.00
   4  -5  -1  377.36   20.50
  -4   5   1  406.36   20.60
   3  -5  -1   32.90    4.00
  -3   5   1   42.10    4.30
   2  -5  -1  413.66   20.90
  -2   5   1  391.36   20.80
   1  -5  -1  694.93   35.40
   1  -5  -1  713.53   34.90
  -1   5   1  700.63   35.40
   0  -5  -1  130.19    7.60
   0  -5  -1  131.79    8.00
   0  -5  -1  130.29    7.60
   0   5   1  125.99    8.00
  -1  -5  -1  269.77   14.60
  -1  -5  -1  264.27   14.50
  -1  -5  -1  267.57   14.40
   1   5   1  269.17   14.70
  -2  -5  -1   75.79    5.80
  -2  -5  -1   76.49    5.90
  -2  -5  -1   71.39    5.80
   2   5   1   81.39    6.00
  -3  -5  -1  148.49    9.60
   3   5   1  141.29    9.40
  -4  -5  -1  112.99    8.50
   4   5   1  104.89    8.20
  -5  -5  -1   11.70    4.10
   5   5   1   14.20    4.10
  -6  -5  -1  166.18   12.20
   6   5   1  157.68   11.60
  -8   6   1    3.70    4.10
  -8   6   1   16.50    5.80
  -7   6   1   31.20    5.60
  -6   6   1  272.87   15.70
   5  -6  -1   53.99    5.80
  -4   6   1  117.99    7.90
   3  -6  -1   60.59    5.50
  -3   6   1   70.69    5.60
   2  -6  -1  516.65   26.30
  -2   6   1  503.05   26.20
   1  -6  -1   19.70    2.50
   1  -6  -1   23.90    3.60
  -1   6   1   24.60    3.50
   0  -6  -1   77.69    5.30
   0  -6  -1   72.29    5.20
   0   6   1   72.19    5.80
  -1  -6  -1   69.79    5.90
  -1  -6  -1   68.09    5.60
  -1  -6  -1   70.89    5.50
   1   6   1   71.79    6.00
  -2  -6  -1  585.94   30.20
   2   6   1  574.14   30.30
  -3  -6  -1    1.20    2.70
   3   6   1   -0.20    2.60
  -4  -6  -1  145.59   10.40
   4   6   1  138.09   10.00
  -5  -6  -1   48.50    6.70
   5   6   1   38.10    6.10
  -8   7   1   12.50    5.80
  -7   7   1   16.10    5.20
  -6   7   1  113.39    8.80
   5  -7  -1   67.99    7.30
  -5   7   1   84.69    6.90
   4  -7  -1  148.29    9.90
  -4   7   1  163.18   10.10
   3  -7  -1  243.38   14.40
  -3   7   1  266.47   14.40
   2  -7  -1    0.60    1.60
   2  -7  -1    2.40    2.60
  -2   7   1    2.00    1.40
  -2   7   1    2.50    2.70
   1  -7  -1  141.29    8.20
   1  -7  -1  148.29    8.20
   1  -7  -1  135.89    9.00
  -1   7   1  135.69    9.00
   0  -7  -1   66.39    5.10
   0  -7  -1   60.69    6.10
   0  -7  -1   65.39    5.10
   0   7   1   67.19    6.00
  -1  -7  -1   76.99    8.90
  -1  -7  -1   97.49    6.80
   1   7   1   99.69    7.40
  -2  -7  -1   24.00    4.20
   2   7   1   26.30    4.70
  -3  -7  -1    7.80    3.20
   3   7   1    6.10    3.30
  -4  -7  -1  113.39    9.30
   4   7   1  109.99    9.10
  -5  -7  -1   95.89    8.90
   5   7   1   73.59    9.60
  -8   8   1   26.40    6.70
  -7   8   1   63.39    8.00
  -6   8   1   22.00    5.00
  -5   8   1  128.39    9.40
  -4   8   1   25.90    4.20
  -3   8   1   27.20    4.60
   2  -8  -1   27.50    3.40
  -2   8   1   18.60    3.70
   1  -8  -1   11.10    2.50
   1  -8  -1    9.80    2.40
  -1   8   1   18.20    3.90
   0  -8  -1  312.47   16.60
   0  -8  -1  287.07   16.40
   0   8   1  312.67   17.30
  -1  -8  -1   11.60    3.20
   1   8   1   12.30    3.90
  -2  -8  -1    6.20    3.30
   2   8   1    7.20    3.60
  -3  -8  -1   81.49    7.70
   3   8   1   81.39    7.80
  -4  -8  -1   65.49    7.70
  -8   9   1    6.50    6.60
  -7   9   1   43.90    7.20
  -6   9   1   10.80    5.00
  -5   9   1   68.79    7.40
  -4   9   1   10.30    4.20
  -3   9   1   77.29    7.00
   2  -9  -1   17.10    3.00
   2  -9  -1   16.40    2.90
  -2   9   1   20.00    4.40
   1  -9  -1  231.18   15.00
   1  -9  -1  310.87   15.30
  -1   9   1  290.07   16.20
   0  -9  -1   38.70    4.70
   0   9   1   42.10    5.70
  -1  -9  -1   49.30    5.80
   1   9   1   54.29    6.90
  -2  -9  -1   20.80    4.50
   2   9   1   23.30    5.50
  -3  -9  -1   67.79    9.10
  -4  -9  -1    7.80    4.70
   4   9   1    8.20    4.60
  -7  10   1   20.20    6.50
  -6  10   1   17.70    5.80
  -5  10   1   83.69    8.40
  -4  10   1   29.40    5.50
  -3  10   1    9.60    4.10
   2 -10  -1   11.10    3.10
   2 -10  -1   17.00    3.20
  -2  10   1   17.10    4.60
   1 -10  -1    0.10    2.90
   1 -10  -1    3.80    2.90
  -1  10   1    6.20    3.90
   0 -10  -1  264.17   14.90
   0  10   1  251.57   15.80
  -1 -10  -1   13.40    4.20
   1  10   1   11.30    4.50
  -2 -10  -1   50.69    6.50
  -3 -10  -1   25.50    5.70
   3  10   1   27.30    6.10
  -7  11   1   20.70    7.20
  -6  11   1   19.50    6.30
  -5  11   1   13.00    5.40
  -4  11   1  115.09    9.80
  -3  11   1   22.00    5.20
   2 -11  -1  157.78   10.20
   2 -11  -1  147.99   10.10
  -2  11   1  203.88   12.20
   1 -11  -1   13.30    3.60
  -1  11   1   17.30    4.90
   0 -11  -1  162.28   10.70
   0  11   1  151.78   11.60
  -1 -11  -1   22.00    4.90
   1  11   1   29.20    6.00
  -2 -11  -1   20.10    5.30
   2  11   1    6.80    4.70
  -5  12   1   48.60    8.00
  -4  12   1    1.80    5.10
   3 -12  -1   44.00    5.30
  -3  12   1   45.40    6.90
   2 -12  -1    0.20    3.10
  -2  12   1    2.20    5.40
   1 -12  -1   35.90    5.00
  -1  12   1   37.10    6.70
   0 -12  -1    0.20    3.70
   0  12   1   -0.40    4.20
   1  12   1   12.90    5.00
  -5  13   1   18.80    6.90
  -4  13   1   49.50    7.90
   3 -13  -1   10.00    4.00
  -3  13   1   14.10    5.90
   2 -13  -1   10.50    3.90
  -2  13   1   14.40    5.40
   1 -13  -1   -1.10    3.70
  -1  13   1    3.50    4.90
  -1  14  -2    6.10    5.30
   1 -14   2    4.50    4.10
  -2  14  -2   -0.30    5.20
   2 -14   2    1.60    4.00
  -3  14  -2    6.40    6.10
   3 -14   2    9.50    4.60
   4 -14   2   19.80    5.20
   1  13  -2   59.69    8.30
  -1 -13   2   45.20    6.60
   0  13  -2   26.30    6.10
   0 -13   2   24.80    5.00
   1 -13   2   62.89    6.80
  -2  13  -2   25.30    6.30
   2 -13   2   22.30    4.70
  -3  13  -2    3.50    4.60
   3 -13   2    0.30    4.00
  -4  13  -2   23.10    6.60
   4 -13   2   12.80    4.50
  -5  13  -2   17.70    6.30
   5 -13   2   11.80    4.50
   2  12  -2   52.29    7.90
  -2 -12   2   57.19    7.30
   1  12  -2   53.89    7.90
  -1 -12   2   52.79    6.60
   0  12  -2  139.79   11.00
   0 -12   2  140.29    9.90
  -1  12  -2   40.70    6.60
   1 -12   2   33.80    4.70
  -2  12  -2  205.68   13.30
   2 -12   2  183.18   11.80
  -3  12  -2   24.90    5.90
   3 -12   2   16.30    4.30
  -4  12  -2   78.09    8.10
   4 -12   2  123.79    9.00
  -5  12  -2    3.50    3.80
  -5  12  -2    1.80    5.20
  -6  12  -2    6.00    6.10
   6 -12   2    0.70    6.90
   3  11  -2   12.20    5.20
  -3 -11   2    9.80    4.60
  -2 -11   2   18.90    4.70
   1  11  -2   41.50    6.60
  -1 -11   2   37.40    5.50
   0  11  -2  151.18   11.10
   0 -11   2  153.98   10.20
  -1  11  -2  247.28   15.10
   1 -11   2  241.08   14.10
  -2  11  -2   20.70    5.10
   2 -11   2   16.80    3.80
  -3  11  -2    2.80    3.10
  -3  11  -2    5.90    4.30
   3 -11   2    4.90    3.30
  -4  11  -2   10.10    4.90
  -4  11  -2    1.10    3.20
   4 -11   2    1.10    3.20
  -5  11  -2   35.10    6.00
   5 -11   2   25.00    4.40
  -6  11  -2    0.00    3.50
  -6  11  -2    7.20    5.40
   6 -11   2    2.10    6.20
  -7  11  -2    4.10    5.80
   7 -11   2    0.30    4.60
   4  10  -2    9.80    4.60
  -4 -10   2   11.00    4.70
  -3 -10   2   31.90    5.60
   2  10  -2    3.40    3.60
  -2 -10   2    5.20    3.40
   1  10  -2   27.50    5.50
  -1 -10   2   17.90    4.20
   0  10  -2   42.30    5.90
   0 -10   2   41.10    5.10
  -1  10  -2  296.27   16.90
   1 -10   2  290.17   16.10
  -2  10  -2    5.30    2.90
  -2  10  -2   11.60    3.80
   2 -10   2    9.60    3.00
  -3  10  -2    1.20    3.60
  -3  10  -2    1.50    4.40
   3 -10   2    3.50    2.80
  -4  10  -2    5.90    4.00
  -4  10  -2    1.20    5.80
   4 -10   2    2.40    2.80
  -5  10  -2   70.59    7.10
   5 -10   2   58.69    6.00
  -6  10  -2    2.20    4.80
  -6  10  -2   -0.40    3.40
   6 -10   2    0.60    4.20
  -7  10  -2    5.50    5.40
   7 -10   2    2.30    4.40
   5   9  -2   14.60    5.30
  -5  -9   2   25.60    5.90
  -4  -9   2  199.38   14.20
   3   9  -2  141.09   10.50
  -3  -9   2  136.39   10.10
   2   9  -2  110.69    8.60
  -2  -9   2   96.09    7.80
   1   9  -2  185.18   11.90
  -1  -9   2  181.38   11.30
   0   9  -2   10.20    3.80
   0   9  -2   16.90    4.20
   0  -9   2   17.90    3.50
  -1   9  -2   13.30    3.40
  -1   9  -2    9.20    2.70
   1  -9   2    9.80    2.60
  -2   9  -2    3.80    2.40
  -2   9  -2   -0.60    5.80
   2  -9   2    5.20    3.60
   2  -9   2   10.20    2.60
  -3   9  -2   12.10    2.70
  -3   9  -2   15.80    3.70
   3  -9   2   11.40    4.00
   3  -9   2   10.10    2.60
  -4   9  -2   52.59    5.80
  -4   9  -2   42.70    4.70
   4  -9   2   51.49    6.10
   4  -9   2   62.09    5.20
  -5   9  -2   26.70    6.00
   5  -9   2   26.40    5.10
   5  -9   2   26.90    4.00
  -6   9  -2    2.20    3.40
   6  -9   2    2.60    4.10
   6  -9   2    3.50    4.40
  -7   9  -2   23.80    5.60
   7  -9   2   16.10    4.90
   5   8  -2    3.60    4.00
  -5  -8   2    4.60    3.80
   4   8  -2  218.98   14.00
  -4  -8   2  210.98   13.60
   3   8  -2   24.40    5.00
  -3  -8   2   26.90    4.70
   2   8  -2  368.36   20.30
  -2  -8   2  356.76   19.80
   1   8  -2  202.88   12.20
  -1  -8   2  195.28   11.60
   0   8  -2  567.84   29.60
   0  -8   2  579.24   29.50
   0  -8   2  582.14   30.00
  -1   8  -2    5.90    2.50
  -1   8  -2    9.70    2.90
   1  -8   2    6.00    3.00
   1  -8   2    7.40    2.40
  -2   8  -2  105.29    7.30
  -2   8  -2  129.39    8.00
   2  -8   2  127.89    7.50
   2  -8   2  121.59    8.10
  -3   8  -2  106.39    6.90
  -3   8  -2  123.69    7.70
   3  -8   2  114.69    7.70
   3  -8   2  107.19    7.10
  -4   8  -2   20.00    3.10
  -4   8  -2   25.00    4.00
   4  -8   2   22.90    4.10
   4  -8   2   25.20    3.50
  -5   8  -2   39.30    5.00
  -5   8  -2   16.30    3.50
   5  -8   2   25.30    4.60
   5  -8   2   22.60    3.80
  -6   8  -2   35.00    4.90
  -6   8  -2   15.50    4.00
   6  -8   2   20.20    4.90
  -7   8  -2    4.30    4.00
  -7   8  -2    8.90    7.10
   7  -8   2    6.60    4.30
  -8   8  -2    0.50    5.50
   8  -8   2   -4.60    4.90
   6   7  -2   17.40    5.60
  -6  -7   2   18.40    5.20
   5   7  -2    1.40    3.70
  -5  -7   2    2.30    3.80
   4   7  -2   50.39    6.40
  -4  -7   2   54.99    6.40
   3   7  -2   77.69    7.10
  -3  -7   2   75.89    6.50
   2   7  -2  508.55   25.80
  -2  -7   2  457.95   25.30
   1   7  -2   60.99    5.40
   1   7  -2   65.09    5.70
  -1  -7   2   61.59    5.20
  -1  -7   2   67.19    5.70
   0   7  -2  646.74   32.80
   0   7  -2  641.34   33.10
   0  -7   2  671.23   32.80
   0  -7   2  628.14   33.50
  -1   7  -2  551.34   28.20
  -1   7  -2  558.94   28.50
   1  -7   2  555.24   28.40
   1  -7   2  555.14   28.10
  -2   7  -2  768.62   38.80
  -2   7  -2  762.62   39.10
   2  -7   2  777.52   39.10
   2  -7   2  804.22   38.90
  -3   7  -2    4.20    2.20
  -3   7  -2    0.90    1.80
   3  -7   2    3.00    2.00
   3  -7   2    5.40    2.50
  -4   7  -2   40.20    4.20
  -4   7  -2   21.70    3.10
   4  -7   2   32.70    4.10
   4  -7   2   35.50    4.00
  -5   7  -2    9.20    2.90
   5  -7   2   10.00    3.40
   5  -7   2   16.90    3.30
  -6   7  -2   69.19    5.90
  -6   7  -2   46.90    5.70
   6  -7   2   76.19    9.20
  -7   7  -2    1.80    3.90
  -7   7  -2   32.80    4.90
   7  -7   2   16.50    4.80
  -8   7  -2   11.40    6.60
   8  -7   2   18.10    5.40
  -6  -6   2   31.40    5.50
   5   6  -2   40.40    6.30
  -5  -6   2   42.60    5.80
   4   6  -2   85.39    7.60
  -4  -6   2   87.79    7.30
   3   6  -2  128.39    8.70
  -3  -6   2  121.39    8.30
   2   6  -2   41.70    4.60
   2   6  -2   42.70    4.30
  -2  -6   2   39.20    4.60
  -2  -6   2   45.60    4.50
   1   6  -2  114.39    7.50
   1   6  -2  107.99    7.30
  -1  -6   2  118.49    7.50
  -1  -6   2  111.19    7.10
   0   6  -2   43.00    4.20
   0   6  -2   39.10    3.90
   0  -6   2   38.60    3.80
   0  -6   2   39.10    4.00
  -1   6  -2  953.80   47.70
  -1   6  -2  920.51   47.40
   1  -6   2  983.40   47.50
   1  -6   2  975.30   47.70
  -2   6  -2   59.49    6.00
  -2   6  -2   58.59    4.20
   2  -6   2   54.39    4.20
   2  -6   2   55.69    4.50
  -3   6  -2   26.60    3.10
  -3   6  -2   30.30    3.40
   3  -6   2   27.80    3.40
   3  -6   2   28.20    3.50
  -4   6  -2   14.80    2.60
  -4   6  -2   21.30    2.90
   4  -6   2   17.90    3.00
   4  -6   2   15.40    3.00
  -5   6  -2   18.10    3.10
  -5   6  -2    5.60    3.10
   5  -6   2   14.20    2.90
  -6   6  -2   26.80    3.80
  -6   6  -2   23.70    5.10
  -7   6  -2   26.80    5.10
   7  -6   2   21.90    4.90
  -8   6  -2    0.20    4.90
  -8   6  -2   -2.50    6.20
   8  -6   2    8.20    5.10
   7   5  -2   13.00    5.60
  -7  -5   2   16.40    5.20
   6   5  -2   84.49    8.50
  -6  -5   2   88.99    8.20
   5   5  -2   11.80    4.30
  -5  -5   2   12.10    3.90
   4   5  -2   18.50    3.80
  -4  -5   2   20.80    3.50
  -3  -5   2   73.39    6.20
  -3  -5   2   77.19    6.00
  -3  -5   2   82.29    6.50
   2   5  -2   67.19    5.50
   2   5  -2   67.19    5.20
  -2  -5   2   69.59    5.30
  -2  -5   2   74.59    5.60
   1   5  -2  419.46   22.50
   1   5  -2  440.36   22.50
  -1  -5   2  440.96   22.40
  -1  -5   2  443.36   22.70
   0   5  -2 1505.85   74.89
   0   5  -2 1545.15   74.79
   0  -5   2 1491.35   74.89
   0  -5   2 1543.35   74.79
  -1   5  -2  439.56   22.50
  -1   5  -2  429.56   22.40
   1  -5   2  448.96   22.50
   1  -5   2  458.55   22.40
  -2   5  -2  246.38   13.60
  -2   5  -2  272.77   13.70
   2  -5   2  250.57   13.60
   2  -5   2  282.07   13.70
  -3   5  -2  129.19    7.60
  -3   5  -2  134.09    7.40
   3  -5   2  138.89    7.70
   3  -5   2  127.69    7.40
  -4   5  -2    0.00    1.80
  -4   5  -2   -0.50    1.80
   4  -5   2   -1.70    2.00
   4  -5   2   -0.30    2.10
  -5   5  -2   94.19    6.50
  -5   5  -2   95.99    7.30
  -5   5  -2  106.19    6.70
   5  -5   2  110.29    7.20
  -6   5  -2    2.90    2.80
  -6   5  -2    5.20    3.30
   6  -5   2    7.60    3.50
  -7   5  -2   37.00    5.60
   7  -5   2   24.80    5.20
  -8   5  -2    2.80    5.00
  -8   5  -2    7.00    6.20
   8  -5   2   -0.30    4.90
   7   4  -2   10.90    5.40
  -7  -4   2    5.90    4.40
   6   4  -2   13.50    5.00
  -6  -4   2   10.50    4.00
   5   4  -2  247.18   14.60
  -5  -4   2  234.78   14.30
   4   4  -2   98.89    7.50
  -4  -4   2   92.49    7.00
   3   4  -2  205.68   11.80
  -3  -4   2  201.58   11.60
  -3  -4   2  202.28   11.50
  -3  -4   2  192.88   12.40
   2   4  -2  255.27   14.20
   2   4  -2  270.67   14.10
  -2  -4   2  247.48   13.90
  -2  -4   2  263.07   14.20
   1   4  -2  288.07   15.60
   1   4  -2  302.97   15.50
  -1  -4   2  299.77   15.50
  -1  -4   2  296.97   15.70
   0   4  -2   29.70    3.20
   0   4  -2   27.40    2.90
   0  -4   2   28.20    3.10
   0  -4   2   30.00    3.10
  -1   4  -2  113.09    6.90
  -1   4  -2  123.19    6.90
   1  -4   2  120.59    6.90
   1  -4   2  139.49    7.00
  -2   4  -2   38.10    3.00
  -2   4  -2   41.10    3.30
   2  -4   2   40.70    3.30
   2  -4   2   38.30    3.10
  -3   4  -2  161.38    9.00
  -3   4  -2  175.58    9.40
   3  -4   2  175.58    9.10
   3  -4   2  168.58    9.40
  -4   4  -2   72.09    4.90
  -4   4  -2   70.99    4.90
  -4   4  -2   71.69    5.20
   4  -4   2   75.89    5.30
  -5   4  -2   47.60    5.20
  -5   4  -2   59.49    4.70
  -5   4  -2   59.89    4.80
   5  -4   2   60.09    5.30
  -6   4  -2   30.10    4.10
  -6   4  -2   42.00    4.90
   6  -4   2   31.00    4.80
  -7   4  -2    8.20    5.90
  -7   4  -2    9.90    4.40
   7  -4   2    8.70    4.20
  -8   4  -2   27.70    5.60
   8  -4   2   16.50    5.50
   7   3  -2   42.40    6.60
  -7  -3   2   40.20    6.00
   6   3  -2   56.09    7.00
  -6  -3   2   53.59    6.30
   5   3  -2   -0.20    3.30
  -5  -3   2    1.90    2.80
   4   3  -2  961.50   48.30
  -4  -3   2  966.30   48.10
  -4  -3   2  945.51   48.20
  -4  -3   2  949.11   48.10
   3   3  -2   79.19    6.00
  -3  -3   2   77.29    5.60
  -3  -3   2   79.09    5.70
  -3  -3   2   74.09    5.80
   2   3  -2  231.88   12.70
   2   3  -2  233.98   12.60
  -2  -3   2  233.98   12.70
  -2  -3   2  229.38   12.50
   1   3  -2  333.97   17.00
   1   3  -2  328.17   17.10
  -1  -3   2  317.57   17.10
  -1  -3   2  344.37   17.00
   0   3  -2   54.19    5.90
   0   3  -2   56.29    4.00
   0  -3   2   59.79    3.90
   0  -3   2   55.19    3.90
  -1   3  -2  911.71   45.30
   1  -3   2  964.00   45.60
   1  -3   2  903.31   45.30
  -2   3  -2   67.39    4.40
   2  -3   2   70.69    4.60
  -3   3  -2  240.48   12.90
   3  -3   2  244.18   12.90
  -4   3  -2  111.99    6.80
  -4   3  -2  122.39    6.80
  -4   3  -2  114.49    7.30
   4  -3   2  120.29    7.50
  -5   3  -2    1.50    2.50
  -5   3  -2    2.00    2.60
  -5   3  -2    3.70    2.20
   5  -3   2    1.80    2.90
  -6   3  -2  120.39    8.30
  -6   3  -2  140.29    8.60
   6  -3   2  130.89    9.20
  -7   3  -2    4.10    3.30
  -7   3  -2    2.30    4.20
   7  -3   2    5.20    4.10
  -8   3  -2   29.20    5.80
   8  -3   2   16.40    5.50
  -8  -2   2    6.70    4.60
   7   2  -2   28.10    5.80
  -7  -2   2   35.60    5.20
   6   2  -2   78.99    7.70
  -6  -2   2   78.79    6.90
   5   2  -2   24.50    4.30
  -5  -2   2   22.80    3.50
   4   2  -2  402.56   20.70
  -4  -2   2  389.66   20.30
  -4  -2   2  361.96   20.80
   3   2  -2  330.57   17.50
  -3  -2   2  326.07   17.20
  -3  -2   2  312.77   17.40
  -3  -2   2  345.07   17.30
   2   2  -2  214.98   11.10
   2   2  -2  211.28   11.30
  -2  -2   2  195.38   11.00
  -2  -2   2  202.98   11.30
   1   2  -2   20.00    2.70
   1   2  -2   25.80    2.80
  -1  -2   2   22.30    2.40
  -1  -2   2   18.70    2.70
   0   2  -2  151.98    7.70
   0   2  -2  134.29    7.60
   0  -2   2  144.79    7.60
   0  -2   2  150.08    7.70
  -1   2  -2   17.00    2.00
   1  -2   2   17.00    2.10
  -2   2  -2  198.48   10.70
   2  -2   2  202.98   10.70
  -3   2  -2  307.67   15.80
  -3   2  -2  313.57   16.30
   3  -2   2  314.37   16.40
  -4   2  -2  430.06   21.20
  -4   2  -2  391.76   20.40
  -4   2  -2  394.26   20.60
   4  -2   2  396.96   21.00
  -5   2  -2   33.60    4.00
  -5   2  -2   33.30    3.80
   5  -2   2   24.30    3.90
  -6   2  -2   64.79    5.80
  -6   2  -2   76.29    6.30
   6  -2   2   77.79    6.90
  -7   2  -2   16.80    3.70
   7  -2   2   25.90    4.60
  -8   2  -2   10.90    5.60
   8  -2   2    1.70    4.40
  -8  -1   2    6.40    4.40
  -8  -1   2    4.60    5.90
  -7  -1   2   24.50    4.60
   6   1  -2   18.10    4.60
  -6  -1   2   17.80    3.90
   5   1  -2  102.09    8.70
  -5  -1   2  107.69    7.90
  -5  -1   2  125.49    7.70
  -5  -1   2  107.99    7.70
   4   1  -2  201.28   11.70
  -4  -1   2  211.68   11.50
  -4  -1   2  201.68   11.40
  -4  -1   2  198.38   11.70
   3   1  -2  255.67   13.60
  -3  -1   2  253.77   13.20
  -3  -1   2  244.58   13.50
  -3  -1   2  239.58   13.10
   2   1  -2  141.19    8.30
   2   1  -2  141.59    8.10
  -2  -1   2  138.79    7.80
  -2  -1   2  149.19    8.30
   1   1  -2 1512.25   72.99
   1   1  -2 1495.75   72.79
  -1  -1   2 1464.45   72.89
   0   1  -2  795.12   39.00
   0  -1   2  812.72   39.10
   0  -1   2  781.22   38.90
  -1   1  -2   64.89    4.20
   1  -1   2   68.09    4.40
  -2   1  -2   23.40    2.80
   2  -1   2   16.80    2.30
  -3   1  -2   75.39    5.20
   3  -1   2   70.09    5.10
   3  -1   2   70.09    4.60
  -4   1  -2   42.80    4.60
  -4   1  -2   43.90    3.60
   4  -1   2   38.70    3.70
   4  -1   2   38.80    4.60
  -5   1  -2   49.40    4.50
   5  -1   2   50.79    5.40
   5  -1   2   47.40    4.70
  -6   1  -2    7.80    3.30
   6  -1   2   12.10    3.80
  -7   1  -2   42.70    6.10
   7  -1   2   33.90    5.50
  -8   0   2   17.90    6.00
  -8   0   2   21.20    5.10
  -7   0   2   67.99    7.70
  -7   0   2   62.19    6.60
  -6   0   2    2.10    3.70
  -6   0   2    0.70    2.60
  -5   0   2  255.27   13.00
  -5   0   2  219.08   12.90
  -5   0   2  216.58   13.20
   4   0  -2  114.29   33.30
  -4   0   2   68.89   27.10
   3   0  -2   82.49    5.80
  -3   0   2   78.49    5.80
  -3   0   2   78.99    4.90
  -3   0   2   77.99    4.90
   2   0  -2 3404.36  176.18
  -2   0   2 3783.82  176.58
  -2   0   2 3548.15  176.58
  -2   0   2 3743.13  176.28
   1   0  -2    4.10    1.10
   1   0  -2    2.30    1.60
  -1   0   2    3.50    1.00
  -1   0   2    1.50    1.70
   0   0  -2    6.90    1.50
   0   0  -2    9.30    1.50
   0   0   2    7.40    1.40
   0   0   2    7.80    1.40
  -1   0  -2  891.51   43.60
  -1   0  -2  909.51   43.90
   1   0   2  884.91   43.60
   1   0   2  872.91   43.80
  -2   0  -2   23.20    2.40
  -2   0  -2   25.40    3.00
   2   0   2   22.50    2.50
   2   0   2   28.90    3.00
  -3   0  -2   67.79    4.50
  -3   0  -2   71.19    5.30
   3   0   2   69.69    4.70
   3   0   2   65.29    5.20
  -4   0  -2    2.50    1.80
  -4   0  -2    1.10    2.40
   4   0   2    3.40    2.50
   4   0   2    6.50    2.30
  -5   0  -2   82.69    6.20
   5   0   2   97.69    7.50
   5   0   2   92.89    6.60
  -6   0  -2   34.20    4.60
   6   0   2   52.89    8.30
   6   0   2   39.80    5.30
   7   0   2   19.10    4.70
  -8   1   2   11.10    4.40
  -8   1   2   28.20    6.20
  -7   1   2  100.49    7.80
  -6   1   2   42.10    5.40
  -6   1   2   32.50    4.20
  -6   1   2   27.50    4.30
  -5   1   2   71.99    5.60
  -5   1   2   88.49    5.70
  -5   1   2   57.49    6.50
  -5   1   2   81.99    6.20
  -4   1   2  343.17   18.20
  -4   1   2  343.87   17.60
  -4   1   2  342.27   17.60
  -4   1   2  335.17   18.20
  -3   1   2 1066.09   52.79
  -3   1   2 1048.80   52.29
  -3   1   2 1080.69   52.29
   2  -1  -2  327.47   16.60
  -2   1   2  312.77   16.50
   1  -1  -2  440.66   22.50
  -1   1   2  459.65   22.50
   0  -1  -2  101.79    5.70
   0  -1  -2   98.29    5.60
   0   1   2  103.39    5.90
  -1  -1  -2  463.35   23.10
  -1  -1  -2  455.55   22.80
   1   1   2  452.95   23.00
   1   1   2  457.35   22.90
  -2  -1  -2  196.28   10.40
  -2  -1  -2  180.08    9.90
   2   1   2  186.48   10.10
   2   1   2  182.98   10.40
  -3  -1  -2   18.00    3.10
  -3  -1  -2   18.50    2.70
   3   1   2   23.60    3.10
   3   1   2   20.70    3.10
  -4  -1  -2  316.07   16.80
   4   1   2  315.37   17.30
   4   1   2  313.87   16.80
  -5  -1  -2   13.90    3.00
   5   1   2   17.10    4.00
   5   1   2   23.60    3.80
   6   1   2   82.09    7.40
   6   1   2   69.39    6.60
   7   1   2    1.00    3.70
  -8   2   2   32.60    6.20
  -8   2   2   19.40    4.60
  -7   2   2    0.90    3.10
  -7   2   2   10.10    4.50
  -6   2   2  133.69    9.30
  -6   2   2  146.89    9.30
  -6   2   2  172.28   10.00
  -5   2   2   -0.40    1.80
  -5   2   2    1.40    2.80
  -5   2   2    2.20    1.60
  -4   2   2 3104.99  145.29
  -4   2   2 3015.80  144.69
  -4   2   2 2918.21  145.19
  -4   2   2 2822.02  144.69
   3  -2  -2    2.40    2.20
  -3   2   2    2.20    2.20
   2  -2  -2    3.70    2.30
  -2   2   2    1.90    2.20
   1  -2  -2    6.30    2.00
  -1   2   2   10.00    2.20
   0  -2  -2  182.78    9.60
   0  -2  -2  185.98    9.90
   0   2   2  178.78    9.90
   0   2   2  184.28    9.70
  -1  -2  -2    4.00    1.80
  -1  -2  -2    5.10    1.80
   1   2   2    3.90    1.80
   1   2   2    3.30    1.80
  -2  -2  -2   23.70    3.00
  -2  -2  -2   17.00    2.90
   2   2   2   21.20    3.20
   2   2   2   20.20    2.90
  -3  -2  -2    0.80    1.70
  -3  -2  -2    0.80    2.00
   3   2   2    2.00    1.90
   3   2   2    0.30    1.90
   4   2   2  849.22   43.40
   4   2   2  872.71   43.80
  -5  -2  -2    0.80    2.60
   5   2   2    0.20    2.80
   5   2   2   -1.10    3.20
   6   2   2  105.59    8.10
  -7  -2  -2    2.40    4.20
   7   2   2   -1.60    3.60
  -8   3   2   38.80    6.40
  -8   3   2   17.50    4.80
  -7   3   2    1.60    3.10
  -7   3   2    4.20    4.10
  -7   3   2    2.70    3.20
  -6   3   2   13.40    6.70
  -6   3   2   23.30    3.60
  -6   3   2   36.90    5.10
  -6   3   2   25.80    3.70
  -5   3   2   69.09    4.90
   4  -3  -2   10.40    3.30
  -4   3   2   14.20    3.50
   3  -3  -2  198.88   11.20
  -3   3   2  204.98   11.30
   2  -3  -2   85.99    5.80
  -2   3   2   93.29    6.00
   1  -3  -2   12.80    2.70
  -1   3   2   11.70    2.50
   0  -3  -2  297.97   15.30
   0  -3  -2  296.57   15.60
   0   3   2  305.07   15.30
   0   3   2  289.67   15.50
  -1  -3  -2   42.50    3.60
  -1  -3  -2   38.90    3.90
   1   3   2   41.40    3.90
   1   3   2   40.10    3.70
  -2  -3  -2  431.16   22.40
  -2  -3  -2  430.06   22.60
   2   3   2  441.06   22.60
   2   3   2  433.26   22.50
  -3  -3  -2   80.89    6.60
  -3  -3  -2   75.89    5.70
   3   3   2   81.59    5.90
   3   3   2   74.19    6.10
  -4  -3  -2  291.07   16.60
   4   3   2  316.07   17.10
   5   3   2  328.67   18.30
  -6  -3  -2   64.49    9.20
   6   3   2   59.59    6.60
  -8   4   2   22.40    5.50
  -8   4   2  -12.80    4.20
  -7   4   2   29.10    5.50
  -7   4   2   15.60    6.60
  -7   4   2   18.70    3.90
  -6   4   2  236.08   13.90
   5  -4  -2  108.59    8.10
  -5   4   2  117.59    7.90
   4  -4  -2   22.90    3.70
  -4   4   2   23.20    3.60
   3  -4  -2  183.48   10.60
  -3   4   2  186.58   10.60
   2  -4  -2   96.19    6.50
  -2   4   2  102.59    6.50
   1  -4  -2   47.00    4.10
   1  -4  -2   38.70    3.10
   1  -4  -2   38.80    3.10
  -1   4   2   48.10    4.10
   0  -4  -2  318.87   17.50
   0  -4  -2  350.06   17.50
   0  -4  -2  348.57   17.90
   0   4   2  344.37   17.90
  -1  -4  -2  428.16   22.40
  -1  -4  -2  439.06   22.20
   1   4   2  423.86   22.40
  -2  -4  -2   85.59    6.10
  -2  -4  -2   81.39    6.20
   2   4   2   83.19    6.10
   2   4   2   77.39    6.00
  -3  -4  -2   31.80    4.20
   3   4   2   37.00    5.00
  -4  -4  -2   46.10    5.70
   4   4   2   52.19    5.40
  -5  -4  -2  182.18   12.00
   5   4   2  161.58   11.10
  -6  -4  -2   49.90    6.90
   6   4   2   42.80    6.10
  -8   5   2    7.00    5.10
  -8   5   2    3.90    3.80
  -7   5   2  130.19    9.80
  -6   5   2   19.70    4.80
   5  -5  -2   27.30    4.90
  -5   5   2   39.60    5.10
  -4   5   2   25.70    4.20
   3  -5  -2   67.99    5.50
  -3   5   2   70.89    5.60
   2  -5  -2  134.79    8.00
  -2   5   2  122.09    8.00
   1  -5  -2  109.19    6.20
   1  -5  -2  107.69    6.20
   1  -5  -2  106.79    7.00
  -1   5   2  100.19    7.00
   0  -5  -2   32.00    4.00
   0  -5  -2   34.00    3.40
   0  -5  -2   38.70    3.60
   0   5   2   42.90    4.20
  -1  -5  -2   64.69    5.00
  -1  -5  -2   58.49    4.80
  -1  -5  -2   60.19    5.50
   1   5   2   59.39    5.20
  -2  -5  -2    4.20    2.50
  -2  -5  -2    1.60    2.30
  -2  -5  -2    3.40    2.30
  -3  -5  -2   55.99    5.80
   3   5   2   55.49    5.70
  -4  -5  -2    1.10    2.90
   4   5   2   -0.60    2.90
   5   5   2   73.49    7.10
  -6  -5  -2   49.10    7.20
  -8   6   2   28.60    6.20
  -7   6   2   73.19    8.00
  -6   6   2  119.09    9.20
   5  -6  -2   54.79    8.30
  -5   6   2   78.09    6.90
   4  -6  -2  124.79    8.50
  -4   6   2  123.09    8.40
   3  -6  -2   78.29    6.30
  -3   6   2   80.29    6.30
   2  -6  -2   92.79    7.10
  -2   6   2   82.59    6.40
   1  -6  -2   51.39    3.90
   1  -6  -2   44.40    3.80
   1  -6  -2   47.40    4.70
  -1   6   2   53.59    4.90
   0  -6  -2   41.40    4.80
   0  -6  -2   33.10    3.60
   0  -6  -2   35.10    3.80
   0   6   2   36.60    4.50
  -1  -6  -2   45.00    4.50
  -1  -6  -2   38.30    4.20
  -1  -6  -2   41.20    5.30
   1   6   2   47.10    5.00
  -2  -6  -2  121.59    8.50
   2   6   2  119.79    8.60
  -3  -6  -2   85.29    7.50
   3   6   2   89.19    7.40
  -4  -6  -2  144.79   10.40
   4   6   2  132.99   10.00
  -5  -6  -2   79.39    8.10
   5   6   2   58.39    7.10
  -8   7   2   53.69    7.70
  -7   7   2   10.10    5.30
  -6   7   2   38.00    5.60
  -5   7   2   10.10    4.20
  -4   7   2  147.09    9.80
   3  -7  -2   55.09    5.90
  -3   7   2   62.29    6.10
   2  -7  -2    7.80    3.20
  -2   7   2    8.50    3.40
   1  -7  -2   59.19    4.60
  -1   7   2   59.89    5.70
   0  -7  -2  583.84   30.20
   0   7   2  597.04   30.80
  -1  -7  -2  103.09    7.60
   1   7   2  111.19    8.10
  -2  -7  -2  264.97   15.40
   2   7   2  258.47   15.50
  -3  -7  -2    7.00    3.30
   3   7   2    5.40    3.60
  -4  -7  -2  154.98   15.70
   4   7   2  147.39   10.90
  -8   8   2   29.20    7.20
  -7   8   2   32.40    6.50
  -6   8   2   94.39    8.70
  -5   8   2   32.10    5.30
  -4   8   2   40.80    5.50
  -3   8   2  234.68   13.90
   2  -8  -2   -0.60    1.80
   2  -8  -2    1.20    1.70
  -2   8   2    0.40    2.90
   1  -8  -2   51.39    4.50
   1  -8  -2   43.90    4.40
  -1   8   2   45.30    5.70
   0  -8  -2   53.39    7.90
   0  -8  -2   46.90    4.80
   0   8   2   60.39    6.30
  -1  -8  -2   95.29    7.40
   1   8   2   99.59    8.10
  -2  -8  -2    6.90    3.50
   2   8   2    3.40    3.50
  -3  -8  -2  146.99   10.80
   3   8   2  144.29   11.00
  -4  -8  -2  105.49    9.30
   4   8   2   87.59    8.80
  -8   9   2   13.10    6.90
  -7   9   2   23.00    6.60
  -6   9   2   14.10    5.30
  -5   9   2   37.50    6.10
  -4   9   2   11.30    4.10
  -3   9   2   79.69    7.50
   2  -9  -2   67.69    5.40
   2  -9  -2   82.09    5.50
  -2   9   2   72.99    7.20
   1  -9  -2   17.20    3.10
   1  -9  -2   25.20    3.60
  -1   9   2   34.60    5.50
   0  -9  -2   76.29    6.60
   0   9   2   81.49    7.80
  -1  -9  -2  103.19    8.10
   1   9   2  105.19    8.90
  -2  -9  -2   -2.00    3.20
   2   9   2    2.70    3.60
  -3  -9  -2   56.19    7.50
   3   9   2   50.89    7.40
  -7  10   2    8.40    6.30
  -6  10   2    6.80    5.50
  -5  10   2   69.59    8.20
  -4  10   2    7.00    4.80
  -3  10   2   25.80    5.10
   2 -10  -2  273.37   15.00
  -2  10   2  277.67   16.50
   1 -10  -2   81.09    6.60
  -1  10   2   79.59    8.00
   0 -10  -2    6.10    3.40
   0  10   2   11.90    4.40
  -1 -10  -2  118.39    9.20
   1  10   2  123.09   10.20
  -2 -10  -2    1.20    4.10
   2  10   2    0.90    4.20
  -6  11   2   -3.50    5.80
  -5  11   2   11.50    5.50
  -4  11   2   13.60    5.50
  -3  11   2    5.60    4.70
   2 -11  -2   65.19    6.10
   2 -11  -2   83.49    6.80
  -2  11   2  104.59    8.80
   1 -11  -2   19.30    4.30
  -1  11   2   23.90    5.70
   0 -11  -2   75.79    7.20
   0  11   2   74.59    8.40
  -1 -11  -2  105.49    9.10
   1  11   2  100.99    9.70
  -6  12   2    8.30    6.80
  -5  12   2   -3.80    5.50
  -4  12   2  136.39   13.10
  -3  12   2   -1.90    4.80
   2 -12  -2   18.40    4.00
  -2  12   2   16.50    5.50
   1 -12  -2    3.90    3.60
  -1  12   2    7.30    4.50
   0 -12  -2   34.70    5.50
   0  12   2   33.30    6.70
  -4  13   2   21.00    6.60
  -3  13   2   11.80    5.80
   2 -13  -2   -0.10    3.60
  -2  13   2    3.40    5.00
  -1  14  -3   33.80    6.80
   1 -14   3   33.00    5.70
  -2  14  -3    3.50    5.90
   2 -14   3    7.20    4.30
  -3  14  -3    9.10    6.60
   3 -14   3    5.40    4.50
  -4  14  -3    7.20    6.30
   4 -14   3    2.10    4.60
   1  13  -3   21.40    5.90
  -1 -13   3   17.90    5.00
   0  13  -3    8.70    5.00
   0 -13   3    5.80    4.00
  -1  13  -3   75.39    8.50
   1 -13   3   63.89    7.10
  -2  13  -3   10.50    5.40
   2 -13   3   10.30    4.10
  -3  13  -3   -1.10    4.70
   3 -13   3   -1.70    3.80
  -4  13  -3   30.30    7.00
   4 -13   3   32.70    5.40
  -5  13  -3   34.00    7.00
   5 -13   3   19.60    5.20
   2  12  -3    8.20    4.90
  -2 -12   3    3.50    4.20
  -1 -12   3   85.19    7.90
   0  12  -3  140.19   10.60
   0 -12   3  121.59    9.30
  -1  12  -3   61.29    7.90
   1 -12   3   59.19    6.40
  -2  12  -3   33.90    6.10
   2 -12   3   21.50    4.50
  -3  12  -3   18.60    5.30
   3 -12   3   18.20    4.30
  -4  12  -3   24.60    6.10
   4 -12   3   20.90    4.80
  -5  12  -3   10.50    5.30
   5 -12   3    4.30    4.20
  -6  12  -3    0.00    5.60
   6 -12   3    3.40    4.60
   3  11  -3   60.59    8.40
  -3 -11   3   60.59    7.40
   2  11  -3  115.59    9.60
  -2 -11   3  105.09    8.80
   1  11  -3   31.20    6.00
  -1 -11   3   32.10    5.10
   0  11  -3  819.22   41.20
   0 -11   3  753.82   40.30
  -1  11  -3   38.80    6.00
   1 -11   3   32.20    4.70
  -2  11  -3  312.37   17.00
   2 -11   3  264.57   16.00
  -3  11  -3   10.10    4.40
   3 -11   3    6.40    3.60
  -4  11  -3   -1.60    4.10
   4 -11   3    4.20    3.50
  -5  11  -3   30.20    5.70
   5 -11   3   17.80    4.50
  -6  11  -3    0.70    5.20
   6 -11   3   -0.40    4.30
   4  10  -3    2.50    4.20
  -4 -10   3   -0.40    3.80
   3  10  -3   53.09    7.50
  -3 -10   3   50.89    6.40
   2  10  -3   93.99    8.20
  -2 -10   3   76.29    7.50
   1  10  -3  114.29    8.80
  -1 -10   3   99.69    8.00
   0  10  -3    3.60    3.40
   0 -10   3    5.70    3.00
  -1  10  -3  497.35   26.50
   1 -10   3  492.75   25.90
  -2  10  -3    1.60    2.80
  -2  10  -3    9.40    3.80
  -3  10  -3   59.99    5.70
   3 -10   3   64.69    6.90
   3 -10   3   63.79    5.70
  -4  10  -3   12.20    4.60
  -4  10  -3    5.50    3.10
   4 -10   3   11.10    4.20
   4 -10   3    9.40    4.50
  -5  10  -3   30.30    5.40
  -5  10  -3    9.50    4.70
   5 -10   3   13.60    4.90
   5 -10   3   21.20    4.60
  -6  10  -3   58.29   10.20
   6 -10   3   19.80    5.30
   6 -10   3   26.10    5.10
  -7  10  -3    2.70    4.30
   7 -10   3    3.30    4.80
   5   9  -3   37.30    6.90
  -5  -9   3   41.60    6.50
   3   9  -3  118.19    9.30
  -3  -9   3  107.29    8.60
   2   9  -3   29.00    5.10
  -2  -9   3   25.30    4.50
   1   9  -3    5.60    3.40
  -1  -9   3    6.30    3.00
   0   9  -3   22.50    4.20
   0  -9   3   30.40    4.00
  -1   9  -3   18.50    3.40
   1  -9   3   22.10    4.20
   1  -9   3   20.10    3.30
  -2   9  -3   34.30    4.40
  -2   9  -3   40.60    5.20
   2  -9   3   37.90    5.00
   2  -9   3   43.90    4.50
  -3   9  -3   37.20    4.90
  -3   9  -3   50.79    5.30
   3  -9   3   41.60    4.60
   3  -9   3   48.20    6.30
  -4   9  -3    6.40    3.10
  -4   9  -3    2.70    2.60
   4  -9   3    3.20    3.50
   4  -9   3    3.90    3.00
  -5   9  -3   14.60    4.00
  -5   9  -3    8.30    3.50
   5  -9   3    5.50    3.90
   5  -9   3   22.80    6.60
  -6   9  -3   13.50    4.40
   6  -9   3    6.60    4.00
  -7   9  -3   26.20    5.30
   7  -9   3   11.90    5.10
   5   8  -3   54.29    7.70
  -5  -8   3   51.69    6.90
   4   8  -3   12.90    4.60
  -4  -8   3   12.30    4.10
   3   8  -3   98.39    8.00
  -3  -8   3   89.49    7.50
   2   8  -3    3.90    3.00
  -2  -8   3    8.80    3.00
   1   8  -3   43.00    5.30
  -1  -8   3   43.60    4.70
   0   8  -3  241.58   14.00
   0   8  -3  254.07   14.30
   0  -8   3  260.57   14.00
   0  -8   3  251.07   14.30
  -1   8  -3  263.77   15.00
  -1   8  -3  274.87   15.20
   1  -8   3  288.07   15.40
   1  -8   3  276.07   14.90
  -2   8  -3  227.48   13.10
  -2   8  -3  246.68   13.40
   2  -8   3  252.17   13.20
   2  -8   3  234.88   13.40
  -3   8  -3   86.49    6.20
  -3   8  -3   96.59    6.50
   3  -8   3   87.99    6.30
   3  -8   3   91.79    6.60
  -4   8  -3   26.80    5.30
  -4   8  -3   32.70    4.20
   4  -8   3   24.30    3.90
   4  -8   3   22.70    3.60
  -5   8  -3   68.99    6.20
   5  -8   3   75.89    6.20
   5  -8   3   98.59    7.80
  -6   8  -3   21.30    4.00
  -6   8  -3    3.70    3.10
   6  -8   3   12.50    4.00
   7  -8   3    8.80    4.70
   6   7  -3   45.30    7.40
  -6  -7   3   41.70    6.40
   5   7  -3    5.50    4.10
  -5  -7   3    5.70    3.80
   4   7  -3  191.18   12.40
  -4  -7   3  181.08   11.90
   3   7  -3    3.40    3.10
  -3  -7   3    3.80    2.80
   2   7  -3  197.18   12.10
  -2  -7   3  202.48   11.70
   1   7  -3  331.67   18.40
   1   7  -3  351.06   18.70
  -1  -7   3  345.27   18.70
  -1  -7   3  348.37   18.30
   0   7  -3   14.50    2.90
   0   7  -3   12.50    3.00
   0  -7   3   12.90    3.00
   0  -7   3   17.00    2.90
  -1   7  -3  696.33   35.80
  -1   7  -3  703.53   35.60
   1  -7   3  730.73   35.80
   1  -7   3  706.03   35.70
  -2   7  -3  231.28   13.30
  -2   7  -3  249.38   13.40
   2  -7   3  261.37   13.50
   2  -7   3  248.88   13.40
  -3   7  -3   56.49    4.50
  -3   7  -3   52.79    4.50
   3  -7   3   53.59    4.60
   3  -7   3   54.79    4.60
  -4   7  -3   13.30    3.60
  -4   7  -3   21.20    3.20
   4  -7   3   18.50    3.10
   4  -7   3   16.40    3.20
  -5   7  -3   15.10    3.40
   5  -7   3   14.70    3.80
   6  -7   3   56.79    6.50
   7  -7   3    1.30    4.40
   6   6  -3   15.40    6.20
  -6  -6   3   10.50    5.40
   5   6  -3    1.50    4.00
  -5  -6   3    4.80    3.50
   4   6  -3  245.88   14.80
  -4  -6   3  243.98   14.30
   3   6  -3  258.17   14.70
  -3  -6   3  246.58   14.30
   2   6  -3  208.58   11.90
   2   6  -3  196.38   11.60
  -2  -6   3  193.38   11.40
  -2  -6   3  196.58   11.70
   1   6  -3   65.49    5.20
   1   6  -3   63.49    5.40
  -1  -6   3   69.39    5.50
  -1  -6   3   72.59    5.20
   0   6  -3 1257.67   63.69
   0   6  -3 1257.87   63.59
   0  -6   3 1298.87   63.69
   0  -6   3 1332.77   63.59
  -1   6  -3   77.09    5.20
  -1   6  -3   72.69    5.30
   1  -6   3   80.39    5.30
   1  -6   3   77.19    5.30
  -2   6  -3  522.65   26.50
  -2   6  -3  518.85   26.40
   2  -6   3  532.65   26.40
   2  -6   3  524.75   26.60
  -3   6  -3    4.20    2.00
  -3   6  -3    6.50    1.80
   3  -6   3    3.80    2.20
   3  -6   3    5.00    2.00
  -4   6  -3   45.00    4.70
   4  -6   3   63.89    5.10
  -5   6  -3   54.89    5.30
   6  -6   3   57.59    6.30
   7  -6   3   22.10    5.20
   8  -6   3   -0.80    5.00
   7   5  -3   34.50    7.10
  -7  -5   3   34.00    5.90
   6   5  -3  123.19   10.00
  -6  -5   3  115.49    9.30
   5   5  -3    6.50    4.00
  -5  -5   3   15.00    3.80
   4   5  -3   93.59    7.60
  -4  -5   3   93.79    7.10
   3   5  -3  328.47   17.80
  -3  -5   3  323.67   17.90
   2   5  -3  284.37   15.90
   2   5  -3  292.17   16.00
  -2  -5   3  302.17   16.10
  -2  -5   3  297.97   15.80
   1   5  -3  246.58   13.10
   1   5  -3  228.48   12.90
  -1  -5   3  242.58   13.20
  -1  -5   3  238.38   12.90
   0   5  -3    5.40    2.30
   0   5  -3    6.20    2.10
   0  -5   3    7.90    2.20
   0  -5   3    8.60    2.20
  -1   5  -3   66.19    4.60
  -1   5  -3   67.19    4.60
   1  -5   3   69.29    4.70
   1  -5   3   65.79    4.40
  -2   5  -3  159.98    8.90
  -2   5  -3  171.88    9.30
   2  -5   3  172.68    8.90
   2  -5   3  166.28    9.30
  -3   5  -3  191.18   10.60
   3  -5   3  193.68   10.70
  -4   5  -3    0.00    2.00
   4  -5   3    3.60    2.50
  -5   5  -3   38.30    4.80
   5  -5   3   60.09    6.10
   6  -5   3    5.80    3.40
   7  -5   3   33.20    5.70
   8  -5   3    6.10    5.40
   7   4  -3   31.00    7.00
   6   4  -3   14.80    5.00
  -6  -4   3   14.40    4.00
   5   4  -3  320.57   18.40
  -5  -4   3  317.87   17.80
   4   4  -3   51.59    5.70
  -4  -4   3   50.29    5.10
   3   4  -3  254.57   13.80
  -3  -4   3  242.68   13.30
  -3  -4   3  222.08   14.00
   2   4  -3  133.19    8.70
   2   4  -3  151.48    8.60
  -2  -4   3  147.09    8.50
  -2  -4   3  143.79    8.70
   1   4  -3   27.50    3.50
   1   4  -3   28.10    3.30
  -1  -4   3   28.90    3.40
  -1  -4   3   30.90    3.30
   0   4  -3    5.30    1.90
   0   4  -3    6.70    1.90
   0  -4   3    6.10    1.90
   0  -4   3    8.10    2.00
  -1   4  -3    4.40    1.80
  -1   4  -3    4.10    1.40
   1  -4   3    3.30    1.70
   1  -4   3    3.80    1.40
  -2   4  -3  203.48   10.90
   2  -4   3  200.08   10.90
  -3   4  -3  156.98    8.90
   3  -4   3  154.08    9.00
   4  -4   3  139.09    8.60
   5  -4   3   66.89    6.00
   6  -4   3    9.60    4.10
   7  -4   3   25.70    5.20
   7   3  -3   14.60    5.30
  -7  -3   3   19.10    4.60
   6   3  -3  104.89    9.20
  -6  -3   3  116.59    8.50
   5   3  -3  115.69    8.80
  -5  -3   3  109.69    7.90
   4   3  -3  153.78   10.30
  -4  -3   3  170.78    9.80
  -4  -3   3  156.08    9.70
  -4  -3   3  160.78   10.10
   3   3  -3  172.78   10.70
   3   3  -3  192.28   11.20
  -3  -3   3  203.88   11.20
  -3  -3   3  199.18   10.80
   2   3  -3  281.27   14.70
   2   3  -3  273.17   14.90
  -2  -3   3  280.97   14.60
  -2  -3   3  279.17   14.90
   1   3  -3   98.89    6.20
   1   3  -3   97.69    5.90
  -1  -3   3   99.19    6.00
  -1  -3   3   99.09    6.10
   0   3  -3   43.30    3.30
   0   3  -3   41.30    3.40
   0  -3   3   40.90    3.40
   0  -3   3   39.60    3.30
  -1   3  -3  105.59    6.20
   1  -3   3  107.29    6.20
  -2   3  -3  279.77   14.50
   2  -3   3  275.97   14.50
  -3   3  -3  178.28   10.20
   3  -3   3  187.58   10.40
  -4   3  -3  170.48   10.10
   4  -3   3  167.48   10.10
   5  -3   3  102.09    7.40
  -6   3  -3  109.89    7.20
  -6   3  -3   87.89    6.50
   6  -3   3  117.79    8.40
  -7   3  -3   12.90    4.40
  -7   3  -3    6.40    3.30
   7  -3   3    6.00    4.20
  -8  -2   3   13.70    9.00
   7   2  -3    2.00    4.80
  -7  -2   3    5.50    4.00
   6   2  -3  139.89   10.30
  -6  -2   3  142.69    9.60
   5   2  -3    0.50    3.20
  -5  -2   3    5.00    2.90
  -5  -2   3   -1.00    2.60
   4   2  -3  109.29    7.70
  -4  -2   3  107.89    7.00
  -4  -2   3  101.19    7.10
  -4  -2   3  114.39    8.20
   3   2  -3  260.67   13.80
   3   2  -3  215.38   13.20
  -3  -2   3  254.87   13.30
  -3  -2   3  264.67   13.80
   2   2  -3   77.09    5.00
   2   2  -3   70.49    5.40
  -2  -2   3   77.19    5.40
  -2  -2   3   73.39    4.80
   1   2  -3  982.10   47.20
   1   2  -3  919.41   47.30
  -1  -2   3  973.10   47.20
   0   2  -3   57.69    4.00
   0   2  -3   71.19    4.40
   0  -2   3   53.89    3.80
   0  -2   3   63.19    4.00
  -1   2  -3  337.67   17.10
   1  -2   3  335.67   17.20
  -2   2  -3  233.98   12.40
   2  -2   3  230.78   12.40
  -3   2  -3   72.39    5.30
   3  -2   3   72.59    5.20
  -4   2  -3  983.60   49.40
   4  -2   3  984.00   49.40
  -5   2  -3   -1.10    2.40
  -5   2  -3    2.70    1.90
   5  -2   3    2.70    3.10
  -6   2  -3   48.50    5.20
  -6   2  -3   36.90    4.20
   6  -2   3   49.60    6.20
  -7   2  -3   21.50    3.80
   7  -2   3   33.70    5.50
  -8  -1   3   43.90    8.20
  -8  -1   3   60.49    7.50
  -7  -1   3    2.70    5.20
  -7  -1   3    5.90    3.60
  -6  -1   3   52.79    5.50
   5   1  -3   14.20    4.10
  -5  -1   3    4.40    2.50
  -5  -1   3    7.80    3.20
  -5  -1   3    9.90    2.70
   4   1  -3  327.77   17.40
  -4  -1   3  318.77   16.70
  -4  -1   3  321.67   16.80
  -4  -1   3  300.47   17.20
   3   1  -3   14.00    3.00
  -3  -1   3   14.40    3.10
  -3  -1   3   13.20    2.20
   2   1  -3  166.38    8.80
   2   1  -3  148.19    9.00
  -2  -1   3  151.58    8.30
  -2  -1   3  154.08    9.00
   1   1  -3 1612.74   78.39
  -1  -1   3 1479.65   78.59
  -1  -1   3 1716.53   78.69
  -1  -1   3 1614.04   78.39
   0   1  -3 4719.23  209.08
   0   1  -3 4177.08  208.78
   0  -1   3 3986.80  208.78
  -1   1  -3  136.99    7.60
   1  -1   3  134.49    7.70
  -2   1  -3  376.36   19.40
   2  -1   3  379.56   19.50
  -3   1  -3  143.49    8.50
   3  -1   3  142.39    8.50
   3  -1   3  137.29    7.60
  -4   1  -3  375.86   19.50
  -4   1  -3  390.16   20.50
   4  -1   3  394.46   20.90
   4  -1   3  371.76   19.50
  -5   1  -3  169.38   10.00
   5  -1   3  195.68   11.40
   5  -1   3  174.78   10.20
  -6   1  -3   -1.20    2.50
   6  -1   3    1.70    3.70
  -7   1  -3   41.70    6.20
  -8   0   3   32.30    5.30
  -8   0   3   25.30    6.30
  -7   0   3   15.00    5.40
  -7   0   3   10.90    3.60
  -6   0   3   19.70    5.00
  -6   0   3   11.90    3.30
  -5   0   3   55.29    7.10
  -5   0   3   57.79    5.80
  -5   0   3   50.79    4.90
  -5   0   3   71.19    5.10
  -4   0   3  157.28   10.30
  -4   0   3  180.18    9.70
  -4   0   3  177.68    9.80
  -4   0   3  180.68   10.60
  -3   0   3  342.07   17.00
  -3   0   3  337.07   17.80
  -3   0   3  323.57   17.70
   2   0  -3   23.40    2.50
  -2   0   3   29.20    2.50
  -2   0   3   28.50    3.60
  -2   0   3   29.90    3.80
   1   0  -3  146.79    8.80
   1   0  -3  181.48    8.30
  -1   0   3  163.08    8.70
  -1   0   3  139.99    8.30
   0   0  -3   25.40   15.00
   0   0  -3   29.10   12.00
   0   0   3   33.00   14.80
   0   0   3   26.90   11.70
  -1   0  -3  218.98   11.70
  -1   0  -3  220.88   11.30
   1   0   3  222.38   11.70
  -2   0  -3   15.80    1.90
  -2   0  -3   17.80    2.60
   2   0   3   13.70    2.50
   2   0   3   12.80    2.00
  -3   0  -3   44.80    3.60
   3   0   3   54.29    4.60
   3   0   3   50.29    3.80
  -4   0  -3    1.50    1.70
   4   0   3    3.40    2.00
   4   0   3    5.40    2.90
  -5   0  -3  344.87   18.70
   5   0   3  339.57   18.70
   5   0   3  387.96   19.90
  -6   0  -3    6.80    2.70
   6   0   3   15.40    4.00
   6   0   3   15.50    3.50
   7   0   3   15.50    4.50
  -8   1   3    1.50    5.30
  -8   1   3    3.50    4.00
  -7   1   3   79.59    7.80
  -7   1   3   70.29    6.60
  -6   1   3   15.00    3.20
  -6   1   3   17.70    4.30
  -5   1   3   67.19    6.20
  -5   1   3   56.99    5.90
  -5   1   3   71.39    5.10
  -5   1   3   77.09    5.20
  -4   1   3  839.62   41.80
  -4   1   3  802.42   41.00
  -4   1   3  858.81   41.10
  -4   1   3  815.22   41.80
  -3   1   3  483.65   25.40
  -3   1   3  511.95   25.50
   2  -1  -3   71.49    5.20
  -2   1   3   75.79    5.30
   1  -1  -3   31.20    2.30
   1  -1  -3   30.20    3.30
  -1   1   3   29.70    3.40
  -1   1   3   32.00    2.40
   0  -1  -3   22.80    3.80
   0   1   3   26.40    2.60
   0   1   3   28.20    2.90
  -1  -1  -3  293.37   14.80
  -1  -1  -3  285.67   14.80
   1   1   3  274.77   14.80
   1   1   3  274.97   14.50
  -2  -1  -3  279.87   14.40
  -2  -1  -3  261.97   13.80
   2   1   3  257.67   14.30
   2   1   3  263.27   13.90
  -3  -1  -3   86.29    6.20
  -3  -1  -3   81.99    5.40
   3   1   3   85.09    5.60
   3   1   3   77.99    6.10
  -4  -1  -3    3.60    1.90
   4   1   3    7.50    2.40
   4   1   3   10.60    3.30
  -5  -1  -3  195.18   11.90
   5   1   3  222.88   13.10
   5   1   3  212.08   12.10
   6   1   3   16.80    4.30
   6   1   3   22.00    4.10
   7   1   3   10.50    4.30
   7   1   3   12.40    4.20
  -8   2   3   40.20    6.50
  -8   2   3   24.70    5.00
  -7   2   3    9.60    4.60
  -7   2   3   -1.00    3.10
  -6   2   3   22.20    3.50
  -6   2   3   29.10    3.80
  -6   2   3   39.30    5.40
  -5   2   3  105.99    6.70
  -5   2   3  122.19    7.80
  -5   2   3   96.79    7.60
  -4   2   3   11.70    3.50
  -4   2   3   15.30    3.40
   3  -2  -3  227.98   12.80
  -3   2   3  232.68   12.80
   2  -2  -3   72.79    5.40
  -2   2   3   82.69    5.60
   1  -2  -3    9.00    1.40
   1  -2  -3    6.30    2.20
  -1   2   3    7.10    2.30
  -1   2   3    8.40    2.30
   0  -2  -3  287.57   14.80
   0  -2  -3  285.87   14.60
   0   2   3  279.57   14.80
   0   2   3  283.27   14.60
  -1  -2  -3   39.00    3.60
  -1  -2  -3   36.40    3.60
   1   2   3   37.20    3.40
   1   2   3   39.00    3.60
  -2  -2  -3  424.46   22.00
  -2  -2  -3  443.86   22.40
   2   2   3  414.36   22.30
   2   2   3  436.96   22.10
  -3  -2  -3   68.99    6.50
  -3  -2  -3   75.89    5.40
   3   2   3   69.59    6.10
   3   2   3   84.19    5.60
  -4  -2  -3  282.47   16.10
   4   2   3  287.67   16.00
   4   2   3  309.17   16.60
   5   2   3  362.46   19.90
   5   2   3  340.07   19.00
   6   2   3   63.09    6.30
   6   2   3   56.69    8.60
  -8   3   3    8.10    5.10
  -8   3   3   47.10    6.60
  -7   3   3   -2.30    3.80
  -7   3   3    8.40    4.50
  -7   3   3   -8.60    2.90
  -6   3   3  357.86   17.50
  -6   3   3  277.67   15.90
  -6   3   3  285.17   16.10
  -5   3   3   12.90    3.70
  -5   3   3    2.40    2.90
   4  -3  -3   83.29    6.60
  -4   3   3   86.69    6.50
   3  -3  -3    0.20    2.30
  -3   3   3   -0.60    2.30
   2  -3  -3   15.30    2.80
  -2   3   3   19.30    3.30
   1  -3  -3    2.90    2.00
   1  -3  -3    1.90    1.20
  -1   3   3    1.90    1.30
  -1   3   3    3.20    2.20
   0  -3  -3   14.60    2.10
   0  -3  -3   18.30    2.80
   0   3   3   15.80    2.40
   0   3   3   16.70    2.90
  -1  -3  -3   18.00    3.00
  -1  -3  -3   18.40    2.80
   1   3   3   19.10    3.00
   1   3   3   19.60    3.10
  -2  -3  -3  763.12   37.40
  -2  -3  -3  726.63   37.10
   2   3   3  727.23   37.20
   2   3   3  723.73   37.10
   3   3   3   16.00    3.20
   3   3   3   22.40    3.90
  -4  -3  -3  150.58   10.70
   4   3   3  176.78   10.50
   4   3   3  179.38   11.10
   5   3   3    3.90    2.90
   5   3   3   -3.00    2.70
  -6  -3  -3    4.30    3.70
   6   3   3    9.30    3.60
  -8   4   3   19.00    5.70
  -8   4   3   -0.80    4.40
  -8   4   3    0.10    3.90
  -7   4   3   64.49    7.40
  -6   4   3   37.20    5.60
   5  -4  -3   18.50    4.10
   4  -4  -3   28.20    5.70
  -4   4   3   31.90    4.70
   3  -4  -3  314.17   16.60
  -3   4   3  301.17   16.60
   2  -4  -3  231.68   12.80
  -2   4   3  229.38   12.70
   1  -4  -3   74.39    5.50
   1  -4  -3   71.99    4.70
  -1   4   3   80.69    5.60
   0  -4  -3  818.62   41.90
   0  -4  -3  842.12   41.60
   0   4   3  850.51   41.60
   0   4   3  826.62   41.90
  -1  -4  -3 1025.30   52.89
  -1  -4  -3 1084.19   52.99
   1   4   3 1062.09   52.99
   1   4   3 1071.19   52.89
  -2  -4  -3  425.96   22.30
  -2  -4  -3  415.76   22.10
   2   4   3  421.26   22.20
   2   4   3  412.56   22.30
  -3  -4  -3  169.48   11.20
   3   4   3  179.38   11.00
   3   4   3  179.98   10.90
   4   4   3   12.30    3.50
   4   4   3   11.70    3.70
  -5  -4  -3   95.59    9.60
   5   4   3   79.49    7.20
  -6  -4  -3   35.40    6.40
   6   4   3   30.60    5.40
  -8   5   3   98.19    9.20
  -7   5   3   85.89    8.40
  -6   5   3  117.49    9.20
  -5   5   3    4.40    3.70
   4  -5  -3   16.80    3.70
  -4   5   3   18.00    3.80
   3  -5  -3  503.95   26.40
  -3   5   3  488.65   25.70
   2  -5  -3  299.77   16.00
  -2   5   3  264.17   15.30
   1  -5  -3  110.79    6.90
   1  -5  -3  147.39    8.60
   1  -5  -3  106.59    6.80
  -1   5   3  124.49    7.90
   0  -5  -3   14.60    3.30
   0  -5  -3   10.90    2.20
   0  -5  -3    9.30    2.30
   0   5   3   16.40    3.20
  -1  -5  -3  323.47   18.30
  -1  -5  -3  349.27   18.30
   1   5   3  349.07   18.50
   2   5   3   20.70    4.10
  -3  -5  -3   24.80    4.50
   3   5   3   28.10    4.80
  -4  -5  -3  101.89    8.50
   4   5   3   87.39    7.60
  -5  -5  -3   40.20    6.40
   5   5   3   42.80    6.10
  -8   6   3   32.30    6.80
  -7   6   3   38.50    6.70
  -6   6   3    5.30    4.60
  -5   6   3   73.79    7.20
  -4   6   3   46.30    5.50
   3  -6  -3  247.78   14.20
   2  -6  -3   10.80    3.10
  -2   6   3   16.80    3.80
   1  -6  -3   22.50    2.90
   1  -6  -3   30.10    4.20
   1  -6  -3   27.70    3.00
   0  -6  -3   10.90    3.60
   0  -6  -3   12.10    2.70
   0  -6  -3   11.00    2.40
   0   6   3   12.10    3.40
  -1  -6  -3  393.26   20.00
  -1  -6  -3  347.17   19.40
   1   6   3  345.17   19.70
  -2  -6  -3   11.70    3.30
   2   6   3    9.00    3.60
  -3  -6  -3   57.29    6.50
   3   6   3   54.19    6.30
  -4  -6  -3    3.70    4.20
   4   6   3    3.30    3.30
  -5  -6  -3   84.39    8.70
   5   6   3   56.99    7.20
  -8   7   3   17.30    6.60
  -7   7   3   28.50    6.40
  -6   7   3   32.10    6.00
  -5   7   3   63.49    6.90
  -4   7   3   16.20    4.20
  -3   7   3   12.80    3.50
  -2   7   3   79.79    6.90
   1  -7  -3   73.09    5.20
   1  -7  -3   76.59    5.50
  -1   7   3   76.79    6.60
   0  -7  -3  104.79    6.90
   0  -7  -3   86.49    6.60
   0   7   3  101.89    7.70
  -1  -7  -3  166.88   10.60
   1   7   3  164.68   11.00
  -2  -7  -3  619.54   32.50
   2   7   3  608.54   32.60
  -3  -7  -3  131.99    9.90
   3   7   3  123.39    9.60
  -4  -7  -3    7.50    4.50
   4   7   3    3.50    3.60
  -8   8   3   13.70    6.60
  -7   8   3   42.90    7.20
  -6   8   3    8.50    5.10
  -5   8   3    4.30    4.20
  -4   8   3   15.70    4.30
  -3   8   3    3.90    3.60
  -2   8   3  655.43   34.20
   1  -8  -3   74.39    5.90
   1  -8  -3   91.39    6.20
  -1   8   3   87.29    7.40
   0  -8  -3  162.68   10.20
   0   8   3  167.58   11.20
  -1  -8  -3   79.29    6.90
   1   8   3   74.39    7.40
  -2  -8  -3  289.87   16.90
   2   8   3  274.87   17.00
   3   8   3    7.70    4.10
  -7   9   3   29.50    6.70
  -6   9   3    9.80    5.70
  -5   9   3    2.70    4.30
  -4   9   3    1.20    4.00
  -3   9   3   59.99    7.00
   2  -9  -3    4.40    2.60
   2  -9  -3    4.80    2.10
  -2   9   3    7.30    4.10
   1  -9  -3  140.79    8.90
  -1   9   3  135.49   10.10
   0  -9  -3  139.89    9.20
   0   9   3  131.59   10.30
  -1  -9  -3  204.28   12.60
   1   9   3  187.78   13.10
  -2  -9  -3   36.20    6.10
  -3  -9  -3  104.49    9.50
   3   9   3   87.99    9.10
  -6  10   3   15.60    5.90
  -5  10   3    6.90    5.20
  -4  10   3  128.19   10.30
  -3  10   3    8.70    4.40
   2 -10  -3   20.50    3.30
  -2  10   3   17.40    4.70
   1 -10  -3  153.78    9.70
  -1  10   3  142.89   11.10
   0 -10  -3   54.69    6.10
   0  10   3   45.40    6.60
  -1 -10  -3   17.00    4.40
   1  10   3   16.80    5.00
  -2 -10  -3   66.19    7.80
   2  10   3   65.79    8.20
  -6  11   3   27.20    7.10
  -4  11   3  116.89   11.00
  -3  11   3   49.20    7.90
   2 -11  -3   43.70    6.60
   2 -11  -3   20.40    3.60
   1 -11  -3  105.59    8.10
  -1  11   3  103.79    9.80
   0 -11  -3    2.00    3.90
   0  11   3    2.80    4.40
  -1 -11  -3   66.29    8.60
   1  11   3   62.89    8.90
  -5  12   3    2.10    5.40
  -4  12   3    7.80    5.60
  -3  12   3   20.00    5.80
   2 -12  -3   27.00    4.40
  -2  12   3   30.30    6.60
  -1  12   3   39.60    6.90
   0  14  -4   13.10    5.90
   0 -14   4   12.20    4.70
  -1  14  -4   77.59    9.20
   1 -14   4   70.59    7.80
  -2  14  -4    4.40    5.60
   2 -14   4    4.40    4.50
  -3  14  -4   -2.70    5.20
   3 -14   4    0.60    4.30
  -4  14  -4    2.50    6.00
   4 -14   4   -2.10    4.50
   1  13  -4   11.50    5.20
  -1 -13   4    5.10    4.20
   0  13  -4   12.80    9.90
   0 -13   4    5.00    3.90
  -1  13  -4   59.19    7.90
   1 -13   4   53.69    6.50
  -2  13  -4    1.60    4.50
   2 -13   4    1.60    3.90
  -3  13  -4   32.90    6.80
   3 -13   4   26.80    5.20
  -4  13  -4    6.00    5.30
   4 -13   4    4.20    4.30
  -5  13  -4   11.40    6.00
   5 -13   4   12.70    5.20
   3  12  -4   26.00    6.30
  -3 -12   4   27.50    5.90
   2  12  -4   15.40    5.20
  -2 -12   4   14.20    4.60
   1  12  -4   21.60    5.70
  -1 -12   4   28.80    5.20
   0  12  -4    4.30    4.20
   0 -12   4    0.90    3.40
  -1  12  -4   41.80    6.60
   1 -12   4   36.70    5.30
  -2  12  -4   70.19    8.10
   2 -12   4   72.89    7.10
  -3  12  -4   15.10    5.40
   3 -12   4    9.10    4.10
  -4  12  -4   12.70    5.00
   4 -12   4   10.70    4.20
  -5  12  -4   12.60    5.40
   5 -12   4   11.00    4.70
  -6  12  -4    6.40    5.50
   6 -12   4   -4.40    4.50
   3  11  -4   46.80    7.40
  -3 -11   4   55.39    7.00
   2  11  -4   84.09    8.30
  -2 -11   4   69.99    7.30
   1  11  -4   65.59    7.60
  -1 -11   4   70.79    6.80
   0  11  -4  119.39    8.90
   0 -11   4   86.79    7.80
  -1  11  -4  447.36   23.30
   1 -11   4  389.66   22.50
  -2  11  -4   58.99    6.70
   2 -11   4   36.70    5.10
  -3  11  -4    8.00    4.30
   3 -11   4    6.30    3.60
  -4  11  -4    9.80    4.50
   4 -11   4    4.60    5.30
   4 -11   4    9.90    3.80
   5 -11   4   -0.70    4.70
   5 -11   4    2.10    4.10
  -6  11  -4   53.39    8.10
   6 -11   4   47.00    6.60
   4  10  -4  128.59   10.60
  -4 -10   4  114.99    9.80
   3  10  -4   23.30    5.40
  -3 -10   4   35.10    5.40
   2  10  -4  220.38   13.70
  -2 -10   4  198.58   13.00
   1  10  -4   16.20    4.30
  -1 -10   4   18.00    4.00
   0  10  -4  162.88   11.00
   0 -10   4  161.98   10.30
  -1  10  -4    4.70    3.20
   1 -10   4   -0.10    2.90
   2 -10   4   89.09    7.80
   2 -10   4   94.19    7.10
  -3  10  -4   66.69    6.30
   3 -10   4   47.70    6.40
   3 -10   4   56.89    5.70
  -4  10  -4   18.70    4.20
   4 -10   4   14.10    4.00
  -5  10  -4    1.60    3.50
   5 -10   4   -0.30    3.80
   5 -10   4    5.10    4.00
   6 -10   4   -0.20    4.40
   7 -10   4    0.60    5.00
   5   9  -4   24.00    5.80
  -5  -9   4   17.70    4.80
   4   9  -4  108.79    9.40
  -4  -9   4   97.89    8.70
   3   9  -4  229.28   14.40
  -3  -9   4  226.18   14.00
   2   9  -4    2.10    3.20
  -2  -9   4   -1.90    2.60
   1   9  -4   44.00    5.70
  -1  -9   4   47.10    5.20
   0   9  -4   17.60    4.10
   0  -9   4   23.60    3.80
  -1   9  -4  128.79    8.30
  -1   9  -4   99.09    7.60
   1  -9   4  127.59    8.70
   1  -9   4  111.19    8.20
  -2   9  -4   13.00    3.00
  -2   9  -4   21.20    3.80
   2  -9   4   19.00    4.00
   2  -9   4   13.30    3.70
  -3   9  -4   11.30    3.10
  -3   9  -4   10.00    3.10
   3  -9   4   14.20    3.90
   3  -9   4    9.30    5.20
  -4   9  -4   70.29    8.50
   4  -9   4   61.09    6.10
   4  -9   4   55.99    5.60
  -5   9  -4   38.90    4.90
   5  -9   4   27.70    4.90
   6  -9   4   29.70    5.60
   7  -9   4    5.60    5.00
   5   8  -4   15.10    8.80
  -5  -8   4   23.40    5.60
   4   8  -4    9.20    4.20
  -4  -8   4   14.90    4.00
   3   8  -4  129.39    9.50
  -3  -8   4  125.59    9.00
   2   8  -4   32.90    5.10
  -2  -8   4   33.50    4.50
   1   8  -4   33.40    4.80
  -1  -8   4   39.10    4.70
   0   8  -4   50.69    5.20
   0   8  -4   47.50    4.80
   0  -8   4   54.89    4.90
   0  -8   4   50.59    5.10
  -1   8  -4    7.90    2.70
  -1   8  -4    4.50    2.40
   1  -8   4    5.50    2.80
   1  -8   4    5.50    2.50
  -2   8  -4   18.20    3.10
  -2   8  -4   18.20    3.20
   2  -8   4   18.30    3.20
   2  -8   4   20.70    3.10
  -3   8  -4   24.70    3.50
  -3   8  -4   14.10    3.00
   3  -8   4   18.70    3.40
   3  -8   4   22.50    3.50
  -4   8  -4    2.20    2.70
  -4   8  -4    5.10    2.40
   4  -8   4   13.10    5.70
   4  -8   4    2.80    2.50
   5  -8   4  193.78   12.00
   6  -8   4    9.00    4.40
   7  -8   4   12.90    5.20
   6   7  -4   11.20    5.50
  -6  -7   4    9.90    4.70
   5   7  -4   41.40    6.80
  -5  -7   4   41.40    5.90
   4   7  -4   10.10    4.00
  -4  -7   4    5.30    3.10
   3   7  -4  143.59    9.80
  -3  -7   4  135.79    9.20
   2   7  -4    7.10    3.00
  -2  -7   4    9.70    2.90
   1   7  -4   67.09    5.50
   1   7  -4   69.89    5.80
  -1  -7   4   75.99    5.60
  -1  -7   4   71.49    5.80
   0   7  -4  108.19    7.30
   0  -7   4  108.19    7.20
   0  -7   4  113.69    7.10
  -1   7  -4  114.19    7.30
  -1   7  -4  111.99    7.20
   1  -7   4  121.29    7.40
   1  -7   4  115.59    7.20
  -2   7  -4   12.10    2.50
  -2   7  -4   10.20    2.30
   2  -7   4   10.20    2.50
   2  -7   4   12.30    2.60
  -3   7  -4  127.59   10.20
  -3   7  -4  152.38    8.30
   3  -7   4  142.09    8.80
   3  -7   4  148.59    8.30
  -4   7  -4    2.50    2.50
   4  -7   4    3.50    3.30
   5  -7   4    7.70    3.40
   6  -7   4  178.98   11.90
   7  -7   4    2.20    4.50
   6   6  -4   66.79    9.70
  -6  -6   4   62.29    7.90
   5   6  -4   25.20    5.40
  -5  -6   4   27.80    4.60
   4   6  -4   79.59    7.50
  -4  -6   4   80.19    6.90
   3   6  -4   83.79    7.00
  -3  -6   4   80.69    6.40
   2   6  -4  531.55   28.70
   2   6  -4  576.44   29.00
  -2  -6   4  561.54   29.00
  -2  -6   4  559.04   28.70
   1   6  -4  380.66   20.00
   1   6  -4  368.46   19.80
  -1  -6   4  388.76   20.00
  -1  -6   4  371.26   19.80
   0   6  -4  273.67   14.70
   0   6  -4  268.87   14.60
   0  -6   4  277.07   14.70
   0  -6   4  276.77   14.70
  -1   6  -4    0.70    1.80
  -1   6  -4    0.60    1.80
   1  -6   4   -0.60    1.50
   1  -6   4    0.50    1.80
  -2   6  -4  322.87   17.20
  -2   6  -4  328.17   16.90
   2  -6   4  325.77   17.00
   2  -6   4  342.97   17.40
  -3   6  -4   12.70    2.70
   3  -6   4   16.30    3.00
  -4   6  -4   42.20    4.50
   4  -6   4   38.10    4.90
   5  -6   4    4.20    3.00
   6  -6   4   67.99    7.20
   7  -6   4    2.80    4.30
   7   5  -4    1.50    5.20
  -7  -5   4    6.20    4.80
   6   5  -4  135.09   11.40
  -6  -5   4  157.78   10.60
   5   5  -4   13.90    4.50
  -5  -5   4   15.80    3.80
   4   5  -4   57.59    6.10
  -4  -5   4   53.59    5.50
   3   5  -4  120.19    8.20
  -3  -5   4  135.99    9.20
  -3  -5   4  122.29    8.40
   2   5  -4  982.40   49.10
   2   5  -4  957.00   49.00
  -2  -5   4  984.30   48.90
  -2  -5   4  990.00   49.10
   1   5  -4  324.17   17.70
   1   5  -4  343.07   17.70
  -1  -5   4  338.67   17.70
  -1  -5   4  341.57   17.80
   0   5  -4  195.88   11.10
   0   5  -4  199.18   11.10
   0  -5   4  202.38   11.00
   0  -5   4  217.18   11.20
  -1   5  -4  190.28    9.90
  -1   5  -4  161.78    9.50
   1  -5   4  186.68   10.00
  -2   5  -4   81.49    5.40
   2  -5   4   78.39    5.50
  -3   5  -4  273.87   14.60
   3  -5   4  270.47   14.70
  -4   5  -4  496.75   26.10
   4  -5   4  513.25   26.60
   5  -5   4   63.19    6.00
   6  -5   4   10.10    3.90
   7  -5   4   15.00    4.60
   7   4  -4    8.00    6.90
  -7  -4   4   11.40    4.60
   6   4  -4   20.30    5.50
  -6  -4   4   19.60    4.10
   5   4  -4  156.78   11.00
  -5  -4   4  159.28   10.20
   4   4  -4   56.99    5.90
  -4  -4   4   50.69    5.10
   3   4  -4  142.09    9.20
  -3  -4   4  141.39    9.10
  -3  -4   4  145.99    8.70
   2   4  -4   96.09    6.90
   2   4  -4  101.49    6.60
  -2  -4   4   97.59    6.70
  -2  -4   4  105.19    6.50
   1   4  -4  139.49    8.50
   1   4  -4  143.09    8.30
  -1  -4   4  152.28    8.40
  -1  -4   4  150.28    8.60
   0   4  -4   75.59    5.00
   0   4  -4   74.59    4.90
   0  -4   4   77.99    5.10
   0  -4   4   75.09    4.90
  -1   4  -4  151.28    8.50
   1  -4   4  151.78    8.60
  -2   4  -4  100.39    6.30
   2  -4   4  100.89    6.50
  -3   4  -4  150.08    9.00
   3  -4   4  156.08    9.10
  -4   4  -4   43.60    4.50
   5  -4   4  169.28   10.80
   6  -4   4    8.40    4.00
   7  -4   4   12.60    4.80
  -8  -3   4    3.80    4.70
   7   3  -4   22.90    6.20
  -7  -3   4   26.10    4.90
   6   3  -4    4.90    4.50
  -6  -3   4    8.90    3.50
   5   3  -4   77.19    7.30
  -5  -3   4   73.69    6.20
  -4  -3   4  182.78   10.30
  -4  -3   4  164.68   10.80
   3   3  -4  165.68    9.90
   3   3  -4  158.28    9.50
  -3  -3   4  152.18    9.70
  -3  -3   4  169.78    9.40
   2   3  -4  196.08   11.30
   2   3  -4  202.28   11.00
  -2  -3   4  195.78   11.20
  -2  -3   4  205.28   10.90
   1   3  -4    4.40    2.20
   1   3  -4    4.80    1.80
  -1  -3   4    5.20    2.10
  -1  -3   4    4.40    1.90
   0   3  -4    5.90    1.90
   0   3  -4    6.40    1.90
   0  -3   4    8.60    2.10
   0  -3   4    4.90    1.60
  -1   3  -4   34.40    3.20
   1  -3   4   30.10    3.20
  -2   3  -4  134.39    7.70
   2  -3   4  126.39    7.80
  -3   3  -4  266.57   14.40
   3  -3   4  245.88   14.00
  -4   3  -4   20.80    3.40
   5  -3   4  354.76   19.50
   6  -3   4   16.80    4.20
   7  -3   4   14.50    4.80
  -8  -2   4   26.30    8.40
  -8  -2   4   18.50    5.10
  -7  -2   4   10.60    4.10
   6   2  -4   37.00    6.30
  -6  -2   4   39.40    5.00
   5   2  -4   74.89    7.00
  -5  -2   4   64.69    6.10
  -5  -2   4   88.69    6.70
   4   2  -4   68.89    6.10
  -4  -2   4   72.79    5.30
  -4  -2   4   65.89    6.00
   3   2  -4  203.78   10.90
   3   2  -4  191.08   11.20
  -3  -2   4  180.98   11.20
  -3  -2   4  201.18   10.70
   2   2  -4   47.10    4.40
   2   2  -4   47.10    3.80
  -2  -2   4   48.00    4.50
  -2  -2   4   49.40    3.90
   1   2  -4  140.29    7.50
   1   2  -4  125.89    7.80
  -1  -2   4  134.09    7.50
  -1  -2   4  135.99    7.80
   0   2  -4   29.60    2.90
   0  -2   4   28.40    2.80
   0  -2   4   28.50    2.90
  -1   2  -4  293.77   15.30
   1  -2   4  297.17   15.40
  -2   2  -4  246.28   13.30
   2  -2   4  252.27   13.40
  -3   2  -4  216.28   12.70
   3  -2   4  224.98   12.40
   4  -2   4  103.49    7.40
   5  -2   4  242.98   14.40
   6  -2   4   13.70    4.10
   7  -2   4    2.90    4.30
  -8  -1   4   21.40    5.00
  -8  -1   4   10.80    8.70
  -7  -1   4    4.80    5.50
  -7  -1   4    7.00    3.40
  -6  -1   4    1.00    4.70
  -6  -1   4   -1.00    2.70
  -5  -1   4  116.69    8.00
  -5  -1   4  123.39    7.60
  -5  -1   4  114.69    9.00
  -4  -1   4   80.79    5.50
   3   1  -4    0.40    1.80
  -3  -1   4    4.30    2.70
  -3  -1   4    0.10    2.30
  -3  -1   4    4.30    1.60
   2   1  -4  331.87   17.40
  -2  -1   4  336.57   18.00
  -2  -1   4  357.96   18.00
  -2  -1   4  344.07   17.40
   1   1  -4  177.48    9.30
  -1  -1   4  179.68    9.70
  -1  -1   4  175.78    9.20
  -1  -1   4  163.88    9.60
   0   1  -4 2483.25  118.29
   0   1  -4 2438.06  118.19
   0  -1   4 2434.56  118.29
   0  -1   4 2335.17  118.19
  -1   1  -4   41.30    3.70
   1  -1   4   40.60    3.80
  -2   1  -4 1309.97   65.29
   2  -1   4 1330.47   65.29
  -3   1  -4    6.20    2.40
   3  -1   4    9.00    2.70
   4  -1   4   93.89    7.10
   5  -1   4   19.60    4.30
   5  -1   4   19.10    3.00
  -6   1  -4  117.79    7.50
  -7   1  -4   34.10    8.40
  -7   1  -4   -2.30    2.60
   7  -1   4    5.50    3.90
  -8   0   4   43.50    5.90
  -8   0   4   37.70    7.50
  -7   0   4    7.90    5.20
  -7   0   4   10.20    3.30
  -6   0   4   51.89    5.30
  -6   0   4   64.09    5.20
  -6   0   4   36.20    6.10
  -5   0   4    0.40    3.50
  -5   0   4   -0.40    3.30
  -5   0   4    4.40    2.30
  -5   0   4    3.90    2.20
   4   0  -4   38.70   25.40
   4   0  -4   56.39   23.20
  -4   0   4   47.20   25.80
  -4   0   4   62.69   24.50
   3   0  -4  478.25   23.70
  -3   0   4  494.35   23.60
  -3   0   4  429.66   24.20
  -3   0   4  479.05   24.40
   2   0  -4  294.27   16.10
   2   0  -4  314.87   15.40
  -2   0   4  304.77   15.40
  -2   0   4  304.07   16.10
   1   0  -4  630.14   30.30
   1   0  -4  587.64   30.30
  -1   0   4  615.14   30.00
  -1   0   4  594.44   30.30
   0   0  -4  459.45   23.90
   0   0  -4  499.75   23.90
   0   0   4  466.85   23.80
   0   0   4  477.05   23.90
  -1   0  -4  810.42   40.30
  -1   0  -4  796.62   39.90
   1   0   4  834.02   40.00
   1   0   4  798.02   40.30
  -2   0  -4   75.19    5.40
   2   0   4   73.59    4.60
   2   0   4   73.39    5.50
  -3   0  -4  242.18   12.80
  -3   0  -4  240.18   13.60
   3   0   4  245.18   12.80
  -4   0  -4    4.10    1.80
   4   0   4    5.80    2.20
   4   0   4   10.40    3.30
  -5   0  -4    4.70    2.10
   5   0   4    9.40    2.60
   5   0   4   12.30    3.70
  -6   0  -4    7.50    2.80
   6   0   4   17.00    3.60
   6   0   4   20.30    4.60
   7   0   4    0.80    3.90
  -8   1   4    2.90    4.10
  -8   1   4    9.70    6.00
  -7   1   4   29.40    5.70
  -7   1   4   14.80    4.00
  -7   1   4   28.90    4.00
  -6   1   4    9.00    2.80
  -6   1   4    8.00    2.80
  -6   1   4   10.50    4.40
  -5   1   4  224.78   13.50
  -5   1   4  171.68   12.00
  -5   1   4  208.18   11.00
  -5   1   4  197.18   11.00
  -4   1   4  148.59    8.50
  -4   1   4  147.29    9.70
  -4   1   4  162.88    8.60
  -4   1   4  172.28   10.50
   3  -1  -4  652.13   33.50
  -3   1   4  664.03   33.30
   2  -1  -4  106.09    7.00
  -2   1   4  112.59    7.00
   1  -1  -4   33.10    2.70
   1  -1  -4   33.80    3.60
  -1   1   4   35.80    3.60
  -1   1   4   34.40    2.90
   0  -1  -4    4.40    1.70
   0  -1  -4    3.50    1.70
   0   1   4    4.10    1.70
   0   1   4    4.80    1.80
  -1  -1  -4  617.34   30.90
  -1  -1  -4  609.74   30.70
   1   1   4  615.04   30.70
   1   1   4  614.44   31.00
  -2  -1  -4  123.29    8.50
  -2  -1  -4  117.29    7.00
   2   1   4  116.49    7.60
   2   1   4  120.99    7.10
  -3  -1  -4  177.88    9.80
   3   1   4  171.38   10.60
   3   1   4  172.68    9.80
  -4  -1  -4   28.50    3.50
   4   1   4   29.50    3.80
   4   1   4   34.90    4.80
  -5  -1  -4   18.10    3.20
   5   1   4   28.50    4.70
   5   1   4   18.90    3.30
   6   1   4   16.30    4.20
   6   1   4   16.20    3.90
  -8   2   4   15.00    5.80
  -8   2   4   -2.90    4.20
  -7   2   4   34.90    6.10
  -7   2   4   23.90    4.10
  -7   2   4   15.80    4.10
  -6   2   4  172.98   10.20
  -6   2   4  172.38   10.20
  -6   2   4  190.68   11.60
  -5   2   4  100.19    8.80
  -5   2   4  119.49    8.20
  -4   2   4   36.90    4.80
   3  -2  -4  190.08   10.90
  -3   2   4  182.68   10.80
   2  -2  -4   99.19    6.80
  -2   2   4  116.49    7.10
   1  -2  -4   42.10    4.10
   1  -2  -4   48.80    4.80
  -1   2   4   50.09    3.50
  -1   2   4   52.39    4.30
   0  -2  -4  350.66   18.10
   0  -2  -4  351.86   18.30
   0   2   4  359.06   18.30
   0   2   4  352.16   18.20
  -1  -2  -4  443.76   22.70
  -1  -2  -4  452.35   22.90
   1   2   4  437.16   22.70
   1   2   4  440.76   22.80
  -2  -2  -4   88.49    6.30
  -2  -2  -4   88.69    5.80
   2   2   4   86.09    6.40
   2   2   4   87.99    5.90
  -3  -2  -4   27.70    3.60
   3   2   4   33.80    3.90
  -4  -2  -4   48.00    4.60
   4   2   4   52.39    4.80
   4   2   4   50.29    5.90
   5   2   4  169.48   11.10
   5   2   4  152.78   10.00
   6   2   4   50.59    6.50
   6   2   4   43.60    5.50
  -8   3   4    1.20    3.60
  -8   3   4    9.90    5.80
  -7   3   4   55.29    7.30
  -6   3   4   25.90    5.20
  -5   3   4   28.30    4.70
   4  -3  -4   25.10    4.40
  -4   3   4   33.10    4.80
   3  -3  -4  304.67   16.90
  -3   3   4  325.57   17.00
   2  -3  -4  220.78   12.40
  -2   3   4  226.28   12.50
   1  -3  -4   71.79    5.30
   1  -3  -4   71.39    4.50
  -1   3   4   69.99    5.40
  -1   3   4   72.59    4.60
   0  -3  -4  808.02   41.40
   0  -3  -4  845.12   41.20
   0   3   4  815.02   41.20
   0   3   4  840.62   41.50
  -1  -3  -4 1087.59   52.59
  -1  -3  -4 1049.70   52.59
   1   3   4 1047.50   52.59
   1   3   4 1033.10   52.49
  -2  -3  -4  424.16   22.20
  -2  -3  -4  443.86   22.60
   2   3   4  415.36   22.20
   2   3   4  417.86   22.50
  -3  -3  -4  174.28   10.60
   3   3   4  181.28   11.20
   3   3   4  177.68   10.70
   4   3   4   16.50    3.60
   4   3   4   12.60    3.60
   5   3   4   89.69   10.60
   5   3   4   72.09    6.60
   6   3   4   32.00    5.10
  -8   4   4   63.29    8.30
  -7   4   4   25.70    5.40
  -6   4   4    6.50    4.10
  -5   4   4    0.30    3.40
   4  -4  -4   65.79    6.20
  -4   4   4   82.19    7.10
   3  -4  -4   25.00    4.30
  -3   4   4   23.10    4.00
   2  -4  -4  357.56   18.70
  -2   4   4  346.57   18.70
   1  -4  -4    6.20    1.80
   1  -4  -4    6.00    2.50
  -1   4   4    7.90    2.70
  -1   4   4    4.70    1.60
   0  -4  -4 1286.07   61.49
   0  -4  -4 1202.08   61.69
   0   4   4 1245.68   61.39
   0   4   4 1228.88   61.69
  -1  -4  -4    9.70    2.90
  -1  -4  -4    8.60    2.60
   1   4   4   10.60    2.60
   1   4   4   13.80    3.40
  -2  -4  -4  843.22   43.20
   2   4   4  857.81   43.40
   2   4   4  859.21   43.50
   3   4   4    1.20    2.60
   3   4   4   -1.80    2.50
   4   4   4    7.80    3.40
   4   4   4    7.40    3.50
   5   4   4   -0.50    3.00
  -8   5   4    6.90    5.90
  -7   5   4   45.90    6.90
  -6   5   4   22.10    5.30
  -5   5   4   29.10    5.20
  -4   5   4   90.49    7.40
   3  -5  -4  106.99    7.50
  -3   5   4  100.59   10.00
   2  -5  -4  861.91   44.00
  -2   5   4  881.41   44.00
   1  -5  -4  252.37   14.40
   1  -5  -4  260.97   13.70
  -1   5   4  262.67   14.50
   0  -5  -4  255.57   13.50
   0  -5  -4  241.38   13.90
   0   5   4  244.48   13.40
   0   5   4  241.28   14.10
  -1  -5  -4  520.25   27.60
  -1  -5  -4  535.05   28.50
   1   5   4  536.85   27.90
   2   5   4   22.40    4.30
   2   5   4   20.60    3.90
   3   5   4   77.19    6.90
  -4  -5  -4   19.20    4.80
   4   5   4   25.70    4.70
  -5  -5  -4    2.40    3.90
   5   5   4   -2.60    3.10
  -8   6   4   23.20    6.50
  -7   6   4   64.49    8.10
  -6   6   4   41.90    6.40
  -5   6   4   50.79    6.70
  -4   6   4    6.40    3.70
  -3   6   4  161.48   10.40
  -2   6   4   39.70    4.90
   1  -6  -4  116.49    7.20
   1  -6  -4  108.89    6.90
  -1   6   4  112.99    8.00
   0  -6  -4   14.90    3.20
   0  -6  -4   10.80    2.80
   0   6   4   19.20    3.80
  -1  -6  -4   68.69    5.90
   1   6   4   65.09    6.40
  -2  -6  -4  118.39    8.80
   2   6   4  108.19    8.60
  -3  -6  -4    9.70    3.80
   3   6   4    8.40    3.60
  -4  -6  -4   26.00    5.80
   4   6   4   21.00    5.00
  -8   7   4   15.80   10.40
  -7   7   4   63.69    8.30
  -6   7   4   81.79    8.40
  -5   7   4   16.00    5.00
  -4   7   4   54.29    6.40
  -3   7   4   63.39    6.40
  -2   7   4   44.00    5.70
   1  -7  -4  121.89    7.90
   1  -7  -4  130.39    8.10
  -1   7   4  135.39    9.20
   0  -7  -4   10.80    3.00
   0   7   4   14.80    4.10
  -1  -7  -4   49.90    5.80
   1   7   4   49.99    6.30
  -2  -7  -4   15.70    4.10
   2   7   4   11.50    4.20
  -3  -7  -4   76.89    7.90
   3   7   4   72.79    7.50
  -4  -7  -4    4.50    4.50
  -8   8   4   13.90    6.60
  -7   8   4   34.50    7.00
  -6   8   4   69.99    8.30
  -5   8   4    6.00    4.70
  -4   8   4   18.30    4.70
  -3   8   4  121.59    9.20
  -2   8   4  168.08   11.20
   1  -8  -4  337.47   17.50
   1  -8  -4  319.47   17.50
  -1   8   4  317.17   18.50
   0  -8  -4  137.99    9.10
   0   8   4  128.79    9.90
  -1  -8  -4   89.09    7.50
   1   8   4   76.89    7.80
  -2  -8  -4   37.00    6.00
   2   8   4   43.30    6.60
  -3  -8  -4   44.00    7.00
   3   8   4   51.89    7.30
  -6   9   4   22.70    6.00
  -5   9   4    8.10    5.00
  -4   9   4  129.49   10.10
  -3   9   4   22.50    5.40
   2  -9  -4  186.68   11.60
   2  -9  -4  223.18   11.80
  -2   9   4  220.68   13.50
   1  -9  -4   88.49    7.00
   1  -9  -4   94.39    7.50
  -1   9   4  105.59    8.70
   0  -9  -4  277.57   15.50
   0   9   4  248.68   16.20
  -1  -9  -4    3.80    3.40
   1   9   4    2.60    3.90
   2   9   4   59.09    7.60
  -7  10   4    3.90    6.30
  -6  10   4   27.40    7.70
  -5  10   4   14.80    5.90
  -4  10   4    7.90    4.80
  -3  10   4   39.70    6.60
   2 -10  -4   68.29    6.20
   2 -10  -4   87.79    6.40
  -2  10   4   88.29    8.30
   1 -10  -4  207.68   12.70
  -1  10   4  215.18   15.10
   0 -10  -4   42.80    5.50
   0  10   4   37.70    6.40
  -1 -10  -4   55.59    6.90
   1  10   4   56.89    7.90
  -6  11   4   23.10    7.00
  -5  11   4    7.10    5.80
  -4  11   4   35.20    6.30
  -3  11   4   98.29   11.30
   2 -11  -4   15.30    4.80
  -2  11   4   22.40    5.70
   1 -11  -4   26.00    4.70
  -1  11   4   24.40    5.90
   0 -11  -4   24.30    4.90
   0  11   4   19.50    5.60
  -4  12   4    5.90    5.70
  -3  12   4   28.60    6.40
   0  14  -5   56.49    8.50
   0 -14   5   45.00    6.60
   1 -14   5    3.80    4.50
  -2  14  -5   24.50    6.40
   2 -14   5   18.60    5.10
  -3  14  -5    4.00    5.30
   3 -14   5    3.70    4.70
   2  13  -5    5.80    4.70
  -2 -13   5    1.40    4.00
   1  13  -5   75.99    8.70
  -1 -13   5   55.39    7.10
   0  13  -5    2.50    4.50
   0 -13   5    3.40    3.70
  -1  13  -5    0.80    4.30
   1 -13   5    1.40    3.70
  -2  13  -5    1.80    4.60
   2 -13   5    5.10    4.00
  -3  13  -5   16.70    5.50
   3 -13   5   13.10    4.70
  -4  13  -5   63.99    8.20
   4 -13   5   37.10    6.40
  -5  13  -5   14.20    6.10
   5 -13   5    6.40    5.00
   3  12  -5   20.90    5.70
  -3 -12   5   26.60    5.60
   2  12  -5    3.20    4.50
  -2 -12   5    3.00    3.80
   1  12  -5   12.40    4.70
  -1 -12   5    6.60    3.80
   0  12  -5    7.40    4.20
   0 -12   5    2.90    3.50
  -1  12  -5   28.70    6.00
   1 -12   5   25.80    4.80
  -2  12  -5   16.00    5.10
   2 -12   5   16.40    4.60
  -3  12  -5   11.50    4.80
   3 -12   5   11.50    4.30
  -4  12  -5    1.90    4.50
   4 -12   5    7.80    4.30
  -5  12  -5   39.70    7.40
   5 -12   5   26.10    5.80
   5 -12   5   24.30    6.50
   4  11  -5    2.60    4.50
  -4 -11   5    4.70    4.20
   3  11  -5   77.89    8.20
  -3 -11   5   62.49    7.40
   2  11  -5   50.39    7.30
  -2 -11   5   58.19    7.00
   1  11  -5    6.10    4.20
  -1 -11   5   11.80    4.10
   0  11  -5  251.87   15.30
   0 -11   5  239.18   14.50
  -1  11  -5   71.79    7.20
   1 -11   5   54.89    6.30
  -2  11  -5   21.30    4.60
   2 -11   5   14.30    4.00
  -3  11  -5   12.90    7.80
   3 -11   5   12.30    4.80
   3 -11   5   12.60    4.00
  -4  11  -5    3.80    3.90
   4 -11   5    6.00    3.90
   4 -11   5    3.80    4.50
   5 -11   5   53.39    7.00
   5 -11   5   80.79    7.70
   6 -11   5   -1.70    4.70
   4  10  -5  118.59   10.30
  -4 -10   5  111.79    9.50
   3  10  -5  158.88   11.30
  -3 -10   5  144.39   10.70
   2  10  -5   89.39    8.10
  -2 -10   5   80.09    7.40
   1  10  -5   47.40    6.40
  -1 -10   5   51.29    5.70
   0  10  -5   -0.40    3.20
   0 -10   5    0.90    2.90
  -1  10  -5    3.10    3.40
   1 -10   5    5.10    3.00
  -2  10  -5   26.20    4.50
   2 -10   5   18.80    4.50
   2 -10   5   19.50    3.90
  -3  10  -5   -3.10    2.90
   3 -10   5    0.20    3.00
   3 -10   5    1.00    3.80
   4 -10   5  144.19    9.60
   4 -10   5  156.38   10.30
   5 -10   5    1.50    4.10
   6 -10   5   80.99    8.50
   5   9  -5   -0.40    4.40
  -5  -9   5    4.00    4.00
   4   9  -5  140.49   10.70
  -4  -9   5  124.09    9.80
   3   9  -5   45.80    6.60
  -3  -9   5   51.99    6.20
   2   9  -5  404.16   21.90
  -2  -9   5  382.96   21.40
   1   9  -5   12.90    3.80
  -1  -9   5   11.50    3.50
   0   9  -5   42.20    5.40
   0  -9   5   37.80    4.70
   0  -9   5   39.40    5.50
  -1   9  -5  148.49    9.30
   1  -9   5  148.39   10.00
   1  -9   5  130.49    9.10
  -2   9  -5  147.89    9.40
   2  -9   5  162.68    9.60
   2  -9   5  142.49    9.50
  -3   9  -5   -1.20    2.60
   3  -9   5    0.60    2.90
   3  -9   5    0.30    3.00
   4  -9   5   19.00    4.00
   5  -9   5    6.50    3.80
   6  -9   5   45.40    6.40
   7  -9   5    0.70    5.20
   6   8  -5   59.69    8.80
  -6  -8   5   55.19    7.40
   5   8  -5   13.90    9.10
   4   8  -5    1.70    3.80
  -4  -8   5   -1.40    3.20
   3   8  -5  144.29   10.00
  -3  -8   5  125.19    9.20
   2   8  -5    3.00    3.20
  -2  -8   5    7.70    3.10
   1   8  -5  159.58    9.90
  -1  -8   5  141.89    9.40
  -1  -8   5  144.89    9.70
   0   8  -5   63.39    5.60
   0   8  -5   69.89    5.90
   0  -8   5   80.89    5.90
  -1   8  -5   86.69    6.50
  -1   8  -5  108.89    6.90
   1  -8   5   98.69    6.60
   1  -8   5   69.79    8.40
  -2   8  -5   92.39    6.20
  -2   8  -5   68.89    6.10
   2  -8   5  108.39    9.50
   2  -8   5   92.19    6.20
  -3   8  -5   59.79    6.30
   4  -8   5   79.69    6.90
   5  -8   5  208.38   13.00
   6  -8   5   14.10    4.90
   7  -8   5   11.20    5.40
   6   7  -5   14.40    5.60
  -6  -7   5   11.90    4.40
   5   7  -5   28.60    5.80
  -5  -7   5   22.10    4.60
   4   7  -5    4.10    3.80
  -4  -7   5   12.10    3.50
   3   7  -5   33.50    5.20
  -3  -7   5   38.80    4.80
   2   7  -5   46.80    5.40
  -2  -7   5   50.29    5.10
   1   7  -5    5.30    2.70
   1   7  -5    8.20    2.60
  -1  -7   5    7.50    2.80
   0   7  -5    1.10    2.10
   0   7  -5    1.50    2.10
   0  -7   5    3.70    2.40
   0  -7   5   -0.20    2.20
  -1   7  -5  210.78   11.70
  -1   7  -5  203.78   11.90
   1  -7   5  216.88   11.70
   1  -7   5  216.58   12.00
  -2   7  -5   35.10    4.20
  -2   7  -5   48.40    3.90
   2  -7   5   41.70    4.40
   2  -7   5   47.30    3.90
  -3   7  -5  147.29    9.00
   4  -7   5   63.69    6.20
   5  -7   5   62.19    6.70
   6  -7   5   57.69    7.20
   7  -7   5   15.70    5.40
   7   6  -5   20.80    6.70
  -7  -6   5   13.50    5.00
   6   6  -5   -1.60    5.80
  -6  -6   5    0.90    3.80
   5   6  -5   37.90    6.30
  -5  -6   5   39.10    5.10
   4   6  -5   -0.10    3.40
  -4  -6   5    1.00    2.90
   3   6  -5   80.59    7.30
  -3  -6   5  100.09    6.90
   2   6  -5  577.44   29.60
   2   6  -5  531.75   29.30
  -2  -6   5  598.84   29.70
  -2  -6   5  572.24   29.90
   1   6  -5  133.99    8.70
   1   6  -5  139.79    8.50
  -1  -6   5  132.09    8.30
  -1  -6   5  135.79    8.50
   0   6  -5    5.90    2.30
   0   6  -5    7.20    2.40
   0  -6   5    6.00    2.20
   0  -6   5    6.30    2.20
  -1   6  -5  229.68   12.40
  -1   6  -5  224.38   12.70
   1  -6   5  239.38   12.80
   1  -6   5  240.18   12.30
  -2   6  -5   93.29    7.60
   2  -6   5   78.99    5.90
  -3   6  -5  115.99    8.00
   3  -6   5  136.99    8.50
   4  -6   5   76.79    6.50
   5  -6   5   27.00    4.50
   6  -6   5   76.79    7.70
   7  -6   5   12.80    5.10
   7   5  -5    2.00    5.40
  -7  -5   5    5.30    4.60
   6   5  -5   47.30    7.20
  -6  -5   5   66.19    6.90
   5   5  -5  101.59    9.00
  -5  -5   5  111.09    8.20
   4   5  -5   67.59    6.90
  -4  -5   5   72.39    6.10
   3   5  -5   15.60    3.30
   3   5  -5   19.10    4.50
  -3  -5   5   13.30    3.30
   2   5  -5  269.77   15.20
  -2  -5   5  278.07   15.00
  -2  -5   5  280.67   15.30
   1   5  -5    1.60    2.00
   1   5  -5    1.10    2.20
  -1  -5   5    2.20    2.00
  -1  -5   5    2.60    2.00
   0   5  -5   27.10    3.40
   0   5  -5   26.30    3.30
   0  -5   5   22.70    3.00
   0  -5   5   28.90    3.50
  -1   5  -5    3.10    1.60
  -1   5  -5    0.90    1.90
   1  -5   5    3.80    1.40
   1  -5   5    2.00    2.00
  -2   5  -5  278.97   14.80
   2  -5   5  268.67   14.80
  -3   5  -5   17.00    3.00
   3  -5   5   17.10    3.50
   4  -5   5   63.49    5.90
   5  -5   5   98.79    7.80
   6  -5   5   34.60    5.30
  -7  -4   5    8.20    4.40
   6   4  -5   10.30    4.80
  -6  -4   5   13.00    4.00
   5   4  -5   56.59    7.10
  -5  -4   5   70.39    6.20
   4   4  -5  478.95   26.80
   4   4  -5  533.95   27.30
  -4  -4   5  520.55   26.70
   3   4  -5  271.17   15.20
  -3  -4   5  264.77   15.20
  -3  -4   5  275.97   14.70
   2   4  -5   82.29    6.10
   2   4  -5   78.09    5.60
  -2  -4   5   89.09    5.90
  -2  -4   5   77.49    6.00
   1   4  -5  165.78    9.50
   1   4  -5  166.18    9.70
  -1  -4   5  179.98    9.60
  -1  -4   5  167.58    9.60
   0   4  -5  203.28   10.90
   0   4  -5  198.48   10.70
   0  -4   5  192.88   10.70
   0  -4   5  210.28   11.10
  -1   4  -5  343.47   17.70
   1  -4   5  334.97   17.70
  -2   4  -5  929.61   47.30
   2  -4   5  968.00   47.40
  -3   4  -5  126.99    8.10
   3  -4   5  133.49    8.40
   4  -4   5   54.99    5.40
   5  -4   5    4.70    3.40
   6  -4   5  140.59   10.40
   7  -4   5    1.50    4.40
  -8  -3   5   14.70    8.70
  -8  -3   5    0.30    5.60
   7   3  -5   29.30    6.60
  -7  -3   5   25.10    5.10
   6   3  -5    2.90    4.40
  -6  -3   5    5.60    3.50
   5   3  -5   48.40    6.30
  -5  -3   5   45.40    5.10
   4   3  -5   -2.40    2.70
   4   3  -5    3.20    3.10
  -4  -3   5    0.40    2.80
  -4  -3   5    2.30    2.30
   3   3  -5  163.48   10.20
   3   3  -5  181.98   10.80
  -3  -3   5  195.18   10.30
   2   3  -5  163.88   10.00
   2   3  -5  174.88    9.60
  -2  -3   5  178.68    9.60
  -2  -3   5  167.18   10.00
   1   3  -5   75.79    5.00
   1   3  -5   68.19    5.00
  -1  -3   5   67.89    4.80
  -1  -3   5   70.09    5.00
   0   3  -5    4.50    1.80
   0  -3   5    4.90    1.70
   0  -3   5    5.70    2.00
  -1   3  -5  238.58   12.70
   1  -3   5  235.48   12.80
  -2   3  -5  288.57   15.30
   2  -3   5  287.17   15.50
  -3   3  -5  355.86   17.80
   3  -3   5  301.07   18.30
   4  -3   5   56.29    5.70
   5  -3   5   12.40    3.50
   6  -3   5   89.09    8.30
   7  -3   5   42.70    6.20
  -8  -2   5    5.30    7.10
  -8  -2   5   10.40    4.70
  -7  -2   5   35.00    7.80
  -7  -2   5   31.30    4.90
  -6  -2   5    0.70    4.70
  -6  -2   5   10.30    3.30
   5   2  -5  117.69    8.50
  -5  -2   5   81.19    7.00
  -5  -2   5  104.29    7.10
   4   2  -5    5.20    3.70
   4   2  -5    0.70    2.40
  -4  -2   5    1.60    2.20
  -4  -2   5    1.90    2.70
   3   2  -5  173.18    9.60
   3   2  -5  167.78   10.20
  -3  -2   5  185.18    9.50
  -3  -2   5  140.69   10.00
   2   2  -5  224.28   12.20
  -2  -2   5  228.28   12.70
  -2  -2   5  231.88   12.10
   1   2  -5  460.75   23.60
  -1  -2   5  451.05   23.90
  -1  -2   5  482.55   23.70
  -1  -2   5  480.55   23.90
   0   2  -5 1549.74   75.59
   0  -2   5 1454.65   75.29
   0  -2   5 1556.04   75.59
   0  -2   5 1593.04   75.29
  -1   2  -5  437.56   22.00
   1  -2   5  421.76   22.00
  -2   2  -5   75.09    5.40
   2  -2   5   75.19    5.50
  -3   2  -5   68.09    5.60
   3  -2   5   69.79    6.60
   4  -2   5   14.80    3.30
   5  -2   5    8.60    3.60
   6  -2   5   80.49    7.90
   7  -2   5   12.10    4.90
  -8  -1   5    5.40   11.00
  -8  -1   5    9.90    4.70
  -7  -1   5   16.20    6.40
  -7  -1   5   20.40    4.20
  -6  -1   5   37.60    5.00
  -6  -1   5   56.39    7.60
  -6  -1   5   45.40    5.20
  -5  -1   5   58.69    5.60
  -5  -1   5   72.39    7.20
  -5  -1   5   75.89    5.50
   4   1  -5    2.10    2.10
  -4  -1   5    2.80    1.90
  -4  -1   5    2.60    2.80
  -4  -1   5    2.30    3.20
   3   1  -5   47.30    4.00
  -3  -1   5   49.90    5.20
   2   1  -5  709.23   35.60
  -2  -1   5  695.33   36.10
  -2  -1   5  752.12   36.10
  -2  -1   5  710.83   35.50
   1   1  -5  109.09    6.20
  -1  -1   5  111.09    6.20
  -1  -1   5   94.09    6.50
   0   1  -5 1114.19   53.69
   0  -1   5 1044.80   53.49
   0  -1   5 1107.99   53.79
  -1   1  -5 1996.40   98.29
   1  -1   5 2011.30   98.39
   2  -1   5  242.88   13.40
   3  -1   5   76.99    6.20
   4  -1   5   -1.00    2.40
   5  -1   5   40.10    5.50
  -8   0   5    2.60    6.60
  -8   0   5    4.40    4.20
  -7   0   5   34.30    4.70
  -7   0   5   42.70    6.80
  -6   0   5    8.10    2.70
  -6   0   5    4.60    3.30
  -6   0   5    8.10    4.20
  -5   0   5   13.40    2.80
  -5   0   5   15.60    2.90
  -5   0   5   21.10    4.50
   4   0  -5  417.76   21.60
  -4   0   5  447.96   21.50
  -4   0   5  410.56   22.40
  -4   0   5  405.66   22.40
   3   0  -5  102.29    5.90
  -3   0   5   93.99    7.00
  -3   0   5  106.49    5.90
  -3   0   5   90.19    7.00
   2   0  -5  775.62   37.80
   2   0  -5  773.92   38.50
  -2   0   5  765.52   37.70
  -2   0   5  741.43   38.30
   1   0  -5   22.40    2.60
   1   0  -5   27.20    3.40
  -1   0   5   24.50    2.70
  -1   0   5   30.20    3.30
   0   0  -5 2079.89   99.99
   0   0  -5 2016.50   99.89
   0   0   5 2035.70   99.89
   0   0   5 2037.60   99.99
  -1   0  -5   79.79    5.10
  -1   0  -5   81.29    5.60
   1   0   5   89.59    5.20
   1   0   5   85.89    5.80
  -2   0  -5  301.97   15.50
  -2   0  -5  307.47   16.30
   2   0   5  301.87   15.50
   2   0   5  293.37   16.30
  -3   0  -5    2.50    1.80
   3   0   5    1.40    1.60
   3   0   5    1.20    2.50
  -4   0  -5  187.68   10.50
   4   0   5  185.38   10.40
   4   0   5  194.48   11.90
  -5   0  -5   15.40    3.00
   5   0   5   21.40    4.50
   5   0   5   23.60    3.40
  -6   0  -5    5.70    2.80
   6   0   5   16.30    3.50
   6   0   5   18.90    4.80
  -8   1   5   30.70    7.00
  -8   1   5   17.70    4.70
  -7   1   5   13.90    3.60
  -7   1   5    5.50    3.40
  -7   1   5   19.20    5.60
  -6   1   5   32.80    5.70
  -6   1   5   27.50    3.80
  -5   1   5  157.08   10.20
  -5   1   5  158.88    8.80
  -5   1   5  148.19    8.70
  -4   1   5  343.07   19.40
  -4   1   5  379.56   19.50
   3  -1  -5   22.40    3.70
  -3   1   5   27.40    3.90
   2  -1  -5  397.96   20.90
   2  -1  -5  431.46   20.40
  -2   1   5  397.86   20.80
  -2   1   5  376.66   20.00
   1  -1  -5  637.44   30.30
   1  -1  -5  596.04   30.60
  -1   1   5  605.74   30.60
  -1   1   5  591.34   30.20
   0  -1  -5  126.59    7.40
   0  -1  -5  120.89    7.50
   0   1   5  128.49    7.60
   0   1   5  139.19    7.60
  -1  -1  -5  275.17   14.50
  -1  -1  -5  271.47   14.70
   1   1   5  282.57   14.50
   1   1   5  271.37   14.80
  -2  -1  -5   74.49    5.30
  -2  -1  -5   78.89    5.90
   2   1   5   81.49    5.30
   2   1   5   78.89    6.20
  -3  -1  -5  138.99    8.30
   3   1   5  138.09    9.30
   3   1   5  143.29    8.40
  -4  -1  -5  100.89    6.70
   4   1   5   99.79    6.80
   4   1   5  112.49    8.30
  -5  -1  -5    7.10    3.00
   5   1   5    9.90    3.00
   5   1   5   15.90    4.50
   6   1   5  177.48   11.60
   6   1   5  136.59    9.70
  -8   2   5   10.10    5.90
  -8   2   5   -0.20    3.90
  -8   2   5    4.80    5.50
  -7   2   5   74.69    6.20
  -7   2   5   68.49    5.90
  -6   2   5   19.50    5.00
  -5   2   5   38.20    5.50
   4  -2  -5   19.90    4.00
  -4   2   5   21.90    4.10
   3  -2  -5   56.29    5.30
  -3   2   5   56.39    5.20
   2  -2  -5  138.39    8.60
  -2   2   5  139.29    8.60
   1  -2  -5   89.19    5.20
   1  -2  -5   86.19    5.90
  -1   2   5   88.49    5.90
  -1   2   5   78.39    5.20
   0  -2  -5   28.50    3.20
   0  -2  -5   32.80    3.50
   0   2   5   30.40    3.30
   0   2   5   33.30    3.70
  -1  -2  -5   60.89    4.70
  -1  -2  -5   62.29    5.10
   1   2   5   66.59    4.90
   1   2   5   59.89    5.10
  -2  -2  -5    4.60    2.30
   2   2   5    1.80    2.00
   2   2   5    5.60    2.80
  -3  -2  -5   51.59    4.80
   3   2   5   54.29    4.80
   3   2   5   55.69    5.80
  -4  -2  -5    0.60    2.30
   4   2   5    1.90    2.50
   4   2   5    3.80    3.30
   5   2   5   71.39    6.10
  -8   3   5   52.19    7.90
  -7   3   5   74.49    8.30
  -6   3   5   90.89    8.20
  -5   3   5    4.60    3.70
   4  -3  -5   12.00    3.60
   3  -3  -5  520.75   27.10
  -3   3   5  524.85   27.10
   2  -3  -5  289.07   15.70
   1  -3  -5  134.59    7.60
   1  -3  -5  132.79    8.30
  -1   3   5  135.99    7.70
  -1   3   5  134.09    8.30
   0  -3  -5   10.80    2.80
   0  -3  -5    9.80    2.40
   0   3   5   14.00    3.00
   0   3   5    9.40    2.40
  -1  -3  -5  339.97   18.10
  -1  -3  -5  346.67   18.20
   1   3   5  339.27   18.20
   1   3   5  333.37   18.10
  -2  -3  -5   22.10    4.00
   2   3   5   21.80    3.70
   2   3   5   20.90    3.80
  -3  -3  -5   17.00    3.70
   3   3   5   19.90    4.30
   4   3   5   84.09    6.80
   4   3   5   87.19    7.50
   5   3   5   48.20    6.30
   5   3   5   41.80    5.40
  -8   4   5    7.90    5.90
  -7   4   5   49.50    6.90
  -6   4   5   19.20    5.30
  -5   4   5   17.60    4.80
  -4   4   5   71.69    6.60
   3  -4  -5  124.29    8.40
  -3   4   5  123.49   11.00
   2  -4  -5  848.72   42.80
  -2   4   5  846.72   42.80
   1  -4  -5  265.57   14.90
   1  -4  -5  270.27   14.20
  -1   4   5  271.87   15.00
  -1   4   5  274.27   14.20
   0  -4  -5  244.98   13.40
   0  -4  -5  253.37   13.80
   0   4   5  238.28   13.40
   0   4   5  245.78   13.80
  -1  -4  -5  504.25   27.20
  -1  -4  -5  527.15   27.30
   1   4   5  537.35   27.40
   1   4   5  530.15   28.00
   2   4   5   12.80    3.60
   2   4   5   13.70    3.40
   3   4   5   60.89    6.20
   3   4   5   63.29    6.00
   4   4   5   18.70    4.20
   4   4   5   21.00    4.50
   5   4   5    2.30    3.40
   5   4   5   -3.20    3.00
  -8   5   5   33.50    7.70
  -7   5   5    7.30    5.50
  -6   5   5  154.18   11.10
  -5   5   5   15.90    4.70
  -4   5   5   48.70    6.00
  -3   5   5   10.40    3.40
  -2   5   5  625.44   32.30
   1  -5  -5    4.00    3.30
   1  -5  -5    1.10    1.90
  -1   5   5    0.90    1.80
  -1   5   5    8.30    3.30
   0  -5  -5  324.57   17.20
   0   5   5  303.77   16.60
   0   5   5  299.87   17.10
   1   5   5   -0.10    2.30
   1   5   5    0.20    2.90
   2   5   5   35.80    5.00
   2   5   5   39.20    5.60
   3   5   5    5.90    3.20
   3   5   5    5.60    3.30
   4   5   5   62.89    6.60
  -7   6   5   20.30    5.80
  -6   6   5  112.29    9.70
  -5   6   5   60.29    7.20
  -4   6   5  290.47   16.80
  -3   6   5  113.89    8.60
  -2   6   5  113.99    8.30
   1  -6  -5  274.67   15.60
   1  -6  -5  305.67   15.90
  -1   6   5  292.07   16.50
   0  -6  -5    4.10    2.50
   0   6   5    9.90    3.50
   1   6   5  168.18   11.20
   2   6   5  111.79    8.80
  -3  -6  -5   19.70    4.90
   3   6   5   18.20    4.50
  -4  -6  -5   43.70    7.40
   4   6   5   43.00    6.50
  -8   7   5    8.90    7.20
  -7   7   5   78.59    9.40
  -6   7   5   24.20    5.90
  -5   7   5   54.39    7.10
  -4   7   5   24.40    5.00
  -3   7   5  124.49    9.30
  -2   7   5   67.99    7.00
   1  -7  -5    5.10    2.60
  -1   7   5   10.00    3.70
   0  -7  -5  112.59    8.00
   0   7   5  103.29    8.60
  -1  -7  -5    9.00    3.60
   1   7   5   10.60    3.80
  -2  -7  -5   -0.20    3.20
   2   7   5    3.30    3.70
  -3  -7  -5   64.49    7.90
   3   7   5   54.49    7.00
  -6   8   5   24.80    6.20
  -5   8   5   27.50    6.00
  -4   8   5   31.30    5.60
  -3   8   5  212.88   13.50
  -2   8   5    3.10    3.70
   1  -8  -5  120.29    8.50
   1  -8  -5  139.39    8.70
  -1   8   5  137.49   10.00
   0  -8  -5  124.89    8.80
   0   8   5  112.89    9.50
  -1  -8  -5   67.39    7.30
   1   8   5   67.19    7.60
  -2  -8  -5   -0.30    3.70
  -7   9   5    6.60    6.10
  -5   9   5   68.69    8.30
  -4   9   5   -0.60    4.50
  -3   9   5   26.90    5.60
   2  -9  -5  136.09    8.40
  -2   9   5  125.99   10.10
   1  -9  -5   68.09    6.10
  -1   9   5   62.39    7.60
   0  -9  -5    5.40    3.60
   0   9   5   11.80    5.30
  -1  -9  -5  122.49    9.70
   1   9   5  109.59    9.90
  -6  10   5   80.49    9.70
  -5  10   5   17.70    5.90
  -4  10   5   53.49    8.60
  -3  10   5   39.70   10.60
   2 -10  -5   48.60    5.30
  -2  10   5   44.80    7.30
   1 -10  -5    3.00    3.10
  -1  10   5   -4.40    4.10
   0 -10  -5   75.59    7.40
   0  10   5   60.29    8.20
  -5  11   5   41.80    7.60
  -4  11   5   28.50    6.40
  -3  11   5   60.59    8.30
   2 -11  -5    1.70    3.40
  -2  11   5    1.10    4.70
   0  14  -6   12.50    5.40
   0 -14   6    5.80    4.70
  -1  14  -6   19.30    5.90
   1 -14   6   15.00    7.70
  -2  14  -6   -2.60    4.80
   2 -14   6    1.30    4.40
  -3  14  -6   16.20    6.10
   3 -14   6   11.60    5.00
   2  13  -6   76.29    9.00
  -2 -13   6   65.59    8.00
   1  13  -6   20.10    6.00
  -1 -13   6   22.60    5.30
   0  13  -6   42.50    6.90
   0 -13   6   41.30    6.30
  -1  13  -6    2.60    4.40
   1 -13   6    5.00    4.20
  -2  13  -6   47.50    7.30
   2 -13   6   57.39    6.90
  -3  13  -6    7.60    5.20
   3 -13   6    2.80    4.30
  -4  13  -6   82.89    8.40
   4 -13   6   60.59    7.90
   3  12  -6   43.00    7.40
  -3 -12   6   33.90    6.00
   2  12  -6   -1.00    4.20
  -2 -12   6    0.10    3.70
   1  12  -6   66.99    7.90
  -1 -12   6   60.99    6.90
   0  12  -6   14.90    4.80
   0 -12   6   14.10    4.40
  -1  12  -6   53.89    7.00
   1 -12   6   52.19    6.50
  -2  12  -6  116.49    9.30
   2 -12   6  103.79    8.70
  -3  12  -6   27.00    5.30
   3 -12   6   20.70    4.90
  -4  12  -6    3.70    8.90
   4 -12   6    2.60    4.30
   4 -12   6    5.40    5.30
   5 -12   6   77.99    8.70
   4  11  -6    4.20    4.80
  -4 -11   6    6.80    4.30
   3  11  -6   33.40    6.50
  -3 -11   6   27.50    5.40
   2  11  -6   11.40    4.50
  -2 -11   6   15.10    4.30
   1  11  -6   49.30    6.90
  -1 -11   6   49.40    6.30
   0  11  -6   10.60    4.50
   0 -11   6   15.30    4.10
  -1  11  -6  200.88   12.60
   1 -11   6  193.68   12.40
  -2  11  -6    4.30    3.90
   2 -11   6    2.30    4.80
   2 -11   6    3.70    3.30
  -3  11  -6   33.40    5.10
   3 -11   6   32.90    5.20
   3 -11   6   33.60    5.90
  -4  11  -6   42.10    5.20
   4 -11   6   32.30    5.40
   4 -11   6   26.00    5.10
   5 -11   6   24.80    5.80
   6 -11   6    7.30    5.80
   4  10  -6   52.39   14.50
  -4 -10   6   49.70    6.60
   3  10  -6   42.00    6.70
  -3 -10   6   45.90    6.20
   2  10  -6   55.19    6.90
  -2 -10   6   50.39    6.30
   1  10  -6    0.00    3.10
  -1 -10   6    0.30    3.10
   0  10  -6   38.40    5.60
   0 -10   6   32.30    4.90
   1 -10   6   27.00    4.40
   1 -10   6   22.00    4.80
  -2  10  -6    6.50    3.30
   2 -10   6    2.80    3.20
  -3  10  -6  156.78    8.90
   3 -10   6  115.09    8.90
   3 -10   6  124.69    9.30
   4 -10   6   20.60    4.80
   5 -10   6   32.90    5.90
   6 -10   6   21.20    6.00
   5   9  -6   14.30    5.50
  -5  -9   6   10.40    4.50
   4   9  -6   51.09    7.30
  -4  -9   6   45.20    6.10
   3   9  -6   24.30    5.10
  -3  -9   6   27.10    4.80
   2   9  -6   15.70    4.30
  -2  -9   6   16.10    4.00
   1   9  -6   11.40    3.70
  -1  -9   6   15.70    3.80
   0  -9   6    3.60    3.10
   0  -9   6    1.60    2.80
  -1   9  -6   50.69    5.20
   1  -9   6   40.40    5.00
   1  -9   6   47.20    5.90
  -2   9  -6  571.14   28.60
   2  -9   6  583.94   28.60
   2  -9   6  513.25   28.90
   3  -9   6    9.30    3.50
   4  -9   6  187.48   12.00
   5  -9   6   30.00    5.20
   6  -9   6   24.00    5.60
   6   8  -6   18.00    6.00
  -6  -8   6   16.10    5.10
   5   8  -6   10.70    8.90
   4   8  -6   68.49    7.80
  -4  -8   6   69.39    7.00
   3   8  -6   25.20    5.00
  -3  -8   6   34.20    4.90
   2   8  -6   73.59    6.70
  -2  -8   6   62.99    6.10
   1   8  -6   43.40    6.00
  -1  -8   6   35.20    5.00
  -1  -8   6   38.00    4.70
   0   8  -6  174.58   10.50
   0  -8   6  179.48   11.20
   0  -8   6  168.48   10.50
  -1   8  -6    6.90    2.80
   1  -8   6    6.70    2.60
   1  -8   6    6.70    2.80
  -2   8  -6   77.99    5.60
   2  -8   6   78.79    6.30
   2  -8   6   76.49    5.70
   3  -8   6   12.50    3.40
   4  -8   6   46.80    5.90
   5  -8   6    2.70    3.80
   6  -8   6   39.20    6.00
   6   7  -6   -2.00    5.30
  -6  -7   6   -1.50    3.90
   5   7  -6   12.10    5.00
  -5  -7   6   15.30    4.30
   4   7  -6    5.20    3.80
  -4  -7   6    9.80    3.40
   3   7  -6  162.58   10.70
  -3  -7   6  150.48   10.10
   2   7  -6    3.00    2.80
  -2  -7   6    0.90    2.50
   1   7  -6  128.19    8.40
  -1  -7   6  138.19    8.80
  -1  -7   6  120.39    8.30
   0   7  -6  140.99    9.30
   0   7  -6  167.68    9.40
   0  -7   6  158.38    9.30
  -1   7  -6  530.05   26.60
  -1   7  -6  493.95   26.90
   1  -7   6  545.25   26.60
  -2   7  -6  242.98   15.50
   2  -7   6  297.87   15.20
   3  -7   6   84.29    6.80
   4  -7   6    1.10    3.40
   5  -7   6    5.80    3.70
   6  -7   6    7.10    4.60
   7   6  -6   34.70    7.80
  -7  -6   6   33.50    6.10
  -6  -6   6    9.50    4.20
   5   6  -6    1.80    4.30
  -5  -6   6    3.60    3.80
   4   6  -6    9.00    4.10
  -4  -6   6   14.90    3.80
   3   6  -6   75.59    6.50
  -3  -6   6   66.79    6.00
   2   6  -6   58.69    5.50
   2   6  -6   65.99    5.90
  -2  -6   6   59.49    5.60
  -2  -6   6   81.29    5.80
   1   6  -6  307.77   16.40
   1   6  -6  280.07   16.30
  -1  -6   6  320.27   16.50
  -1  -6   6  305.07   16.40
   0   6  -6   45.50    4.10
   0   6  -6   39.90    4.20
   0  -6   6   41.20    4.20
   0  -6   6   40.60    3.90
  -1   6  -6  301.67   15.50
  -1   6  -6  286.67   16.00
   1  -6   6  292.67   16.10
   1  -6   6  314.57   15.50
  -2   6  -6   36.00    4.00
   3  -6   6   69.89    6.10
   4  -6   6   12.90    3.70
   5  -6   6    2.90    3.80
   6  -6   6    5.10    4.10
   7  -6   6   24.50    5.90
   7   5  -6   29.50    7.10
  -7  -5   6   33.60    8.50
   6   5  -6   53.39    8.00
  -6  -5   6   78.49    7.30
   5   5  -6   67.99    7.80
  -5  -5   6   69.89    6.80
   4   5  -6   67.29    7.00
  -4  -5   6   65.29    6.00
   3   5  -6  132.09    8.90
   3   5  -6  144.59    9.50
  -3  -5   6  141.49    9.90
   2   5  -6   66.19    5.80
   2   5  -6   68.09    5.40
  -2  -5   6   67.99    5.30
   1   5  -6  249.97   14.20
   1   5  -6  248.48   13.80
  -1  -5   6  252.77   13.70
  -1  -5   6  256.57   13.80
   0   5  -6    8.00    2.30
   0   5  -6   10.10    2.40
   0  -5   6   11.50    2.60
   0  -5   6    7.40    2.10
  -1   5  -6  130.49    8.30
   1  -5   6  127.39    8.00
  -2   5  -6  590.14   31.10
   2  -5   6  629.94   31.40
   3  -5   6   45.30    5.10
   4  -5   6   -1.20    2.90
   5  -5   6   29.30    4.90
   6  -5   6    1.30    3.90
   7  -5   6   13.20    5.50
   7   4  -6   -0.20    6.40
  -7  -4   6    3.80    4.30
   6   4  -6   81.19    9.00
  -6  -4   6   91.89    7.80
   5   4  -6    6.80    4.20
  -5  -4   6    5.70    3.40
   4   4  -6   47.60    5.80
   4   4  -6   38.30    5.20
  -4  -4   6   49.60    5.10
   3   4  -6   17.10    3.80
   3   4  -6   22.70    3.50
  -3  -4   6   17.00    3.60
  -3  -4   6   22.20    3.40
   2   4  -6  313.57   17.30
   2   4  -6  323.57   17.60
  -2  -4   6  333.17   17.60
  -2  -4   6  341.07   17.40
   1   4  -6    0.80    2.00
   1   4  -6   -1.10    2.00
  -1  -4   6    0.90    2.10
  -1  -4   6   -1.60    1.70
   0   4  -6  261.17   14.30
   0   4  -6  273.27   14.10
   0  -4   6  261.57   14.30
   0  -4   6  278.17   14.00
  -1   4  -6  392.56   20.00
   1  -4   6  369.16   19.90
  -2   4  -6  514.55   26.10
   2  -4   6  498.25   26.10
   3  -4   6   74.49    6.20
   4  -4   6   65.49    6.20
   5  -4   6   25.50    4.80
   6  -4   6   85.69    8.20
  -8  -3   6   12.50    8.40
  -8  -3   6   16.10    6.70
  -7  -3   6   18.90    7.70
  -7  -3   6   21.10    4.90
   6   3  -6   60.09    8.00
  -6  -3   6   76.79    6.80
   5   3  -6   66.19    7.50
  -5  -3   6   75.59    6.30
   4   3  -6   50.29    5.50
   4   3  -6   67.69    6.40
  -4  -3   6   68.19    5.40
   3   3  -6    3.10    2.40
   3   3  -6    4.40    2.90
  -3  -3   6    8.50    2.40
  -3  -3   6    3.70    2.80
   2   3  -6  557.44   27.60
   2   3  -6  511.55   27.20
  -2  -3   6  519.05   27.50
  -2  -3   6  554.34   27.20
   1   3  -6   73.39    5.10
  -1  -3   6   79.39    5.40
  -1  -3   6   70.59    5.50
  -1  -3   6   74.69    5.30
   0   3  -6 1271.87   63.29
   0  -3   6 1291.37   63.29
   0  -3   6 1317.47   62.99
   0  -3   6 1243.08   62.89
  -1   3  -6   59.19    4.70
   1  -3   6   69.39    5.20
  -2   3  -6  196.08   10.90
   2  -3   6  185.18   11.00
   3  -3   6  240.98   13.80
   4  -3   6  264.97   15.40
   5  -3   6    2.30    3.40
  -8  -2   6    7.80    4.80
  -8  -2   6    7.50    7.20
  -7  -2   6   24.80    4.80
  -7  -2   6   30.80    7.60
  -6  -2   6   35.10    7.00
  -6  -2   6   53.09    5.60
  -5  -2   6    6.30    4.50
  -5  -2   6   11.90    3.00
   4   2  -6   12.60    3.20
  -4  -2   6   18.10    4.60
  -4  -2   6   19.90    4.50
  -4  -2   6   20.60    3.40
   3   2  -6   31.40    3.80
  -3  -2   6   26.10    4.60
  -3  -2   6   41.50    3.70
   2   2  -6   57.39    4.50
  -2  -2   6   66.69    4.70
  -2  -2   6   59.89    5.30
  -2  -2   6   60.29    5.30
   1   2  -6  889.71   45.70
  -1  -2   6  973.00   46.00
  -1  -2   6  913.11   45.90
  -1  -2   6  913.71   45.80
   0   2  -6   36.20    3.50
   0  -2   6   38.30    3.40
   0  -2   6   41.80    3.70
   0  -2   6   38.40    3.40
  -1   2  -6  109.79    6.90
   1  -2   6  111.89    7.10
  -2   2  -6   42.50    4.20
   2  -2   6   42.20    4.60
   3  -2   6  116.89    8.10
   4  -2   6   88.29    7.20
   5  -2   6   40.40    5.60
   6  -2   6   38.50    6.00
  -8  -1   6   12.80    4.50
  -8  -1   6    7.00    6.70
  -7  -1   6   62.49    6.30
  -7  -1   6   51.89    8.30
  -6  -1   6    8.90    4.80
  -6  -1   6   11.50    3.70
  -5  -1   6    6.60    2.60
  -5  -1   6    3.20    3.80
   4   1  -6   95.49    6.10
  -4  -1   6   71.69    6.90
   3   1  -6   98.49    6.20
  -3  -1   6   93.39    7.20
  -3  -1   6   98.29    7.10
  -3  -1   6   99.69    6.10
   2   1  -6  318.07   16.20
  -2  -1   6  294.87   16.60
  -2  -1   6  325.27   16.20
  -2  -1   6  307.37   16.70
   1   1  -6  398.26   20.50
   1   1  -6  394.66   20.20
  -1  -1   6  399.16   20.20
  -1  -1   6  387.86   20.30
   0   1  -6   13.30    2.30
   0   1  -6   15.00    2.40
   0  -1   6   15.80    2.40
   0  -1   6   17.10    2.70
  -1   1  -6  134.59    7.90
   1  -1   6  134.39    8.10
   1  -1   6  126.49    7.30
  -2   1  -6   61.19    5.20
   3  -1   6   12.60    3.30
   4  -1   6  277.97   16.10
   5  -1   6   36.60    5.80
   6  -1   6    3.10    3.70
  -8   0   6   25.20    5.00
  -8   0   6   27.40    9.30
  -7   0   6   44.50    7.00
  -7   0   6   46.20    5.90
  -6   0   6   71.89    7.60
  -6   0   6   67.89    5.60
  -6   0   6   52.99    6.50
  -5   0   6   78.69    5.60
  -5   0   6   76.79    7.30
   4   0  -6  158.48    8.60
  -4   0   6  146.79    8.30
  -4   0   6  134.49    9.50
   3   0  -6  467.25   23.40
  -3   0   6  469.55   24.20
  -3   0   6  478.15   23.30
  -3   0   6  431.56   24.60
   2   0  -6  291.77   15.90
   2   0  -6  296.17   15.20
  -2   0   6  291.97   15.80
  -2   0   6  292.17   15.10
   1   0  -6  492.15   24.50
   1   0  -6  473.05   24.70
  -1   0   6  489.85   24.50
  -1   0   6  480.85   24.70
   0   0  -6   23.10    3.00
   0   0  -6   25.00    3.00
   0   0   6   28.30    3.30
   0   0   6   24.70    3.10
  -1   0  -6  565.04   29.10
   1   0   6  596.74   29.20
   1   0   6  584.34   29.70
  -2   0  -6   38.00    3.50
   2   0   6   40.80    3.40
   2   0   6   36.70    4.60
  -3   0  -6   37.40    3.60
   3   0   6   36.60    3.50
   3   0   6   46.80    5.40
  -4   0  -6   34.20    3.90
   4   0   6   51.29    5.80
   4   0   6   33.20    3.70
   5   0   6   22.00    4.80
   6   0   6    5.30    4.30
  -8   1   6   17.00    4.70
  -7   1   6    5.40    3.50
  -7   1   6   11.30    3.60
  -7   1   6   18.00    5.80
  -6   1   6  204.18   12.10
  -6   1   6  218.68   12.10
  -6   1   6  235.78   13.90
  -5   1   6   64.89    6.70
  -4   1   6   84.19    6.70
  -3   1   6   75.49    6.20
   2  -1  -6  497.75   24.60
   2  -1  -6  489.35   25.50
  -2   1   6  496.75   25.40
  -2   1   6  482.75   24.60
   1  -1  -6   23.60    3.30
   1  -1  -6   23.80    2.80
  -1   1   6   32.80    4.00
  -1   1   6   26.30    3.10
   0  -1  -6   68.09    5.10
   0  -1  -6   73.39    5.20
   0   1   6   78.69    5.30
   0   1   6   71.49    5.30
  -1  -1  -6   65.19    4.90
  -1  -1  -6   68.09    5.30
   1   1   6   70.09    5.60
   1   1   6   74.29    5.10
  -2  -1  -6  572.24   29.10
   2   1   6  572.64   29.10
   2   1   6  576.04   29.80
  -3  -1  -6    0.10    2.00
   3   1   6    0.40    1.90
   3   1   6   -1.80    3.00
  -4  -1  -6  129.59    8.50
   4   1   6  140.29    9.90
   4   1   6  138.89    8.30
  -5  -1  -6   27.40    4.10
   5   1   6   31.20    5.60
   5   1   6   29.60    3.90
  -7   2   6   40.80    6.80
  -6   2   6  129.79   10.00
  -5   2   6   63.69    6.80
  -4   2   6  140.79    9.40
   3  -2  -6   64.49    5.90
  -3   2   6   72.49    6.10
   2  -2  -6   65.29    4.40
   2  -2  -6   70.19    5.80
  -2   2   6   68.89    5.70
  -2   2   6   67.29    4.50
   1  -2  -6   47.30    4.50
   1  -2  -6   45.20    3.60
  -1   2   6   52.19    4.50
  -1   2   6   42.20    3.70
   0  -2  -6   37.00    3.70
   0  -2  -6   33.10    4.00
   0   2   6   38.90    4.10
   0   2   6   34.70    3.80
  -1  -2  -6   38.60    4.30
  -1  -2  -6   38.50    4.10
   1   2   6   39.70    4.20
   1   2   6   43.70    4.50
  -2  -2  -6  114.79    7.60
   2   2   6  121.99    8.30
   2   2   6  120.99    7.80
  -3  -2  -6   76.99    6.40
   3   2   6   80.79    6.10
   3   2   6   75.79    7.00
  -4  -2  -6  126.29    8.70
   4   2   6  135.49    9.90
   5   2   6   58.19    5.60
   5   2   6   68.29    7.40
  -7   3   6   16.90    5.90
  -6   3   6    6.00    4.90
  -5   3   6   56.79    6.60
  -4   3   6   57.29    6.20
   3  -3  -6  227.38   13.20
   2  -3  -6   18.20    3.40
  -2   3   6   23.20    3.80
   1  -3  -6   24.20    3.00
   1  -3  -6   21.40    4.10
  -1   3   6   25.30    3.00
  -1   3   6   24.40    3.80
   0  -3  -6    6.90    2.30
   0   3   6    9.90    3.10
   0   3   6    9.90    2.70
  -1  -3  -6  336.67   18.00
  -1  -3  -6  327.47   18.80
   1   3   6  338.77   18.00
   1   3   6  326.97   18.10
  -2  -3  -6   10.30    3.10
   2   3   6   14.50    3.40
   2   3   6   17.20    3.80
   3   3   6   49.99    6.20
   3   3   6   51.49    5.30
   4   3   6    1.40    2.70
   5   3   6   67.69    6.40
   5   3   6   62.79    7.30
  -8   4   6   11.70    8.20
  -7   4   6   38.60    6.90
  -6   4   6   66.49    7.70
  -5   4   6   61.69    7.10
  -4   4   6   13.60    4.10
  -3   4   6  179.38   11.10
   2  -4  -6   26.40    4.70
  -2   4   6   33.60    4.80
   1  -4  -6  115.59    8.20
   1  -4  -6  119.89    7.30
  -1   4   6  123.99    7.30
   0  -4  -6   25.50    4.20
   0  -4  -6   29.80    3.80
   0   4   6   27.40    4.60
   0   4   6   26.00    3.60
   1   4   6   57.79    5.90
   1   4   6   62.69    5.80
   2   4   6   99.69    7.70
   2   4   6  104.99    7.90
   3   4   6    5.80    3.30
   3   4   6   10.40    3.60
   4   4   6   22.80    4.50
   4   4   6   17.50    4.30
  -8   5   6   11.40    6.70
  -7   5   6   33.80    6.70
  -6   5   6   79.79    8.50
  -5   5   6   72.89    7.70
  -4   5   6  265.87   15.70
  -3   5   6  134.29    9.40
  -2   5   6  114.59    8.30
   1  -5  -6  310.87   16.50
  -1   5   6  310.67   16.40
  -1   5   6  307.17   17.40
   0  -5  -6    2.20    2.50
   0   5   6    3.10    3.10
   1   5   6  177.68   11.30
   1   5   6  167.48   10.70
   2   5   6  102.79    8.00
   2   5   6  106.49    8.30
   3   5   6   17.60    4.20
   3   5   6   17.10    4.20
   4   5   6   34.20    5.70
  -8   6   6    9.80    6.90
  -7   6   6   24.10    6.60
  -6   6   6   70.19    8.50
  -5   6   6    8.50    4.80
  -4   6   6   33.30    5.70
  -3   6   6   10.90    3.90
  -2   6   6   44.20    5.90
  -1   6   6    5.00    3.40
   0   6   6    7.50    3.70
   1   6   6    2.10    3.40
   1   6   6    4.00    2.70
   2   6   6  478.25   26.20
  -3  -6  -6    0.40    3.60
   3   6   6    5.10    3.90
  -7   7   6   26.00    8.40
  -6   7   6  161.98   12.20
  -5   7   6   29.90    6.10
  -4   7   6   19.80    5.20
  -3   7   6   86.89    8.00
  -2   7   6   17.70    4.90
   1  -7  -6   10.80    3.10
   1  -7  -6   12.00    3.10
  -1   7   6   11.30    4.10
   0  -7  -6   30.20    4.70
   0   7   6   32.40    5.70
  -1  -7  -6   28.30    5.50
   1   7   6   37.40    6.00
  -2  -7  -6  104.49    9.40
   2   7   6   82.49    8.40
  -7   8   6   21.90    6.90
  -5   8   6   50.49    7.60
  -4   8   6   17.30    5.10
  -3   8   6   24.90    5.60
  -2   8   6   83.69    8.10
   1  -8  -6    5.10    3.00
  -1   8   6    6.10    4.20
   0  -8  -6   52.99    6.40
   0   8   6   56.59    7.50
  -1  -8  -6   33.10    5.90
  -6   9   6   33.00    7.20
  -5   9   6  101.99    9.80
  -3   9   6   29.80    7.00
   2  -9  -6   -0.50    3.20
  -2   9   6    8.50    5.50
   1  -9  -6   23.80    4.30
  -1   9   6   32.40    9.60
   0  -9  -6   28.30    5.10
   0   9   6   27.50    5.90
  -5  10   6   12.90    5.70
  -4  10   6   55.19    8.20
  -3  10   6    8.40    5.00
  -2  10   6   64.79    8.10
   1 -10  -6    8.70    3.80
  -1  10   6    5.70    4.80
   0  14  -7    3.60    5.10
   0 -14   7   -0.90    4.10
  -1  14  -7   69.19    9.00
   1 -14   7   61.09    7.90
  -2  14  -7    1.70    4.70
   2 -14   7   -0.90    4.70
   2  13  -7   11.70    5.50
  -2 -13   7    6.50    4.40
   1  13  -7   36.40    7.90
  -1 -13   7   35.10    6.00
   0  13  -7    0.10    4.40
   0 -13   7    2.60    7.50
  -1  13  -7   89.59    8.90
   1 -13   7   67.19    7.80
  -2  13  -7   70.99    7.90
   2 -13   7   59.89    7.40
  -3  13  -7    7.60    4.80
   3 -13   7    2.90    4.20
  -4  13  -7   22.30    5.80
   4 -13   7   18.00    5.80
   4 -13   7   14.40    7.60
   3  12  -7    2.80    5.00
  -3 -12   7   -0.10    4.00
   2  12  -7   75.49   13.50
  -2 -12   7   59.59    7.30
   1  12  -7   34.90    6.20
  -1 -12   7   36.30    6.30
   0  12  -7  395.56   20.80
   0 -12   7  320.77   20.00
  -1  12  -7   10.40    4.60
   1 -12   7   12.20    4.40
  -2  12  -7  219.38   13.00
   2 -12   7  181.08   12.70
   3 -12   7   -0.80    3.80
   3 -12   7   -0.10    5.10
   4 -12   7    1.40    4.30
   5 -12   7   -0.30    5.20
   4  11  -7    3.00    5.00
  -4 -11   7   -1.50    3.90
   3  11  -7   20.60    5.90
  -3 -11   7   11.70    4.40
   2  11  -7    2.90    4.10
  -2 -11   7   -0.50    3.30
   1  11  -7  101.49    8.80
  -1 -11   7   96.89    8.20
   0  11  -7   56.49    6.80
   0 -11   7   57.09    6.40
  -1  11  -7  254.67   14.80
   1 -11   7  236.48   14.70
  -2  11  -7    7.60    4.40
   2 -11   7    8.20    4.50
   2 -11   7    8.00    4.00
  -3  11  -7  156.28    9.50
   3 -11   7  120.49    9.70
   3 -11   7  148.19   10.20
   4 -11   7   32.90    6.10
   5 -11   7    9.80    5.20
   4  10  -7    4.50    4.50
  -4 -10   7   -1.40    3.60
   3  10  -7  160.48   11.50
  -3 -10   7  146.99   10.80
   2  10  -7   36.10    6.00
  -2 -10   7   30.40    5.10
   1  10  -7   50.69    6.50
  -1 -10   7   65.39    7.00
   0  10  -7   15.90    4.30
   0 -10   7   10.70    3.70
  -1  10  -7   49.70    5.90
   1 -10   7   54.69    6.20
   1 -10   7   47.00    5.70
  -2  10  -7   97.19    7.00
   2 -10   7   93.09    7.50
   2 -10   7   79.89    7.20
   3 -10   7    0.30    3.40
   4 -10   7   12.70    4.30
   5 -10   7   -0.50    4.40
   6 -10   7    2.50    8.80
   5   9  -7    1.50    4.90
  -5  -9   7    3.50    4.00
   4   9  -7   45.80    7.20
  -4  -9   7   45.10    6.30
   3   9  -7   54.49    7.00
  -3  -9   7   56.09    6.50
   2   9  -7   10.90    3.90
  -2  -9   7    6.80    3.30
   1   9  -7   40.30    5.80
  -1  -9   7   38.30    5.30
   0   9  -7   -1.20    3.00
   0  -9   7   -2.30    2.90
   0  -9   7   -0.80    2.80
  -1   9  -7  220.08   12.20
   1  -9   7  199.48   12.50
   1  -9   7  207.28   12.20
  -2   9  -7   34.20    4.40
   2  -9   7   34.10    4.30
   2  -9   7   35.20    5.10
   3  -9   7   54.89    6.00
   4  -9   7   36.40    5.50
   5  -9   7   45.90    6.60
   6   8  -7   19.10    6.40
  -6  -8   7   15.30    5.10
   5   8  -7    4.40    5.30
   4   8  -7   -0.90    3.90
  -4  -8   7    2.60    3.40
   3   8  -7   58.79    6.80
  -3  -8   7   59.49    6.30
   2   8  -7  102.39    8.20
  -2  -8   7   99.09    7.50
   1   8  -7   95.29    7.70
  -1  -8   7   90.89    7.10
  -1  -8   7   87.79    7.00
   0   8  -7  478.35   25.10
   0  -8   7  468.15   25.30
   0  -8   7  497.85   25.20
  -1   8  -7  133.49    8.70
   1  -8   7  151.18    9.40
   1  -8   7  149.29    8.80
   2  -8   7  543.75   28.40
   3  -8   7   15.70    3.90
   4  -8   7    4.40    3.90
   5  -8   7    4.00    4.00
   6   7  -7   27.50    6.80
  -6  -7   7   27.00    5.70
   5   7  -7    1.80    4.80
  -5  -7   7    6.20    3.80
   4   7  -7    0.40    3.90
  -4  -7   7    1.50    3.10
   3   7  -7    2.90    3.60
  -3  -7   7    5.60    3.10
   2   7  -7  714.13   35.90
  -2  -7   7  679.23   35.70
   1   7  -7   38.40    4.80
  -1  -7   7   38.40    4.60
  -1  -7   7   38.40    4.80
   0   7  -7  136.89    8.30
   0  -7   7  132.19    8.20
   0  -7   7  128.79    8.50
  -1   7  -7   29.70    3.50
   1  -7   7   29.30    3.40
   1  -7   7   34.00    4.20
   2  -7   7  653.33   33.60
   3  -7   7    0.50    2.90
   4  -7   7    1.20    3.50
   5  -7   7    3.40    3.70
   7   6  -7   11.30    6.70
  -7  -6   7   17.60    5.20
   6   6  -7   -2.20    9.30
  -6  -6   7   -0.80    4.00
   5   6  -7    0.00    4.40
  -5  -6   7    2.40    3.40
   4   6  -7    4.30    4.10
  -4  -6   7   -0.10    2.80
   3   6  -7   85.09    7.40
  -3  -6   7   87.49    6.90
   2   6  -7  330.67   18.40
  -2  -6   7  308.57   17.40
  -2  -6   7  324.87   17.80
   1   6  -7  478.75   27.60
   1   6  -7  554.44   27.70
  -1  -6   7  575.84   28.10
  -1  -6   7  538.25   27.60
   0   6  -7  152.18    9.70
   0   6  -7  169.18    9.60
   0  -6   7  175.48    9.50
   0  -6   7  166.18   10.80
  -1   6  -7  101.29    8.10
   1  -6   7  117.09    7.50
   2  -6   7    2.10    2.80
   3  -6   7  151.08    9.90
   4  -6   7    3.20    3.30
   5  -6   7   15.00    4.40
   6  -6   7   -1.70    4.80
   7   5  -7   20.40    7.30
  -7  -5   7   51.79   11.60
   6   5  -7   43.30    7.10
  -6  -5   7   31.00    5.30
   5   5  -7   54.79    7.30
  -5  -5   7   57.59    6.30
   4   5  -7   78.69    7.60
  -4  -5   7   89.59    7.00
   3   5  -7  202.78   12.20
  -3  -5   7  195.38   11.60
   2   5  -7   48.10    5.20
   2   5  -7   47.40    4.70
  -2  -5   7   66.09    5.80
  -2  -5   7   38.50    5.50
   1   5  -7  190.98   11.50
   1   5  -7  206.08   11.50
  -1  -5   7  206.98   11.60
  -1  -5   7  213.18   11.50
   0   5  -7    2.60    2.30
   0   5  -7    3.50    2.20
   0  -5   7    1.30    2.00
   0  -5   7    1.60    1.60
  -1   5  -7    8.50    2.50
   1  -5   7    9.70    5.50
   2  -5   7   46.50    4.90
   3  -5   7   48.30    5.90
   4  -5   7    2.70    3.30
   5  -5   7   27.10    5.10
   6  -5   7    4.60    4.60
  -7  -4   7    6.70    4.30
  -7  -4   7    3.20    7.00
   6   4  -7  170.68   12.50
  -6  -4   7  160.18   11.00
   5   4  -7   15.90    4.80
  -5  -4   7   20.70    3.80
   4   4  -7    5.20    3.60
  -4  -4   7    4.40    2.90
   3   4  -7  147.09    9.30
  -3  -4   7  138.99    9.70
  -3  -4   7  162.68    9.20
   2   4  -7    4.50    2.60
   2   4  -7    7.50    3.10
  -2  -4   7    4.30    2.50
  -2  -4   7   10.70    2.70
   1   4  -7  116.09    9.60
  -1  -4   7  118.89    7.40
  -1  -4   7  117.09    7.30
   0   4  -7  110.69    7.00
   0  -4   7  107.99    6.60
   0  -4   7  100.59    7.00
   0  -4   7  111.29    6.50
  -1   4  -7   55.69    5.00
   1  -4   7   77.69    5.80
   2  -4   7    3.40    2.50
   3  -4   7  122.79    8.50
   4  -4   7    5.90    3.50
   5  -4   7   37.30    5.60
   6  -4   7    4.30    4.20
  -7  -3   7    4.00    4.10
  -6  -3   7   77.69    9.50
  -6  -3   7   73.99    7.10
  -5  -3   7   16.90    5.20
  -5  -3   7   15.00    3.60
   4   3  -7   22.10    3.90
  -4  -3   7   22.40    3.70
  -4  -3   7   15.60    4.80
   3   3  -7   50.99    4.90
  -3  -3   7   55.59    5.80
  -3  -3   7   52.09    5.70
  -3  -3   7   62.39    4.90
   2   3  -7  238.28   13.70
  -2  -3   7  254.17   14.20
  -2  -3   7  266.57   13.90
  -2  -3   7  259.47   14.40
   1   3  -7  688.03   35.90
  -1  -3   7  743.43   36.00
  -1  -3   7  690.03   35.90
  -1  -3   7  732.53   35.90
   0   3  -7   18.70    3.60
   0  -3   7   19.90    2.70
   0  -3   7   20.80    3.20
   0  -3   7   21.40    2.80
  -1   3  -7  337.57   17.70
   1  -3   7  326.27   17.70
   2  -3   7  179.68   10.80
   3  -3   7    5.60    3.10
   4  -3   7  178.18   11.60
   5  -3   7    7.80    3.90
   6  -3   7   36.40    6.40
  -8  -2   7   21.10    5.40
  -8  -2   7   16.80    8.00
  -7  -2   7   11.50    6.70
  -7  -2   7   10.50    4.10
  -6  -2   7   72.69    9.10
  -6  -2   7   79.29    6.80
   5   2  -7   11.20    3.70
  -5  -2   7   12.40    4.90
   4   2  -7   26.50    4.10
  -4  -2   7   30.10    5.40
  -4  -2   7   38.20    4.10
   3   2  -7    2.10    2.10
  -3  -2   7    1.00    3.00
  -3  -2   7    4.80    3.00
  -3  -2   7    6.30    2.20
   2   2  -7  753.02   39.10
  -2  -2   7  785.02   39.60
  -2  -2   7  804.92   39.60
  -2  -2   7  786.92   39.20
   1   2  -7  531.85   27.50
  -1  -2   7  551.74   27.60
  -1  -2   7  544.55   27.50
  -1  -2   7  538.35   27.50
   0   2  -7  624.24   32.20
   0  -2   7  657.33   31.90
   0  -2   7  646.94   32.30
   0  -2   7  618.94   31.80
  -1   2  -7   58.29    4.90
   1  -2   7   63.79    5.30
   2  -2   7  474.65   25.00
   3  -2   7   66.89    6.20
   4  -2   7   46.10    5.80
   5  -2   7    3.90    3.60
   6  -2   7    9.90    4.70
  -8  -1   7    3.00    6.80
  -8  -1   7    6.10    4.50
  -7  -1   7    0.30    5.30
  -7  -1   7    7.70    4.00
  -6  -1   7   38.40    6.60
  -6  -1   7   31.10    4.80
   5   1  -7   85.09    6.90
  -5  -1   7   96.59    8.30
  -5  -1   7   93.19    6.60
   4   1  -7   81.59    6.00
  -4  -1   7   81.39    5.70
  -4  -1   7   77.39    7.10
   3   1  -7   69.89    5.40
  -3  -1   7   81.69    5.30
  -3  -1   7   69.19    6.40
  -3  -1   7   90.79    6.60
   2   1  -7   55.89    4.40
  -2  -1   7   56.09    4.40
  -2  -1   7   55.69    5.20
  -2  -1   7   61.19    5.20
   1   1  -7  305.47   16.20
   1   1  -7  294.27   15.80
  -1  -1   7  304.57   15.80
  -1  -1   7  297.77   15.90
   0   1  -7    0.60    1.90
   0   1  -7    1.70    1.80
   0  -1   7    0.90    1.90
   0  -1   7    1.70    2.20
  -1   1  -7   95.39    6.40
  -1   1  -7   86.29    5.80
   1  -1   7   99.09    6.80
   1  -1   7   95.89    5.90
   2  -1   7   42.80    5.10
   3  -1   7  181.68   11.50
   4  -1   7   14.20    4.20
   5  -1   7   66.09    8.10
  -8   0   7    8.40    6.80
  -8   0   7    7.10    4.40
  -7   0   7    8.50    4.10
  -7   0   7   19.60    6.30
  -7   0   7   22.50    4.50
  -6   0   7   14.60    5.10
  -6   0   7   23.80    3.70
  -6   0   7   13.80    3.60
  -5   0   7  199.48   11.30
  -5   0   7  207.08   12.90
   4   0  -7  108.19    6.70
  -4   0   7   95.89    7.90
  -4   0   7  102.39    6.50
   3   0  -7  347.17   17.70
  -3   0   7  326.17   18.50
  -3   0   7  352.16   18.70
  -3   0   7  344.07   17.60
   2   0  -7   33.50    3.30
  -2   0   7   33.60    4.40
  -2   0   7   28.80    3.20
   1   0  -7   17.30    3.10
   1   0  -7   17.00    2.60
  -1   0   7   16.60    2.70
  -1   0   7   21.20    3.30
   0   0  -7   29.00    3.60
   0   0  -7   37.20    4.10
   0   0   7   37.00    4.00
   0   0   7   30.80    3.70
  -1   0  -7   28.40    3.50
  -1   0  -7   34.20    4.20
   1   0   7   38.30    3.60
  -2   0  -7  338.07   18.00
   2   0   7  352.36   19.10
   2   0   7  354.56   18.10
   3   0   7   43.40    5.70
   4   0   7    5.00    3.90
   5   0   7   35.10    5.90
  -8   1   7   -1.00    4.00
  -8   1   7    3.10    6.30
  -7   1   7    6.50    4.10
  -7   1   7   13.80    5.90
  -7   1   7   13.40    3.90
  -6   1   7   65.59    7.90
  -5   1   7  106.79    8.60
  -4   1   7  163.28   10.70
   3  -1  -7  269.77   16.10
  -3   1   7  311.37   16.40
  -3   1   7  281.97   14.80
   2  -1  -7    1.70    1.80
  -2   1   7    1.50    1.80
  -2   1   7    1.50    2.50
   1  -1  -7  148.89    8.40
   1  -1  -7  142.69    9.00
  -1   1   7  146.39    8.60
  -1   1   7  143.09    8.80
   0  -1  -7   59.99    5.30
   0   1   7   81.89    5.60
   0   1   7   73.49    5.40
  -1  -1  -7  103.09    7.10
  -1  -1  -7  123.09    8.70
   1   1   7  117.09    7.30
   1   1   7  108.79    7.70
  -2  -1  -7   21.20    3.40
   2   1   7   22.80    3.50
   2   1   7   26.90    4.40
  -3  -1  -7    2.20    2.60
   3   1   7    0.10    2.30
   3   1   7    8.80    3.60
   4   1   7  106.99    8.80
   4   1   7  100.89    6.80
  -5  -1  -7   71.29    6.50
   5   1   7   97.89    8.60
   5   1   7   76.39    6.60
  -8   2   7   26.40    7.40
  -7   2   7    5.70    5.60
  -6   2   7   21.40    5.50
  -5   2   7   19.40    4.70
  -4   2   7  136.79    9.50
   3  -2  -7   68.39    6.50
  -3   2   7   71.99    6.70
   2  -2  -7    8.80    3.00
  -2   2   7   10.30    3.30
  -2   2   7   12.60    2.10
   1  -2  -7   54.09    4.40
  -1   2   7   54.79    4.50
  -1   2   7   58.99    5.20
   0  -2  -7  613.34   30.30
   0  -2  -7  548.95   30.70
   0   2   7  603.04   30.40
   0   2   7  601.74   30.30
  -1  -2  -7   92.99    7.30
   1   2   7  107.39    7.30
   1   2   7  100.39    7.10
  -2  -2  -7  245.78   14.70
   2   2   7  256.97   14.30
   2   2   7  260.67   14.90
  -3  -2  -7    9.40    3.10
   3   2   7   11.00    3.90
   3   2   7   10.60    3.10
   4   2   7  132.39    8.80
   4   2   7  140.19   10.60
  -8   3   7    6.80    6.50
  -7   3   7   16.50    6.20
  -6   3   7   31.80    6.30
  -5   3   7   34.20    5.60
  -4   3   7   25.60    5.20
  -3   3   7   13.00    3.80
   2  -3  -7   60.19    4.50
   2  -3  -7   64.39    6.50
  -2   3   7   61.69    4.60
  -2   3   7   70.49    6.10
   1  -3  -7   69.49    5.10
   1  -3  -7   61.99    5.90
  -1   3   7   70.99    5.20
   0  -3  -7   90.39    7.30
   0  -3  -7  101.49    7.00
   0   3   7  105.29    8.10
   0   3   7  108.49    7.20
  -1  -3  -7  144.99    9.50
   1   3   7  157.88    9.90
   2   3   7  582.04   30.70
   2   3   7  586.44   30.40
   3   3   7  114.39    8.10
   3   3   7  106.99    8.90
   4   3   7    6.70    3.80
   4   3   7    6.20    3.20
  -8   4   7    6.20    6.10
  -7   4   7   24.60    6.20
  -6   4   7  103.19    9.40
  -5   4   7   15.90    5.30
  -4   4   7   34.80    5.60
  -3   4   7   45.40    5.90
   2  -4  -7   31.50    3.50
  -2   4   7   38.80    5.10
  -2   4   7   30.80    3.50
   1  -4  -7  124.79    7.50
  -1   4   7  121.69    7.50
  -1   4   7  103.99    8.30
   0  -4  -7    7.10    3.20
   0   4   7    7.30    3.20
   0   4   7   11.20    2.90
   1   4   7   42.90    5.70
   1   4   7   39.90    5.20
   2   4   7    2.50    3.10
   2   4   7    1.30    2.90
   3   4   7   99.49   12.10
   3   4   7   76.69    7.00
  -8   5   7   11.50    6.90
  -7   5   7   97.49   14.60
  -6   5   7   18.80    5.70
  -5   5   7   55.89    7.40
  -4   5   7   20.30    5.10
  -3   5   7  143.89   10.10
   2  -5  -7   38.80    3.90
  -2   5   7   37.40    3.70
  -2   5   7   45.40    5.80
   1  -5  -7    4.00    2.60
  -1   5   7    8.60    3.90
  -1   5   7    6.80    2.40
   0   5   7  108.99    8.30
   0   5   7  101.29    7.40
   1   5   7   12.20    4.20
   1   5   7   10.10    3.30
   2   5   7    0.00    3.00
   2   5   7   -0.30    3.00
   3   5   7   54.49    6.50
   3   5   7   57.69    6.60
  -7   6   7   44.40    8.10
  -6   6   7  117.19   10.80
  -5   6   7   43.50    6.70
  -4   6   7   12.00    4.80
  -3   6   7  117.69    9.30
  -2   6   7   19.90    4.80
   1  -6  -7    9.90    3.10
  -1   6   7    9.90    4.20
   0   6   7   31.60    5.40
   0   6   7   33.30    4.40
   1   6   7   42.90    6.60
   1   6   7   45.60    5.50
   2   6   7   79.59    7.90
   2   6   7   86.29    7.60
  -7   7   7   11.10    6.40
  -5   7   7   17.60    5.50
  -4   7   7   18.40    5.40
  -3   7   7    0.20    4.10
   2  -7  -7   97.49    7.00
  -2   7   7  101.59    8.80
   1  -7  -7    1.60    2.70
  -1   7   7    0.10    3.70
   0  -7  -7   71.59    6.70
   0   7   7   57.79    7.40
  -1  -7  -7    0.40    3.50
   1   7   7    2.30    3.90
  -7   8   7    9.30    6.40
  -6   8   7   12.30    6.00
  -5   8   7   24.10    6.60
  -4   8   7   18.10    7.10
  -3   8   7    8.70    5.20
   2  -8  -7  103.39    7.30
  -2   8   7  103.59    9.30
   1  -8  -7  158.48   10.30
  -1   8   7  141.89   11.30
   0  -8  -7   32.00    5.30
  -6   9   7   23.90    7.00
  -5   9   7    4.30    5.40
  -4   9   7    7.10    5.20
  -3   9   7    8.50    5.40
  -2   9   7   23.50    5.70
   1  -9  -7  137.29    9.70
  -1   9   7  134.29   11.00
  -4  10   7    6.30    5.80
  -3  10   7   33.00    7.00
  -1 -13   8   57.79    7.50
   0  13  -8    0.70    4.40
   0 -13   8   -0.90    4.20
  -1  13  -8   34.20    6.10
   1 -13   8   33.80    7.50
  -2  13  -8    8.30    4.50
  -3  13  -8   -1.30    4.00
   3 -13   8    8.20    7.40
   3  12  -8   46.00    7.90
  -3 -12   8   34.50    6.00
  -2 -12   8   24.30    5.30
   1  12  -8   30.20    6.10
  -1 -12   8   20.80    6.00
   0  12  -8  230.28   14.30
   0 -12   8  211.18   14.10
  -1  12  -8  171.68   11.30
   1 -12   8  150.18   11.20
  -2  12  -8   16.20    4.60
   2 -12   8   10.50    4.40
  -3  12  -8    9.80    3.80
   3 -12   8    4.00    4.30
   4 -12   8   54.49   12.90
  -4 -11   8   30.00    5.60
   3  11  -8   -0.80    4.30
  -3 -11   8   -1.90    3.60
   2  11  -8  280.07   16.60
  -2 -11   8  242.18   17.80
   1  11  -8    5.60    4.00
  -1 -11   8   10.00    4.10
   0  11  -8  149.99   10.70
   0 -11   8  147.99   10.60
  -1  11  -8    8.20    3.90
   1 -11   8    4.90    3.60
  -2  11  -8  103.09    7.40
   2 -11   8   78.19    8.70
   2 -11   8   83.79    7.90
   3 -11   8    3.10    3.90
   4 -11   8    0.50    4.20
   5 -11   8    3.00    5.20
   4  10  -8   -1.40    4.40
  -4 -10   8    0.40    3.70
   3  10  -8   52.79    7.40
  -3 -10   8   40.70    6.30
   2  10  -8  260.37   15.40
  -2 -10   8  229.88   14.80
   1  10  -8  135.89    9.30
  -1 -10   8  109.39    9.00
   0  10  -8    9.80    3.70
   0 -10   8    6.50    3.80
  -1  10  -8  233.98   13.10
   1 -10   8  209.98   13.10
   1 -10   8  220.38   13.50
  -2  10  -8  181.48   10.50
   2 -10   8  171.18   10.90
   2 -10   8  179.18   11.60
   3 -10   8   76.39    7.30
   4 -10   8   -4.40    3.70
   5   9  -8   30.10    7.00
  -5  -9   8   27.90    5.50
   4   9  -8   21.30    6.40
  -4  -9   8   25.40    6.30
   3   9  -8   79.59    7.70
  -3  -9   8   60.99    6.80
   2   9  -8   12.50    4.30
  -2  -9   8   10.10    3.80
   1   9  -8   21.00    4.40
  -1  -9   8   15.80    4.10
   0   9  -8  104.29    7.70
   0  -9   8  100.69    7.60
   0  -9   8   98.69    7.80
  -1   9  -8   37.20    4.80
   1  -9   8   45.60    5.30
   1  -9   8   47.60    5.20
   2  -9   8   31.90    4.90
   3  -9   8    8.20    4.10
   4  -9   8    7.90    4.10
   5  -9   8   48.00    7.30
  -6  -8   8   31.00    6.00
   5   8  -8   10.00    5.50
  -5  -8   8    3.60    6.70
   4   8  -8   10.10    4.90
  -4  -8   8   14.70    4.20
   3   8  -8   83.49    7.90
  -3  -8   8   75.79    7.00
   2   8  -8    1.70    3.30
  -2  -8   8    4.10    3.30
   1   8  -8  250.97   13.90
  -1  -8   8  218.18   13.20
  -1  -8   8  208.18   13.20
   0   8  -8  196.78   11.30
   0  -8   8  184.68   11.80
   0  -8   8  197.38   11.30
  -1   8  -8  207.48   11.60
   1  -8   8  210.48   11.50
   1  -8   8  201.98   12.40
   2  -8   8    0.70    2.90
   3  -8   8   75.19    7.10
   4  -8   8    6.10    3.90
   5  -8   8    1.70    4.60
   6   7  -8    3.70    5.60
  -6  -7   8    3.00    4.50
   5   7  -8    1.10    4.60
  -5  -7   8    2.40    3.80
   4   7  -8   11.80    4.90
  -4  -7   8    9.70    3.90
   3   7  -8   24.10    5.00
  -3  -7   8   20.20    4.10
   2   7  -8  615.34   30.90
  -2  -7   8  564.74   30.70
   1   7  -8  167.78   10.00
  -1  -7   8  153.38   10.00
  -1  -7   8  154.38    9.80
   0   7  -8  466.85   24.20
   0  -7   8  447.76   24.70
   0  -7   8  489.75   24.20
   1  -7   8   77.19    6.40
   2  -7   8   92.79    7.40
   3  -7   8   48.00    5.90
   4  -7   8    0.90    3.40
   5  -7   8    4.70    4.10
   6  -7   8    8.60    5.00
   6   6  -8   70.59    9.60
  -6  -6   8   91.89    8.40
   5   6  -8    2.40    4.60
  -5  -6   8    0.20    3.70
   4   6  -8   58.89    7.00
  -4  -6   8   57.09    6.20
   3   6  -8   14.20    4.20
  -3  -6   8   11.10    3.50
  -2  -6   8   58.49    5.90
  -2  -6   8   67.79    5.80
   1   6  -8    7.20    3.00
  -1  -6   8    5.50    2.50
  -1  -6   8    8.70    3.10
   0   6  -8  167.98    9.70
   0  -6   8  158.88   10.00
   0  -6   8  170.58    9.50
   1  -6   8   34.00    4.50
   2  -6   8   57.89    5.80
   3  -6   8   33.80    5.20
   4  -6   8   65.69    7.00
   5  -6   8   10.30    4.60
   6  -6   8    5.40    4.70
  -7  -5   8    6.10    8.40
  -7  -5   8    0.60    7.40
   6   5  -8   31.30    7.40
  -6  -5   8   58.89    6.90
   5   5  -8  205.38   14.50
  -5  -5   8  237.58   13.70
   4   5  -8  113.29    9.30
  -4  -5   8  118.89    8.40
   3   5  -8  100.49    8.20
  -3  -5   8  109.99    7.60
   2   5  -8   92.59    7.10
  -2  -5   8   88.89    6.90
  -2  -5   8   93.59    6.80
   1   5  -8   69.39    6.30
  -1  -5   8  104.29    6.70
  -1  -5   8   87.79    6.10
   0  -5   8   72.59    5.80
   0  -5   8   70.19    4.90
   0  -5   8   71.89    5.40
   1  -5   8  130.89    8.60
   2  -5   8   -0.50    2.60
   3  -5   8  136.39    9.60
   4  -5   8    1.00    3.30
   5  -5   8    9.20    5.40
   6  -5   8   45.10    7.00
  -7  -4   8   21.00    5.40
  -7  -4   8   15.50    8.50
  -6  -4   8   31.40    5.10
  -6  -4   8   35.40    7.90
  -5  -4   8  269.97   15.00
  -5  -4   8  237.98   16.50
  -4  -4   8    4.10    3.00
  -4  -4   8    0.10    3.90
   3   4  -8   11.80    3.40
  -3  -4   8   11.40    4.20
  -3  -4   8   16.40    3.90
   2   4  -8    8.20    2.70
  -2  -4   8    8.30    3.30
  -2  -4   8   10.40    2.80
   1   4  -8    2.20    2.50
  -1  -4   8    2.70    2.20
  -1  -4   8    4.50    2.60
  -1  -4   8    4.20    2.40
   0   4  -8   45.10    4.60
   0  -4   8   49.70    4.10
   0  -4   8   63.39    5.70
   0  -4   8   55.99    4.50
   1  -4   8   33.70    4.50
   2  -4   8   47.00    5.90
   3  -4   8  125.59    9.10
   4  -4   8    9.10    3.70
   5  -4   8   13.90    8.00
  -7  -3   8   39.90    5.80
  -7  -3   8   18.50    8.20
  -6  -3   8    0.90    5.90
  -6  -3   8    7.80    4.00
  -5  -3   8  134.19   11.10
  -5  -3   8  137.99    9.20
   4   3  -8   10.90    3.50
  -4  -3   8   22.50    5.50
  -4  -3   8   13.10    4.80
   3   3  -8   93.19    6.90
  -3  -3   8   95.39   10.90
  -3  -3   8  104.99    6.80
  -3  -3   8   97.39    7.70
   2   3  -8  209.68   12.70
  -2  -3   8  232.28   12.50
  -2  -3   8  207.68   13.30
  -2  -3   8  235.38   13.00
   1   3  -8  297.07   16.60
  -1  -3   8  312.77   16.60
  -1  -3   8  308.47   16.70
  -1  -3   8  327.57   16.70
   0   3  -8  240.98   14.00
   0  -3   8  266.67   13.70
   0  -3   8  256.67   13.60
   0  -3   8  260.97   15.00
   1  -3   8   38.80    4.70
   2  -3   8    9.80    3.30
   3  -3   8   89.79    7.50
   4  -3   8   12.30    4.30
   5  -3   8   43.10    6.30
  -8  -2   8    2.70    7.10
  -8  -2   8    9.50    5.00
  -7  -2   8   27.20    5.30
  -6  -2   8   30.90    4.90
  -6  -2   8   13.60    5.90
   5   2  -8   30.60    4.90
  -5  -2   8   26.80    5.60
   4   2  -8   28.20    5.00
  -4  -2   8   26.10    5.10
  -4  -2   8   33.70    4.10
   3   2  -8  141.99    8.80
  -3  -2   8  156.78    8.70
  -3  -2   8  129.89    9.50
   2   2  -8  129.39    8.10
  -2  -2   8  136.49    8.10
  -2  -2   8  132.89    8.90
  -2  -2   8  129.19    8.60
   1   2  -8    7.80    4.10
  -1  -2   8    9.60    2.70
  -1  -2   8   10.90    2.70
  -1  -2   8   12.70    3.00
   0   2  -8  564.74   29.20
   0  -2   8  542.55   28.70
   0  -2   8  588.24   28.90
   0  -2   8  590.84   29.40
   1  -2   8  196.88   11.60
   2  -2   8  352.66   19.40
   3  -2   8   38.90    5.30
   4  -2   8  212.38   13.50
   5  -2   8   -2.00    3.80
  -8  -1   8   20.00    5.40
  -8  -1   8    6.60    7.10
  -7  -1   8   25.10    4.80
  -7  -1   8   16.90    7.20
  -6  -1   8   47.20    6.80
  -6  -1   8   29.40    6.50
   5   1  -8    8.50    5.30
  -5  -1   8    1.20    4.40
  -5  -1   8    7.80    2.90
   4   1  -8  346.67   19.20
  -4  -1   8  370.46   20.10
  -4  -1   8  370.66   19.10
   3   1  -8   11.70    2.80
  -3  -1   8   15.10    2.80
  -3  -1   8    6.20    3.40
   2   1  -8  120.79    7.70
  -2  -1   8  124.69    8.30
  -2  -1   8  129.59    7.70
   1   1  -8  376.06   19.60
   1   1  -8  344.17   19.20
  -1  -1   8  375.46   19.30
  -1  -1   8  370.16   19.20
   0   1  -8  425.56   22.90
   0   1  -8  450.45   22.90
   0  -1   8  445.96   23.10
   0  -1   8  445.76   22.70
  -1   1  -8   16.80    3.00
   1  -1   8   20.40    3.00
   1  -1   8   17.30    3.50
   2  -1   8   37.80    5.10
   3  -1   8   47.50    6.00
   4  -1   8   50.09    6.30
   5  -1   8   13.90    4.70
  -8   0   8   17.80    5.00
  -8   0   8    9.20    6.90
  -7   0   8    8.20    6.30
  -7   0   8    0.00    5.40
  -7   0   8    1.50    4.00
  -6   0   8   21.70    5.50
  -6   0   8   17.60    3.50
   5   0  -8   65.69    6.10
  -5   0   8   69.09    7.70
  -5   0   8   75.19    5.60
   4   0  -8    9.30    2.70
  -4   0   8    7.20    3.70
  -4   0   8    7.60    2.30
   3   0  -8   58.39    4.80
  -3   0   8   56.79    4.50
   2   0  -8    4.50    2.90
   2   0  -8    3.90    2.10
  -2   0   8    3.60    2.90
  -2   0   8    2.80    2.20
   1   0  -8   90.69    6.60
   1   0  -8   85.99    6.20
  -1   0   8   96.39    6.40
  -1   0   8   97.79    6.70
   0   0  -8    4.80    2.50
   0   0  -8    2.20    2.10
   0   0   8    3.00    2.40
   0   0   8    7.90    2.60
  -1   0  -8  163.18   10.10
   1   0   8  184.68   10.10
   1   0   8  179.48   10.80
  -2   0  -8  157.78    9.50
   2   0   8  174.18   10.70
   2   0   8  161.88    9.40
   3   0   8  248.58   14.90
   5   0   8   13.50    4.80
  -8   1   8   14.70    7.30
  -7   1   8   27.60    6.70
  -6   1   8   33.10    6.00
  -5   1   8  136.89   10.30
  -4   1   8   21.30    4.60
   3  -1  -8   31.90    3.60
  -3   1   8   24.60    3.10
  -3   1   8   37.10    5.30
   2  -1  -8   18.10    3.80
   2  -1  -8   32.70    3.70
  -2   1   8   36.30    3.70
  -2   1   8   28.30    4.20
   1  -1  -8    9.60    3.60
   1  -1  -8   12.00    2.70
  -1   1   8   14.10    2.90
  -1   1   8   17.20    3.50
   0  -1  -8  274.17   15.40
   0  -1  -8  273.27   15.40
   0   1   8  299.57   15.50
  -1  -1  -8   20.00    3.70
   1   1   8   22.80    3.80
   1   1   8   21.20    4.00
  -2  -1  -8    3.40    2.60
   2   1   8    3.10    3.20
   2   1   8    4.40    2.50
  -3  -1  -8   74.79    7.20
   3   1   8   80.49    5.80
   3   1   8   76.69    7.50
  -4  -1  -8   53.99    6.50
   4   1   8   61.69    5.10
   4   1   8   67.49    7.40
  -8   2   8    4.80    6.60
  -7   2   8   22.30    6.80
  -6   2   8   46.90    7.20
  -5   2   8   55.79    7.20
  -4   2   8   41.80    6.10
  -3   2   8  227.38   12.20
  -3   2   8  235.18   13.80
   2  -2  -8    1.70    2.10
  -2   2   8    6.40    3.10
  -2   2   8    1.90    2.00
   1  -2  -8   51.19    6.90
   1  -2  -8   40.30    5.00
  -1   2   8   44.10    4.50
  -1   2   8   28.10    4.70
   0  -2  -8   40.50    5.30
   0  -2  -8   51.79    6.00
   0   2   8   52.89    5.50
   0   2   8   51.19    5.10
  -1  -2  -8   88.29    7.10
   1   2   8  104.89    7.60
   1   2   8  102.89    7.30
  -2  -2  -8    2.20    3.00
   2   2   8    2.00    3.00
   2   2   8    6.40    3.60
  -3  -2  -8  112.29    9.50
   3   2   8  135.89    9.10
   3   2   8  145.59   10.00
   4   2   8   85.79    6.90
   4   2   8   99.49    8.80
  -8   3   8    0.70    6.40
  -7   3   8   94.89   14.70
  -6   3   8    4.90    5.10
  -5   3   8    1.80    4.30
  -4   3   8   22.40    4.80
  -3   3   8    5.60    3.90
   2  -3  -8  680.73   33.70
  -2   3   8  668.43   33.70
  -2   3   8  657.13   34.60
   1  -3  -8   79.39    6.10
  -1   3   8   85.59    6.20
  -1   3   8   87.29    7.00
   0   3   8  166.38   10.60
   0   3   8  177.48   11.00
   1   3   8   77.69    6.80
   1   3   8   77.29    7.00
   2   3   8  259.77   15.50
   2   3   8  283.27   16.10
   3   3   8    4.30    4.20
   3   3   8    7.40    3.30
  -8   4   8   21.10    7.30
  -7   4   8   11.10    6.40
  -6   4   8   67.29    8.20
  -5   4   8   14.00    5.10
  -4   4   8   28.10    5.90
  -3   4   8  100.09    8.30
   2  -4  -8  169.18    9.90
  -2   4   8  174.48   11.30
  -2   4   8  174.88    9.90
   1  -4  -8  304.67   16.70
  -1   4   8  315.07   16.70
  -1   4   8  303.77   17.40
   0   4   8  133.99    9.40
   0   4   8  127.49    8.80
   1   4   8   77.09    6.90
   1   4   8   79.59    7.30
   2   4   8   41.70    5.80
   2   4   8   35.20    5.30
   3   4   8   46.10    6.20
   3   4   8   44.00    5.80
  -7   5   8   14.00    6.40
  -6   5   8   27.70    6.40
  -5   5   8   21.40    6.20
  -4   5   8   40.80    6.20
  -3   5   8  172.08   11.70
   2  -5  -8    6.70    2.70
  -2   5   8    6.10    2.20
  -2   5   8    6.70    3.80
   1  -5  -8  102.19    7.80
  -1   5   8  118.49    8.90
  -1   5   8  111.39    7.50
   0   5   8  100.69    7.50
   0   5   8   98.09    8.30
   1   5   8   68.79    6.60
   1   5   8   68.69    7.30
   2   5   8    1.60    3.50
  -7   6   8   33.20    8.00
  -6   6   8   10.10    7.00
  -5   6   8   69.59    8.40
  -4   6   8   14.70    5.10
  -3   6   8   33.10    5.80
   2  -6  -8  114.29    7.80
  -2   6   8  111.19    9.10
  -1   6   8    8.10    2.70
  -1   6   8    6.50    4.30
   0   6   8   50.19    6.80
   0   6   8   40.90    5.10
   1   6   8   38.30    6.30
   1   6   8   28.20    4.80
  -7   7   8    8.10    6.80
  -6   7   8   14.80    6.40
  -5   7   8   25.70    6.40
  -4   7   8   18.00    5.70
  -3   7   8    6.70    4.70
   2  -7  -8  114.99    7.50
   2  -7  -8   94.69    7.60
  -2   7   8  104.79    9.30
   1  -7  -8  181.48   11.40
  -1   7   8  171.28   12.30
   0  -7  -8   24.90    4.90
   0   7   8   24.40    5.70
  -1  -7  -8   57.59    7.90
  -6   8   8   18.50    6.60
  -5   8   8    4.00    5.40
  -4   8   8    6.60    5.10
  -3   8   8   -1.30    4.60
  -2   8   8  127.29   10.60
   1  -8  -8    5.10    3.50
  -1   8   8    3.60    4.50
  -4   9   8   25.10    6.50
  -3   9   8   28.90    6.70
  -1 -13   9   41.60    6.80
   0  13  -9   16.90    5.40
   0 -13   9   15.40    4.90
  -1  13  -9    6.60    4.80
   1 -13   9    7.90    4.60
  -2  13  -9   27.00    5.50
   2 -13   9   25.70    5.60
  -2 -12   9    3.90    4.20
   1  12  -9   32.70    6.50
  -1 -12   9   21.20    5.40
   0  12  -9   50.89    7.00
   0 -12   9   49.50    8.10
  -1  12  -9   16.70    4.80
  -2  12  -9    6.30    7.60
   2 -12   9    9.30    5.30
   3 -12   9   16.50    5.10
   3  11  -9   64.09    8.50
  -3 -11   9   59.69    7.40
   2  11  -9   53.89    7.60
  -2 -11   9   45.30    6.60
   1  11  -9   74.39    7.70
  -1 -11   9   74.09    7.60
   0  11  -9   -1.60    3.50
   0 -11   9    1.30    3.90
  -1  11  -9   40.70    5.50
   1 -11   9   24.10    5.00
   1 -11   9   37.60    7.00
  -2  11  -9   41.80    5.20
   2 -11   9   53.99    6.80
   2 -11   9   49.50    6.30
   3 -11   9    8.70    4.80
   4 -11   9   -0.60    4.50
   4  10  -9   76.29    9.10
  -4 -10   9   73.59    7.90
   3  10  -9   -4.00    3.90
  -3 -10   9    2.90    6.10
   2  10  -9  102.39    8.60
  -2 -10   9   93.69    8.40
   1  10  -9    0.20    3.50
  -1 -10   9   -3.50    3.40
   0  10  -9   41.90    5.60
   0 -10   9   45.10    6.20
  -1  10  -9   -0.90    2.90
   1 -10   9    0.30    3.10
   2 -10   9   59.69    6.80
   3 -10   9   -0.10    3.50
   3 -10   9    0.20    0.20
   4 -10   9   26.50    8.90
   5   9  -9   36.60    7.50
  -5  -9   9   32.70    6.00
   4   9  -9   22.30   10.50
  -4  -9   9    8.20    6.50
   3   9  -9   26.00    5.40
  -3  -9   9   21.90    4.70
   2   9  -9    2.50    3.80
  -2  -9   9    5.00    3.70
   1   9  -9   96.99    7.80
  -1  -9   9   91.59    7.90
   0   9  -9   84.19    6.90
   0  -9   9   76.49    7.10
   0  -9   9   76.99    6.70
  -1   9  -9   90.39    6.50
   1  -9   9   85.39    6.60
   1  -9   9   85.99    7.40
   3  -9   9   31.50    5.30
   4  -9   9    5.60    5.60
   5  -9   9   30.30    6.20
   5   8  -9   83.59    9.20
  -5  -8   9   71.39    8.20
   4   8  -9   10.70    4.80
  -4  -8   9    5.00    3.70
   3   8  -9    6.50    4.50
  -3  -8   9    8.90    3.80
   2   8  -9   29.70    5.20
  -2  -8   9   30.80    4.90
   1   8  -9   51.49    6.10
  -1  -8   9   45.80    5.70
  -1  -8   9   48.90    6.20
   0   8  -9  101.99    7.10
   0  -8   9   93.19    7.60
   0  -8   9   95.29    6.90
   1  -8   9   22.40    4.50
   2  -8   9    6.50    3.40
   3  -8   9   60.59    6.70
   4  -8   9   11.80    4.70
   5  -8   9   30.40    6.10
   6   7  -9   10.70    6.20
  -6  -7   9   21.20    5.30
   5   7  -9   50.79    8.80
  -5  -7   9   56.39    7.00
   4   7  -9   33.10    6.10
  -4  -7   9   29.30    5.00
   3   7  -9   71.99    7.30
  -3  -7   9   87.39    7.30
   2   7  -9   47.40    6.10
  -2  -7   9   42.00    5.30
   1   7  -9  201.18   11.90
  -1  -7   9  207.38   12.40
  -1  -7   9  197.08   11.80
   0  -7   9    0.90    2.10
   0  -7   9    1.70    2.60
   1  -7   9   36.30    5.30
   2  -7   9   10.70    3.70
   3  -7   9   39.30    5.60
   4  -7   9   49.00    6.50
   5  -7   9    4.00    4.30
   6   6  -9   36.20    7.60
  -6  -6   9   25.40    5.70
   5   6  -9   64.39    8.60
  -5  -6   9   79.99    7.60
   4   6  -9  220.58   14.40
  -4  -6   9  225.78   13.60
   3   6  -9    9.30    4.20
  -3  -6   9    9.70    3.60
   2   6  -9  575.84   29.30
  -2  -6   9  538.25   29.10
  -1  -6   9   47.50    5.30
   0  -6   9    2.20    2.80
   0  -6   9    4.00    2.20
   0  -6   9    9.20    3.00
   1  -6   9   14.00    3.60
   2  -6   9   15.00    4.10
   3  -6   9   25.10    5.00
   4  -6   9   38.50    6.10
   5  -6   9   12.20    5.20
  -7  -5   9   -1.70    7.80
  -6  -5   9   66.99    7.50
  -5  -5   9    3.90    5.50
  -5  -5   9    1.90    3.60
  -4  -5   9    9.00    3.70
  -3  -5   9   -0.70    2.80
  -3  -5   9   -0.70    3.70
  -2  -5   9  125.39    8.30
  -2  -5   9  128.39   10.30
  -2  -5   9  112.59    8.30
  -1  -5   9  136.79    8.70
  -1  -5   9  122.99    8.40
  -1  -5   9  123.29    8.10
   0  -5   9   29.40    3.60
   0  -5   9   32.20    4.00
   0  -5   9   41.90    5.00
   1  -5   9   11.10    3.60
   2  -5   9  365.86   20.20
   3  -5   9   42.30    6.00
   4  -5   9  122.29    9.60
   5  -5   9   -2.10    4.10
  -7  -4   9   14.30    7.90
  -7  -4   9    6.20    5.00
  -6  -4   9   56.79    9.40
  -6  -4   9   69.09    7.30
  -5  -4   9   28.40    4.80
  -5  -4   9   26.40    7.00
  -4  -4   9   90.09    9.10
  -4  -4   9   93.79    7.40
  -3  -4   9   12.70    4.60
  -3  -4   9   13.10    3.40
  -2  -4   9   13.50    3.30
  -2  -4   9   16.50    3.80
  -2  -4   9   18.80    4.30
  -1  -4   9  115.99    7.40
  -1  -4   9  100.99    7.00
  -1  -4   9   92.39    7.20
   0  -4   9   20.80    3.70
   0  -4   9   14.50    2.90
   0  -4   9   16.60    2.80
   1  -4   9   43.90    5.20
   2  -4   9    3.30    3.20
   3  -4   9  214.08   13.40
   4  -4   9  104.49    8.90
   5  -4   9   16.20    4.60
  -7  -3   9   19.00    5.40
  -7  -3   9   19.60    7.60
  -6  -3   9   -0.60    5.80
  -6  -3   9    7.60    4.20
  -5  -3   9    8.90    3.80
  -5  -3   9    6.70    5.50
   4   3  -9    2.10    4.80
  -4  -3   9    4.60    3.20
  -4  -3   9    1.80    3.90
  -3  -3   9   58.69    6.50
  -3  -3   9   52.19    7.50
   2   3  -9   27.80    4.20
  -2  -3   9   26.90    4.30
  -2  -3   9   33.30    4.70
   1   3  -9   23.30    3.80
  -1  -3   9   23.70    3.90
  -1  -3   9   28.10    4.10
  -1  -3   9   24.60    3.80
   0  -3   9   32.20    3.90
   0  -3   9   40.60    4.80
   0  -3   9   32.50    3.80
   1  -3   9    7.90    3.50
   2  -3   9   26.00    4.70
   3  -3   9   97.59    8.10
   5  -3   9   32.70    6.00
  -7  -2   9   15.40    7.20
  -7  -2   9   15.90    4.90
  -6  -2   9   10.10    3.90
  -6  -2   9   -3.10    5.10
   5   2  -9   42.60    5.70
  -5  -2   9   42.50    5.40
  -5  -2   9   57.49    7.50
   4   2  -9   41.90    5.40
  -4  -2   9   50.19    5.10
  -4  -2   9   62.89    7.70
   3   2  -9   34.40    4.20
  -3  -2   9   46.90    4.70
  -3  -2   9   31.00    5.00
   2   2  -9    1.50    2.40
  -2  -2   9    2.00    2.50
  -2  -2   9    3.20    3.00
  -2  -2   9    1.80    3.00
   1   2  -9   11.70    2.80
  -1  -2   9    8.80    2.80
  -1  -2   9   11.60    3.10
   0  -2   9   18.40    3.20
   0  -2   9   12.40    2.90
   0  -2   9   15.00    3.60
   1  -2   9  189.08   11.60
   2  -2   9  109.39    8.30
   3  -2   9  133.29   10.00
   4  -2   9  178.68   12.30
   5  -2   9   17.90    5.10
  -7  -1   9   18.30    4.60
  -7  -1   9   13.40    6.80
   6   1  -9    5.50    2.80
  -6  -1   9   14.80    5.80
  -6  -1   9   12.80    4.70
   5   1  -9   17.90    4.80
  -5  -1   9   23.40    5.30
   4   1  -9   74.29    6.80
  -4  -1   9   80.39    6.00
  -4  -1   9   83.99    7.80
   3   1  -9    2.40    2.70
  -3  -1   9    7.00    2.60
  -3  -1   9    2.30    3.30
   2   1  -9  274.37   16.60
  -2  -1   9  287.37   16.80
  -2  -1   9  325.57   17.00
  -2  -1   9  331.97   16.50
   1   1  -9    5.70    2.90
   1   1  -9    4.80    2.70
  -1  -1   9    4.70    3.00
  -1  -1   9    5.90    2.90
   0   1  -9  246.88   14.00
   0  -1   9  246.08   14.20
   0  -1   9  259.67   13.80
  -1   1  -9   16.30    3.30
   1  -1   9   17.90    3.80
   1  -1   9   22.80    3.40
   2  -1   9  243.68   14.50
   3  -1   9   25.30    4.90
   4  -1   9   87.79    8.60
  -8   0   9    5.80    4.50
  -8   0   9    4.70    7.20
  -7   0   9   -1.00    6.50
  -7   0   9    4.40    4.20
  -6   0   9   98.79    7.50
  -6   0   9  117.59   10.00
   5   0  -9   53.79    5.70
  -5   0   9   49.99    5.00
  -5   0   9   71.59    7.60
   4   0  -9   55.29    5.40
  -4   0   9   61.69    5.20
  -4   0   9   73.99    7.20
   3   0  -9   76.89    6.20
  -3   0   9   91.09    7.40
  -3   0   9   83.59    5.80
   2   0  -9  138.89   10.70
   2   0  -9  148.19   10.00
  -2   0   9  157.98    9.10
   1   0  -9  260.67   14.90
   1   0  -9  268.77   14.50
  -1   0   9  252.67   14.60
  -1   0   9  266.77   14.60
   0   0  -9  170.38   10.50
   0   0   9  178.28   10.40
   0   0   9  172.08   10.70
  -1   0  -9   16.20    3.50
   1   0   9   12.90    3.10
   1   0   9   13.60    3.50
  -2   0  -9  146.19    9.30
   2   0   9  167.68   10.50
   2   0   9  148.09    9.10
   3   0   9   42.50    6.10
   4   0   9  102.99    9.20
  -8   1   9    2.30    6.80
  -7   1   9   13.20    6.70
  -6   1   9   10.10    5.60
  -5   1   9   66.49    7.90
  -4   1   9   25.00    5.50
   3  -1  -9   44.40    4.60
  -3   1   9   56.49    6.20
  -3   1   9   45.70    4.40
   2  -1  -9   21.10    3.70
  -2   1   9   28.70    4.70
  -2   1   9   17.50    3.20
   1  -1  -9  346.77   18.00
   1  -1  -9  309.67   18.30
  -1   1   9  348.37   18.70
   0  -1  -9   44.80    5.30
   0   1   9   39.20    5.00
   0   1   9   39.10    5.00
  -1  -1  -9   37.30    5.00
   1   1   9   45.00    5.40
   1   1   9   36.20    4.80
  -2  -1  -9   18.40    4.60
   2   1   9   25.70    4.90
   2   1   9   22.00    3.80
  -3  -1  -9   48.60    6.10
   3   1   9   60.29    5.20
   4   1   9    4.80    4.20
  -8   2   9    7.10    7.30
  -7   2   9   20.60    6.80
  -6   2   9    1.80    5.30
  -5   2   9   38.50    6.20
  -4   2   9    7.50    4.30
   3  -2  -9   62.39    5.30
  -3   2   9   67.49    7.00
  -3   2   9   68.09    5.00
   2  -2  -9   46.80    4.80
  -2   2   9   53.09    6.10
  -2   2   9   56.69    4.90
   1  -2  -9   21.70    3.60
  -1   2   9   20.60    4.20
   0   2   9   75.59    6.60
   0   2   9   74.89    6.80
   1   2   9  106.99    7.90
   1   2   9  105.59    8.20
   2   2   9    2.20    3.50
   2   2   9    1.70    2.70
   3   2   9   42.70    5.20
   3   2   9   50.09    6.60
  -7   3   9   30.40    7.00
  -6   3   9    6.90    5.40
  -5   3   9    8.70    5.10
  -4   3   9    2.70    4.30
  -3   3   9   68.19    7.10
   2  -3  -9   11.80    3.60
  -2   3   9    9.90    2.70
  -2   3   9   15.90    4.30
   1  -3  -9  168.18   10.80
  -1   3   9  148.19    9.40
  -1   3   9  141.49   10.10
   0   3   9  129.89    9.30
   0   3   9  131.59    9.10
   1   3   9  211.38   12.90
   1   3   9  207.48   13.10
   2   3   9   19.70    4.60
   2   3   9   28.00    4.80
   3   3   9   84.19    7.30
   3   3   9   91.19    8.70
  -7   4   9   12.50    6.30
  -6   4   9   25.70   10.90
  -5   4   9    0.10    5.10
  -4   4   9  158.48   11.40
  -3   4   9   23.00    5.50
   2  -4  -9  234.08   15.60
  -2   4   9  216.68   12.50
  -2   4   9  228.28   13.90
  -1   4   9  120.99    9.40
  -1   4   9  126.29    8.40
   0   4   9  264.17   15.20
   0   4   9  263.27   15.70
   1   4   9    8.20    3.60
   1   4   9    6.10    4.00
   2   4   9   60.39    6.60
   2   4   9   50.89    6.60
  -7   5   9    8.20    6.50
  -6   5   9   30.50    7.20
  -5   5   9   50.49    7.50
  -4   5   9    1.10    4.60
  -3   5   9   17.90    5.00
   2  -5  -9  103.69    7.60
  -2   5   9  117.99    9.10
  -2   5   9  102.39    7.10
  -1   5   9   55.69    5.50
  -1   5   9   50.49    6.70
   0   5   9    4.70    3.10
   0   5   9    7.00    4.10
   1   5   9  110.59    8.70
   1   5   9  113.09    9.30
  -6   6   9   41.30    7.80
  -5   6   9   89.99    9.60
  -4   6   9    4.10    4.80
  -3   6   9   21.30    5.30
   2  -6  -9   11.70    3.90
  -2   6   9   14.90    5.00
  -1   6   9   17.00    3.50
  -1   6   9   21.00    5.20
   0   6   9   24.20    5.30
   0   6   9   17.40    3.80
  -6   7   9   16.20    6.60
  -5   7   9    9.70    5.50
  -4   7   9    7.80    5.20
  -3   7   9   19.30    5.80
   2  -7  -9   21.00    4.20
   2  -7  -9    4.00    6.80
  -2   7   9   24.70    6.40
   1  -7  -9  154.88   10.50
  -1   7   9  146.19   11.40
  -4   8   9   27.50    6.80
  -3   8   9   34.80    6.90
   0  13 -10   42.80    6.80
   0 -13  10   34.40    6.60
  -1  13 -10    1.60    3.90
   1 -13  10   -0.70    3.90
   2  12 -10    0.90    5.00
  -2 -12  10    1.30    4.20
   1  12 -10   16.10    5.20
  -1 -12  10   20.00    5.30
   0  12 -10    4.20    4.10
   0 -12  10    7.40    4.50
  -1  12 -10   62.29    6.70
   1 -12  10   61.69    7.30
   2 -12  10   13.80    5.00
   3 -12  10   21.80    5.70
   3  11 -10   53.79    8.00
  -3 -11  10   52.09    7.10
   2  11 -10    1.20    4.10
  -2 -11  10   -0.40    3.70
   1  11 -10    3.80    4.20
  -1 -11  10    2.00    4.30
   0  11 -10   -1.20    3.50
   1 -11  10    0.00    4.30
   2 -11  10   -0.10    4.10
   3 -11  10    3.50    4.30
   4  10 -10   91.69    9.90
  -4 -10  10   89.99    8.90
   3  10 -10   35.90    6.80
  -3 -10  10   37.10    6.10
   2  10 -10    0.50    4.10
  -2 -10  10    2.40    6.80
   1  10 -10   17.90    4.70
  -1 -10  10   11.40    4.50
   0  10 -10   40.10    5.90
   0 -10  10   49.60    6.70
  -1  10 -10    7.90    3.50
   1 -10  10   12.10    4.20
   1 -10  10   10.40    4.50
   2 -10  10    4.30    3.90
   3 -10  10   17.30    5.10
   4 -10  10   89.09    9.20
  -5  -9  10    2.90    4.40
   4   9 -10   33.40    8.20
  -4  -9  10   41.10    6.40
   3   9 -10    1.10    4.10
  -3  -9  10    3.00    3.90
   2   9 -10   65.19    7.20
  -2  -9  10   67.89    7.20
   1   9 -10    1.50    3.50
  -1  -9  10    0.50    3.60
   0   9 -10   55.29    6.20
   0  -9  10   48.10    5.60
   0  -9  10   43.70    6.00
   1  -9  10    5.80    3.50
   2  -9  10   82.89    7.50
   4  -9  10   65.19    8.20
   5   8 -10    2.10    5.40
  -5  -8  10    0.40    4.20
   4   8 -10    5.20    4.60
  -4  -8  10    1.80    4.00
   3   8 -10   78.59    8.00
  -3  -8  10   85.49    7.80
   2   8 -10  183.58   11.60
  -2  -8  10  170.38   11.60
   1   8 -10  224.38   13.00
  -1  -8  10  205.38   13.20
   0  -8  10    7.90    3.80
   0  -8  10    8.30    3.00
   1  -8  10  121.69    9.00
   2  -8  10  207.68   13.10
   3  -8  10   38.00    6.10
   4  -8  10    2.80    4.10
   6   7 -10   12.20    6.50
  -6  -7  10   23.30    5.30
   5   7 -10   -2.60    6.60
  -5  -7  10    8.60    4.80
   4   7 -10   13.10    4.90
  -4  -7  10   11.90    4.50
   3   7 -10    5.40    4.10
  -3  -7  10    6.10    3.80
   2   7 -10   85.89    7.50
  -2  -7  10   77.79    7.20
  -1  -7  10   44.70    6.10
  -1  -7  10   46.00    5.60
  -1  -7  10   42.30    5.10
   0  -7  10   10.80    3.70
   0  -7  10   12.60    2.90
   0  -7  10   12.90    3.70
   1  -7  10   64.19    7.20
   2  -7  10   35.10    5.70
   3  -7  10  130.59    9.90
   4  -7  10    2.80    4.50
  -6  -6  10   28.40    8.90
  -6  -6  10   12.60    6.10
  -5  -6  10   76.69    7.60
  -5  -6  10   53.79    9.20
  -4  -6  10   46.90    5.90
  -4  -6  10   38.10    7.30
  -3  -6  10  175.38   12.40
  -3  -6  10  169.78   11.20
  -2  -6  10    5.00    3.40
  -2  -6  10    3.00    4.10
  -1  -6  10   27.60    4.30
  -1  -6  10   30.00    4.50
  -1  -6  10   39.70    5.40
   0  -6  10   33.00    4.40
   0  -6  10   31.20    3.90
   0  -6  10   41.40    5.50
   1  -6  10   -1.40    2.90
   2  -6  10   66.19    7.60
   3  -6  10   40.40    6.30
   4  -6  10   41.80    6.50
  -6  -5  10  103.49    9.10
  -6  -5  10  111.49   12.30
  -5  -5  10   -3.90    3.80
  -5  -5  10    1.40    5.80
  -4  -5  10  193.08   12.50
  -4  -5  10  216.88   14.50
  -3  -5  10   -1.50    4.00
  -3  -5  10    1.00    3.00
  -2  -5  10   27.80    4.40
  -2  -5  10   34.70    5.70
  -1  -5  10    3.70    3.00
  -1  -5  10    1.70    3.40
   0  -5  10    0.50    2.00
   0  -5  10    2.40    2.30
   0  -5  10    1.30    2.90
   1  -5  10   44.00    5.60
   2  -5  10   68.59    6.90
   3  -5  10  140.39   10.40
   4  -5  10  107.39    9.40
  -7  -4  10    0.90    4.80
  -7  -4  10    3.40    7.40
  -6  -4  10    2.10    4.40
  -5  -4  10    5.50    4.00
  -5  -4  10    0.80    5.40
  -4  -4  10   17.50    4.40
  -4  -4  10   14.10    5.10
  -3  -4  10   63.99    7.20
  -3  -4  10   55.49    5.90
  -2  -4  10   88.79    7.00
  -2  -4  10   82.69    7.20
  -2  -4  10  105.79   12.00
  -1  -4  10    4.10    3.00
  -1  -4  10   -0.50    2.80
  -1  -4  10    2.30    3.00
   0  -4  10  149.59    9.00
   0  -4  10  146.39   10.00
   0  -4  10  165.28    9.10
   1  -4  10   17.00    4.10
   2  -4  10  205.38   12.90
   3  -4  10   17.80    4.70
   4  -4  10  123.79   10.10
  -7  -3  10   10.80    7.50
  -7  -3  10    4.90    4.80
  -6  -3  10   68.99    7.30
  -6  -3  10   58.09   10.10
  -5  -3  10   14.20    4.30
  -5  -3  10   17.30    6.00
  -4  -3  10   10.80    3.70
  -4  -3  10   11.40    4.90
  -3  -3  10   65.69    6.90
  -3  -3  10   69.19    6.20
  -2  -3  10    6.70    3.00
  -2  -3  10    4.00    3.40
  -1  -3  10  449.86   23.90
  -1  -3  10  428.66   24.20
  -1  -3  10  477.85   23.70
   0  -3  10    5.60    2.70
   0  -3  10    6.50    3.20
   0  -3  10    5.70    2.70
   1  -3  10   92.89    7.60
   2  -3  10   91.19    7.90
   3  -3  10   62.59    7.00
   4  -3  10    1.80    4.10
  -7  -2  10    0.00    6.60
  -7  -2  10    4.40    4.70
  -6  -2  10    2.00    3.80
  -6  -2  10   -0.70    5.70
  -5  -2  10   80.99    8.60
  -5  -2  10   79.99    6.90
   4   2 -10    8.50    3.90
  -4  -2  10    5.90    3.30
  -4  -2  10    5.90    4.30
   3   2 -10   -1.00    3.20
  -3  -2  10    0.10    3.10
  -3  -2  10    0.80    3.40
  -2  -2  10    7.50    3.50
  -2  -2  10   13.20    3.20
  -2  -2  10   10.50    6.50
  -1  -2  10  279.17   15.70
  -1  -2  10  283.97   15.50
   0  -2  10   21.10    3.70
   0  -2  10   21.10    4.30
   0  -2  10   31.50    4.00
   1  -2  10   14.80    3.90
   2  -2  10    4.90    3.60
   4  -2  10   16.70    4.80
  -7  -1  10   12.50    6.80
  -7  -1  10   13.50    4.40
  -6  -1  10   38.40    7.60
  -6  -1  10   32.20    4.80
   5   1 -10   23.30    4.90
  -5  -1  10   22.40    5.10
  -5  -1  10   37.50    4.90
   4   1 -10    5.10    3.50
  -4  -1  10   11.70    3.30
  -4  -1  10   10.20    5.00
   3   1 -10   37.50    4.90
  -3  -1  10   50.09    5.00
  -3  -1  10   53.09    6.50
   2   1 -10    7.80    3.40
  -2  -1  10   14.00    4.30
  -2  -1  10    9.60    3.30
   1   1 -10  314.07   18.10
  -1  -1  10  334.07   17.80
  -1  -1  10  325.57   17.70
   0   1 -10    2.00    3.10
   0  -1  10   -0.40    3.00
   0  -1  10    2.70    2.70
  -1   1 -10  123.49    8.40
   1  -1  10  125.29    9.10
   1  -1  10  131.39    8.10
   2  -1  10   74.29    7.50
   3  -1  10   80.99    7.90
   4  -1  10    0.50    3.80
  -7   0  10   12.50    6.70
  -7   0  10   12.70    7.10
   6   0 -10    9.80    6.10
  -6   0  10    9.50    5.90
  -6   0  10   12.30    3.70
   5   0 -10    8.90    4.40
  -5   0  10   21.00    5.80
  -5   0  10   13.40    3.40
   4   0 -10   53.79    6.30
  -4   0  10   61.79    5.40
  -4   0  10   70.89    7.70
   3   0 -10   20.50    4.30
  -3   0  10   39.10    5.70
  -3   0  10   25.20    3.60
   2   0 -10   79.79    6.60
  -2   0  10   89.79    7.30
   1   0 -10   13.70    4.10
  -1   0  10   15.80    3.50
   0   0 -10  528.35   28.00
   0   0  10  528.05   28.20
   0   0  10  549.15   27.80
  -1   0 -10    4.90    6.80
   1   0  10    9.80    4.20
   1   0  10   10.10    3.20
  -2   0 -10  108.69    8.20
   2   0  10  125.49    7.80
   2   0  10  131.39    9.40
   3   0  10    7.30    4.30
  -7   1  10    7.10    6.50
  -6   1  10   11.30    6.20
  -5   1  10   46.20    6.90
   4  -1 -10   17.00    3.80
  -4   1  10   24.60    5.40
  -4   1  10   16.30    3.00
   3  -1 -10   21.00    5.40
  -3   1  10   16.90    4.70
  -3   1  10   15.70    3.20
   2  -1 -10   15.90    3.70
  -2   1  10   18.40    4.40
  -2   1  10   19.20    4.00
  -1   1  10    2.20    3.70
  -1   1  10    3.50    3.30
   0   1  10  309.97   16.50
   0   1  10  263.87   16.00
  -1  -1 -10    4.90    3.80
   1   1  10    8.30    3.70
  -2  -1 -10   53.99    6.40
   2   1  10   60.39    7.10
   2   1  10   53.39    6.30
   3   1  10   28.10    4.70
   3   1  10   33.60    5.90
  -7   2  10    3.50    6.40
  -6   2  10    7.30    9.40
  -5   2  10   44.60    7.30
  -4   2  10    4.90    4.50
   3  -2 -10   24.30    4.00
  -3   2  10   30.40    5.50
  -3   2  10   26.00    3.50
   2  -2 -10  278.37   16.00
  -2   2  10  303.37   16.60
  -2   2  10  294.27   16.90
  -1   2  10   67.39    6.20
  -1   2  10   67.49    6.80
   0   2  10   23.00    4.60
   0   2  10   20.00    4.30
   1   2  10  118.89    9.00
   1   2  10  113.29    8.50
   2   2  10    3.50    4.90
   2   2  10    3.60    3.10
  -7   3  10    9.00    6.40
  -6   3  10   17.40    6.40
  -5   3  10    6.00    5.40
  -4   3  10  103.09    9.50
   3  -3 -10    4.30    3.20
  -3   3  10    2.40    2.50
  -3   3  10    3.30    4.20
   2  -3 -10   18.40    3.90
  -2   3  10   21.10    4.60
  -1   3  10  147.49   10.20
  -1   3  10  144.39    9.60
   0   3  10   36.50    4.90
   0   3  10   29.10    4.90
   1   3  10   16.70    4.30
   1   3  10   22.70    4.60
   2   3  10   59.99    7.20
   2   3  10   57.39    6.30
  -7   4  10    6.40    6.80
  -6   4  10   12.10    6.30
  -5   4  10   29.40    8.10
  -4   4  10    2.10    4.90
  -3   4  10   73.99    8.00
   2  -4 -10   58.39    6.40
  -2   4  10   71.79    6.30
  -2   4  10   61.69    7.30
  -1   4  10  223.68   12.90
  -1   4  10  206.58   13.70
   0   4  10   38.20    6.10
   0   4  10   42.70    5.50
   1   4  10   48.30    6.60
   1   4  10   53.29    6.50
  -6   5  10   80.29   10.10
  -5   5  10   23.40    6.70
  -4   5  10   57.49    9.30
  -3   5  10   62.09    7.80
  -2   5  10   36.70    4.60
  -2   5  10   48.90    6.90
  -1   5  10   -5.10    3.70
  -1   5  10   -1.60    2.70
   0   5  10   64.99    7.60
   0   5  10   64.59    6.60
  -5   6  10   11.80    6.00
  -4   6  10   54.09    7.80
  -3   6  10    4.60    4.80
  -2   6  10   43.00    4.60
  -2   6  10   54.99    8.70
  -1   6  10    4.70    2.90
  -1   6  10    6.90    5.20
  -4   7  10   -0.70    5.00
  -3   7  10   27.90    6.50
   1  12 -11   47.70    7.50
  -1 -12  11   39.50    7.00
   0  12 -11    3.60    4.20
   0 -12  11    7.10    4.40
  -1  12 -11   50.29    6.40
   1 -12  11   73.89    7.90
   2  11 -11    5.90    4.70
  -2 -11  11    5.40    4.80
   1  11 -11   53.59    7.40
  -1 -11  11   54.89    7.40
   0  11 -11   99.89    8.00
   0 -11  11   98.89    8.60
  -1  11 -11   57.79    7.00
   1 -11  11   46.30    6.60
   1 -11  11   42.40    6.70
   2 -11  11    7.40    4.50
   3  10 -11    5.40    5.10
  -3 -10  11    5.80    4.40
   2  10 -11    1.00    3.90
  -2 -10  11    4.90    5.70
   1  10 -11    4.60    3.60
  -1 -10  11    7.10    4.70
   0  10 -11   -3.90    3.30
   0 -10  11    2.30    6.30
   1 -10  11    6.50    4.30
   2 -10  11    1.60    3.80
   3 -10  11   56.39    7.70
   4   9 -11    2.60    4.90
  -4  -9  11    9.90    4.80
   3   9 -11   11.40    4.80
  -3  -9  11   12.80    5.10
   2   9 -11   53.79    7.10
  -2  -9  11   64.29    7.70
   1   9 -11   43.50    6.20
  -1  -9  11   48.70    6.50
   0  -9  11   -1.60    3.50
   0  -9  11   -1.00    2.90
   0  -9  11   -3.00    3.50
   1  -9  11   75.89    7.60
   2  -9  11   46.10    7.00
   3  -9  11   42.70    6.40
   5   8 -11   14.80    6.40
  -5  -8  11    9.70    4.90
   4   8 -11    1.90    5.40
  -4  -8  11   12.90    7.50
   3   8 -11    0.20    4.30
  -3  -8  11    3.70    4.30
  -2  -8  11  107.59    8.90
  -1  -8  11    8.10    4.50
  -1  -8  11    5.20    3.70
   0  -8  11  154.48    9.90
   0  -8  11  136.49   10.20
   1  -8  11    3.60    3.50
   3  -8  11   -2.30    3.80
  -5  -7  11    3.70    7.30
  -5  -7  11    4.10    7.10
  -4  -7  11   39.90    7.90
  -4  -7  11   38.60    6.00
  -3  -7  11  117.09    9.50
  -3  -7  11  139.09   11.30
  -2  -7  11    6.10    3.80
  -2  -7  11    4.40    4.80
  -1  -7  11  189.88   12.10
  -1  -7  11  223.58   13.00
   0  -7  11   54.49    5.50
   0  -7  11   46.30    4.80
   0  -7  11   54.69    6.20
   1  -7  11   65.39    6.70
   2  -7  11   -2.20    3.40
   3  -7  11   10.90    4.60
   4  -7  11    3.00    4.80
  -6  -6  11    9.80    6.10
  -6  -6  11    6.20    8.10
  -5  -6  11   20.60    5.40
  -4  -6  11   15.10    5.20
  -4  -6  11   26.50    6.90
  -3  -6  11   37.90    5.70
  -3  -6  11   34.40    6.80
  -2  -6  11    1.60    3.30
  -2  -6  11   -0.10    3.80
  -1  -6  11  182.38   11.00
  -1  -6  11  171.18   11.10
  -1  -6  11  156.58   10.30
   0  -6  11    5.10    3.50
   0  -6  11    7.20    3.00
   0  -6  11    8.10    2.70
   1  -6  11   51.89    6.40
   2  -6  11   15.90    4.70
   3  -6  11   32.50    5.90
   4  -6  11    4.60    4.50
  -6  -5  11    4.20    7.00
  -6  -5  11    3.50    5.10
  -5  -5  11  138.59   10.50
  -5  -5  11  155.18   12.70
  -4  -5  11    4.00    5.00
  -4  -5  11   -0.20    3.90
  -3  -5  11   27.30    5.60
  -3  -5  11   19.50    4.50
  -2  -5  11   32.10    5.50
  -2  -5  11   34.10    4.70
  -1  -5  11   61.89    6.00
  -1  -5  11   58.79    6.20
  -1  -5  11   51.89    5.60
   0  -5  11  196.98   11.10
   0  -5  11  198.98   12.20
   0  -5  11  189.18   10.90
   1  -5  11   10.20    4.00
   2  -5  11   59.69    7.30
   3  -5  11   62.89    7.50
   4  -5  11   -1.20    4.20
  -6  -4  11   85.39   10.90
  -6  -4  11   85.89    8.30
  -5  -4  11   -4.00    5.40
  -5  -4  11    4.00    4.30
  -4  -4  11    5.70    4.90
  -4  -4  11   10.40    4.20
  -3  -4  11   12.50    4.80
  -3  -4  11   11.60    3.70
  -2  -4  11   45.00    5.90
  -2  -4  11   41.20    5.40
  -1  -4  11  394.26   22.30
  -1  -4  11  449.76   22.50
  -1  -4  11  419.96   22.70
   0  -4  11   92.09    6.60
   0  -4  11  100.19    7.80
   0  -4  11   95.69    6.60
   1  -4  11   62.49    6.70
   2  -4  11   70.19    7.40
   3  -4  11   44.20    7.00
  -6  -3  11   -1.30    6.30
  -6  -3  11    5.80    4.70
  -5  -3  11   14.80    6.00
  -5  -3  11   17.80    4.50
  -4  -3  11   -0.30    3.40
  -4  -3  11    0.60    4.30
  -3  -3  11    5.90    4.50
  -3  -3  11    2.60    3.40
  -2  -3  11  261.67   15.70
  -2  -3  11  296.27   16.20
  -1  -3  11   31.20    4.60
  -1  -3  11   22.00    4.30
  -1  -3  11   28.50    4.60
   0  -3  11  722.73   37.40
   0  -3  11  719.83   36.50
   0  -3  11  728.43   36.60
   1  -3  11   26.60    4.90
   2  -3  11  101.89    8.60
   3  -3  11   53.49    7.00
  -7  -2  11    1.90    6.70
  -7  -2  11    3.30    4.70
  -6  -2  11   -1.10    3.80
  -6  -2  11   -0.40    6.60
  -5  -2  11   19.80    6.30
  -5  -2  11   24.80    4.50
  -4  -2  11    4.90    3.40
  -4  -2  11   11.10    5.00
  -3  -2  11    6.00    4.40
  -3  -2  11    6.40    3.30
  -2  -2  11   30.10    5.30
  -2  -2  11   23.50    4.30
  -1  -2  11  197.48   11.70
  -1  -2  11  182.18   11.50
  -1  -2  11  185.68   11.50
   0  -2  11  153.38    9.20
   0  -2  11  125.19    9.10
   0  -2  11  159.08   10.10
   1  -2  11   36.50    5.60
   2  -2  11    9.00    4.30
   3  -2  11   19.00    5.10
  -7  -1  11   11.70    4.60
  -7  -1  11   14.40    6.90
  -6  -1  11   -2.00    6.90
  -6  -1  11    1.50    3.80
   5   1 -11    9.30    4.70
  -5  -1  11   19.10    4.00
  -5  -1  11   13.90    5.80
   4   1 -11   15.50    5.50
  -4  -1  11    7.90    4.70
  -4  -1  11   15.90    3.60
  -3  -1  11   58.19    5.80
  -3  -1  11   62.29    7.10
  -2  -1  11   21.90    4.50
  -2  -1  11   24.00    3.90
  -1  -1  11   26.00    4.50
  -1  -1  11   37.60    5.10
   0   1 -11   24.00    4.70
   0  -1  11   34.60    5.30
   0  -1  11   39.60    4.90
  -1   1 -11   33.40    5.10
   1  -1  11   38.40    5.80
   1  -1  11   37.70    4.50
   3  -1  11   16.80    5.00
  -7   0  11    9.20    6.70
  -6   0  11    8.50    6.80
   5   0 -11   13.20    4.10
  -5   0  11   23.40    6.40
  -5   0  11   22.10    3.90
   4   0 -11   18.50    4.50
  -4   0  11   21.10    4.00
  -4   0  11   27.30    5.70
   3   0 -11   80.69    7.40
  -3   0  11   74.69    6.50
  -3   0  11   94.99    8.10
  -2   0  11   29.40    4.50
  -2   0  11   31.90    5.50
  -1   0  11   98.19    7.70
  -1   0  11   90.29    7.60
   0   0 -11   34.90    6.20
   0   0  11   48.90    6.00
   0   0  11   50.79    6.10
  -1   0 -11   24.00    5.00
   1   0  11   31.00    5.50
   1   0  11   30.70    4.40
   2   0  11   10.30    3.10
   2   0  11   11.70    4.30
  -7   1  11   10.40    6.90
  -6   1  11    8.00    6.00
  -5   1  11    9.10    5.40
   4  -1 -11   75.99    9.10
  -4   1  11   86.69    6.50
  -4   1  11  108.49    9.10
   3  -1 -11   12.10    4.00
  -3   1  11   18.40    5.10
  -2   1  11  188.68   11.40
  -2   1  11  184.98   12.10
  -1   1  11   18.10    4.40
  -1   1  11   22.30    4.40
   0   1  11  146.89   10.20
   0   1  11  156.58   10.60
   1   1  11   25.70    4.60
   1   1  11   26.60    5.20
   2   1  11    9.10    3.40
   2   1  11   12.60    4.50
  -7   2  11   -3.90    6.00
  -6   2  11    6.60    6.10
  -5   2  11    4.90    5.60
  -4   2  11    5.50    5.00
   3  -2 -11    4.00    3.90
  -3   2  11    5.40    3.10
  -3   2  11   12.00    4.90
  -2   2  11  106.99    7.80
  -2   2  11  100.59    8.70
  -1   2  11   15.90    4.10
  -1   2  11   17.00    4.50
   0   2  11   77.19    7.40
   0   2  11   80.19    7.40
   1   2  11   91.39    8.50
   1   2  11   95.49    7.90
  -6   3  11   30.70    7.20
  -5   3  11    6.70    6.90
  -4   3  11  117.19   10.20
   3  -3 -11   30.80    4.90
  -3   3  11   53.89    7.30
  -3   3  11   31.70    4.10
  -2   3  11   54.39    6.90
  -2   3  11   45.60    5.40
  -1   3  11   86.99    8.20
  -1   3  11   80.69    7.20
   0   3  11    2.00    3.60
   0   3  11    2.30    3.60
   1   3  11   32.70    5.50
   1   3  11   42.30    5.90
  -6   4  11   23.20    7.30
  -5   4  11   11.70    6.10
  -3   4  11   87.69    8.90
  -2   4  11    5.60    4.20
  -2   4  11    4.70    2.80
  -1   4  11   40.60    6.40
  -1   4  11   29.10    4.60
   0   4  11   36.20    5.30
   0   4  11   30.70    5.90
  -5   5  11   48.60    7.90
  -4   5  11   25.50    6.50
  -3   5  11   70.89    8.30
  -2   5  11    3.30    2.70
  -2   5  11   -1.60    8.20
   1  11 -12   72.49    7.90
  -1 -11  12   65.19    7.70
   0 -11  12    2.00    4.20
   1 -11  12   48.50    7.40
   3  10 -12   36.50   12.00
  -3 -10  12   20.20    5.60
   2  10 -12   13.90    5.30
  -2 -10  12    8.20    4.70
  -1 -10  12   65.19    7.40
   0 -10  12    4.60    4.30
   0 -10  12   10.10    4.90
   1 -10  12   18.40    5.10
   2 -10  12    0.20    4.00
  -4  -9  12    1.70    4.70
  -3  -9  12   22.00    5.60
  -2  -9  12   13.70    4.70
  -2  -9  12   19.70    6.20
  -1  -9  12   28.90    6.50
  -1  -9  12   16.20    5.10
   0  -9  12   47.10    5.90
   0  -9  12   34.70    5.90
   0  -9  12   23.50    4.50
   1  -9  12   30.90    5.80
   2  -9  12    0.40    3.80
  -4  -8  12   39.80    6.70
  -3  -8  12   28.00    7.30
  -3  -8  12   17.80    7.50
  -2  -8  12   20.60    6.10
  -2  -8  12    8.90    5.00
  -1  -8  12  150.98   11.50
  -1  -8  12  181.58   11.70
   0  -8  12  187.78   15.70
   0  -8  12  207.88   12.00
   1  -8  12   20.30    5.00
   2  -8  12   20.80    5.20
   3  -8  12   40.30    7.10
  -5  -7  12    1.50    4.80
  -5  -7  12    4.60    6.90
  -4  -7  12    5.60    5.30
  -4  -7  12    7.60    6.10
  -3  -7  12   -1.10    3.90
  -3  -7  12    1.80    5.30
  -2  -7  12  191.18   13.10
  -2  -7  12  223.38   13.90
  -1  -7  12   11.80    4.30
  -1  -7  12   13.60    4.40
   0  -7  12  284.17   16.30
   0  -7  12  330.27   16.70
   0  -7  12  302.07   17.80
   2  -7  12   48.40    6.80
   3  -7  12    5.10    4.50
  -5  -6  12   47.90    7.20
  -5  -6  12   63.09   10.10
  -4  -6  12    4.00    4.40
  -4  -6  12   -0.80    5.30
  -3  -6  12   27.30    6.10
  -3  -6  12   22.30    5.00
  -2  -6  12  102.79    8.80
  -2  -6  12  115.89    9.20
  -1  -6  12   40.30    6.00
  -1  -6  12   35.60    5.10
   0  -6  12   12.80    4.30
   0  -6  12   12.90    3.60
   0  -6  12    7.30    2.90
   1  -6  12   63.69    7.40
   2  -6  12   -1.60    4.10
   3  -6  12   29.00    6.00
  -6  -5  12   13.10    7.70
  -6  -5  12   -0.30    5.30
  -5  -5  12   38.30    6.10
  -4  -5  12   11.00    4.50
  -4  -5  12    3.10    5.10
  -3  -5  12    4.30    4.10
  -3  -5  12    7.30    5.10
  -2  -5  12   29.90    5.10
  -2  -5  12   29.80    5.50
  -1  -5  12   15.60    7.10
  -1  -5  12   18.90    4.50
  -1  -5  12   17.10    4.00
   0  -5  12    1.40    2.80
   0  -5  12    0.40    2.50
   0  -5  12   -0.60    3.40
   1  -5  12    6.60    4.00
   2  -5  12    7.20    4.10
   3  -5  12   19.60    5.50
  -6  -4  12   -3.70    4.50
  -6  -4  12   -2.80    6.50
  -5  -4  12   37.30    6.00
  -5  -4  12   32.60    8.90
  -4  -4  12    6.30    4.80
  -4  -4  12    4.50    4.00
  -3  -4  12   10.90    4.80
  -3  -4  12    9.90    4.30
  -2  -4  12   62.69    6.90
  -2  -4  12   48.80    6.20
  -1  -4  12   50.39    6.10
  -1  -4  12   42.80    5.70
   0  -4  12    5.90    3.90
   0  -4  12    1.80    2.80
   0  -4  12    2.90    2.70
   1  -4  12   19.80    5.20
   2  -4  12   20.10    5.40
   3  -4  12   19.40    5.40
  -6  -3  12    0.60    4.50
  -6  -3  12   -0.50    6.00
  -5  -3  12    4.80    5.80
  -5  -3  12   15.30    4.50
  -4  -3  12   23.70    6.00
  -4  -3  12   24.30    5.10
  -3  -3  12   39.00    5.30
  -3  -3  12   29.90    5.80
  -2  -3  12   46.30    6.30
  -2  -3  12   40.90    5.40
  -1  -3  12   60.09    7.80
  -1  -3  12   58.89    6.60
  -1  -3  12   66.19    6.60
   0  -3  12  105.39    8.70
   0  -3  12  126.29    8.10
   0  -3  12  127.19    9.20
   1  -3  12   91.09    8.30
   2  -3  12    1.20    4.00
  -6  -2  12    4.50    4.30
  -6  -2  12    0.60    5.80
  -5  -2  12    2.20    4.00
  -5  -2  12    3.00    5.90
  -4  -2  12  171.78   12.10
  -4  -2  12  153.78   10.60
  -3  -2  12   14.70    4.10
  -3  -2  12   19.20    5.40
  -2  -2  12  180.98   11.50
  -2  -2  12  181.58   11.80
  -1  -2  12   34.80    5.30
  -1  -2  12   33.80    5.10
   0  -2  12  134.89    8.70
   0  -2  12  115.79    8.70
   0  -2  12  140.89    9.80
   1  -2  12   36.30    5.80
   2  -2  12   42.90    6.60
  -6  -1  12    3.10    6.20
  -6  -1  12    7.90    4.20
  -5  -1  12   10.30    4.00
  -5  -1  12    1.20    6.00
  -4  -1  12   25.20    5.80
  -4  -1  12   20.80    4.20
  -3  -1  12   57.59    6.10
  -3  -1  12   61.29    7.40
  -2  -1  12   40.20    6.20
  -2  -1  12   32.80    5.20
  -1  -1  12   12.20    3.90
  -1  -1  12   16.50    4.20
   0  -1  12   30.60    5.40
   1  -1  12   70.19   11.60
   1  -1  12   57.69    5.70
   2  -1  12    8.70    4.60
  -6   0  12    4.60    4.50
  -6   0  12   15.60    6.90
   5   0 -12   33.60    6.70
  -5   0  12   96.39   11.70
  -5   0  12   61.89    6.10
  -4   0  12   24.60    5.50
  -4   0  12   15.90    3.60
  -3   0  12   10.60    5.00
  -3   0  12    5.70    3.60
  -2   0  12    2.00    3.50
  -2   0  12    6.30    4.20
  -1   0  12   26.20    5.10
  -1   0  12   17.30    4.30
   0   0  12    8.80    4.00
   0   0  12    7.70    3.80
   1   0  12    5.40    5.10
   1   0  12    4.90    3.30
  -6   1  12   15.20    6.60
  -5   1  12   35.80    8.80
   4  -1 -12   -0.80    4.30
  -4   1  12   -1.20    3.60
  -4   1  12    4.10    4.90
  -3   1  12   65.39    7.80
  -3   1  12   63.59    6.20
  -2   1  12    2.20    4.00
  -2   1  12   -1.70    3.20
  -1   1  12   61.39    6.80
  -1   1  12   65.39    7.00
   0   1  12    1.50    3.60
   0   1  12    1.80    3.80
   1   1  12   16.80    4.20
   1   1  12   23.90    5.30
  -6   2  12    3.70    6.30
  -5   2  12    2.80    5.60
  -4   2  12  109.69   10.90
  -3   2  12    4.30    4.60
  -3   2  12    6.60    3.30
  -2   2  12   15.80    4.10
  -2   2  12   13.10    4.60
  -1   2  12    9.00    4.40
  -1   2  12   11.60    4.10
   0   2  12   35.80    5.60
   0   2  12   38.90    5.80
  -5   3  12    4.00    6.00
  -4   3  12   13.90    5.90
  -3   3  12   12.40    3.50
  -3   3  12   10.80    5.70
  -2   3  12   28.70    5.60
  -2   3  12   25.40    4.30
  -1   3  12   39.50    6.40
  -1   3  12   33.10    5.10
  -4   4  12    4.20    5.20
  -3   4  12   26.10    6.00
  -3   4  12   19.60    3.50
  -1 -10  13   -0.30    4.30
  -1 -10  13    3.50    5.20
   0 -10  13   35.90    6.00
   0 -10  13   27.40    6.00
  -3  -9  13   30.50    8.00
  -3  -9  13   17.10    5.40
  -2  -9  13   28.40    7.10
  -2  -9  13   19.60    5.30
  -1  -9  13    4.90    4.30
  -1  -9  13    7.10    4.90
   0  -9  13   11.40    4.90
   0  -9  13    9.60    3.80
   0  -9  13   15.50    4.30
   1  -9  13   49.30    7.40
  -3  -8  13   -1.70    5.50
  -3  -8  13    3.80    4.60
  -2  -8  13    6.00    5.00
  -2  -8  13    3.30    4.10
  -1  -8  13   35.30    6.10
  -1  -8  13   40.10    6.10
   0  -8  13    0.90    3.70
   1  -8  13   44.80    6.80
  -4  -7  13   21.70    5.90
  -3  -7  13    3.80    4.90
  -3  -7  13   10.70    5.80
  -2  -7  13   58.49    7.70
  -1  -7  13   57.39    8.70
  -1  -7  13   78.19    7.30
   0  -7  13    1.70    3.90
   1  -7  13   31.40    5.90
   2  -7  13    4.50    4.60
  -4  -6  13  100.39   10.30
  -4  -6  13   94.99   10.90
  -3  -6  13    1.50    4.80
  -3  -6  13    3.20    4.40
  -2  -6  13   57.89    7.40
  -2  -6  13   51.69    6.80
  -1  -6  13    3.50    3.80
  -1  -6  13    2.00    4.10
   0  -6  13   31.80    6.20
   1  -6  13   13.30    4.80
   2  -6  13   67.59    7.90
  -5  -5  13    8.70    6.40
  -5  -5  13    1.30    4.90
  -4  -5  13   45.70    7.60
  -4  -5  13   48.00    6.80
  -3  -5  13   15.40    5.20
  -3  -5  13    7.40    4.60
  -2  -5  13    0.40    4.20
  -2  -5  13   -2.00    3.80
  -1  -5  13   -2.50    3.30
  -1  -5  13   -0.90    3.40
   1  -5  13   63.19    7.90
   2  -5  13   -3.20    4.10
  -5  -4  13    8.40    4.90
  -5  -4  13   14.00    6.70
  -4  -4  13    4.20    5.20
  -4  -4  13    5.90    4.60
  -3  -4  13   20.50    5.10
  -3  -4  13   20.00    5.50
  -2  -4  13   -3.60    3.50
  -2  -4  13   -0.40    3.90
  -1  -4  13   54.69    6.20
  -1  -4  13   49.99    6.50
   0  -4  13   16.30    5.70
   0  -4  13   13.90    3.70
   1  -4  13   11.60    4.70
  -5  -3  13   28.20    7.80
  -5  -3  13   23.30    5.40
  -4  -3  13   24.30    5.20
  -4  -3  13   24.20    6.60
  -3  -3  13    3.10    4.00
  -3  -3  13    2.00    4.50
  -2  -3  13    4.90    4.00
  -2  -3  13    4.70    4.30
  -1  -3  13   63.79    6.60
  -1  -3  13   69.79    7.30
   0  -3  13   10.40    3.80
   0  -3  13   12.50    3.90
   0  -3  13   15.70    4.90
   1  -3  13   23.30    5.80
  -5  -2  13   20.70    6.50
  -5  -2  13   27.80    5.20
  -4  -2  13   19.50    4.40
  -4  -2  13   14.00    6.10
  -3  -2  13   14.20    4.20
  -3  -2  13   10.40    4.90
  -2  -2  13   26.00    5.10
  -2  -2  13   14.80    4.40
  -1  -2  13   54.19    6.40
  -1  -2  13   66.69    7.10
   0  -2  13   43.20    7.40
   0  -2  13   23.80    5.20
   1  -2  13   58.49    7.60
  -5  -1  13    4.10    3.90
  -5  -1  13   11.00    6.30
  -4  -1  13   41.90    5.50
  -4  -1  13   70.49    8.50
  -3  -1  13    8.20    3.90
  -2  -1  13    1.20    3.90
  -2  -1  13    1.70    3.70
  -1  -1  13   32.60    5.40
  -1  -1  13   28.90    5.50
   0  -1  13   53.19    6.30
  -5   0  13   17.10    4.00
  -5   0  13   26.00    7.20
  -4   0  13   19.40    4.40
  -4   0  13   21.20    6.50
  -3   0  13    5.40    5.00
  -3   0  13    5.40    3.70
  -2   0  13   11.50    4.70
  -2   0  13   17.10    4.60
  -1   0  13   19.80    4.70
  -1   0  13   16.30    4.70
   0   0  13    3.30    6.90
   0   0  13    2.40    3.80
  -5   1  13    6.50    6.10
  -4   1  13   18.90    4.00
  -4   1  13   34.60    8.40
  -3   1  13   14.60    4.10
  -3   1  13   16.80    5.40
  -2   1  13   14.20    4.20
  -2   1  13   14.00    4.80
  -1   1  13    4.50    4.20
  -1   1  13    3.90    4.10
  -4   2  13    8.80    5.70
  -3   2  13   11.50    4.00
  -2   2  13   -0.90    3.50
  -2   2  13   -1.50    4.10
  -1  -8  14   22.90    5.10
  -1  -8  14   22.00    5.70
  -3  -7  14   26.40    6.60
  -3  -7  14   22.30    5.80
  -2  -7  14    1.30    4.50
  -2  -7  14    3.40    4.70
  -1  -7  14   51.79    6.80
  -1  -7  14   54.99    7.40
   0  -7  14    3.60    4.10
  -3  -6  14   19.50    5.60
  -3  -6  14   16.10    5.70
  -2  -6  14   -1.90    4.30
  -2  -6  14   -1.60    4.10
  -1  -6  14   11.30    4.80
  -1  -6  14   20.00    4.70
   0  -6  14   10.40    4.90
  -3  -5  14    4.30    7.80
  -3  -5  14   -1.90    4.70
  -2  -5  14   18.70    5.10
  -2  -5  14   13.90    7.80
  -1  -5  14   -0.20    3.80
  -1  -5  14    2.20    3.70
   0  -5  14   49.40    7.10
  -4  -4  14    1.60    4.80
  -4  -4  14   -4.00   10.50
  -3  -4  14    1.30    4.90
  -3  -4  14    2.70    4.20
  -2  -4  14    2.10    4.20
  -2  -4  14    4.40    4.20
  -1  -4  14   52.89    7.40
  -1  -4  14   55.49    6.50
   0  -4  14   14.60    5.40
  -4  -3  14   12.20    4.80
  -4  -3  14   14.70   11.80
  -3  -3  14   10.40    4.80
  -3  -3  14   10.20    5.30
  -2  -3  14    0.00    3.90
  -2  -3  14    1.90    4.30
  -1  -3  14   17.50    6.60
  -1  -3  14   27.60    5.10
  -4  -2  14   17.70    5.00
  -3  -2  14   18.40    4.70
  -3  -2  14   14.30    5.40
  -2  -2  14   -2.40    3.90
  -2  -2  14    0.20    4.20
  -1  -2  14    5.20    4.30
  -1  -2  14    6.50    8.00
  -3  -1  14    2.10    4.00
  -3  -1  14    6.10    5.00
  -2  -1  14    5.00    4.40
  -2  -1  14    5.50    4.40
   0   0   0    0.00    0.00

_computing_structure_solution     'SHELXT 2018/2 (Sheldrick, 2018)'
;
_shelx_hkl_checksum   88119

