 
data_pvl1217_sq

_audit_creation_method           SHELXL-2018/3
_shelx_SHELXL_version_number     2018/3
_chemical_name_systematic        ?
_chemical_name_common            ?
_chemical_melting_point          ?
_chemical_formula_moiety         ?
_chemical_formula_sum            'C24 H14 N8 O6 S2 Zn'
_chemical_formula_weight         639.92

loop_
_atom_type_symbol
_atom_type_description
_atom_type_scat_dispersion_real
_atom_type_scat_dispersion_imag
_atom_type_scat_source
C C 0.0033 0.0016 'International Tables Vol C Tables 4.2.6.8 and 6.1.1.4'
H H 0.0000 0.0000 'International Tables Vol C Tables 4.2.6.8 and 6.1.1.4'
N N 0.0061 0.0033 'International Tables Vol C Tables 4.2.6.8 and 6.1.1.4'
O O 0.0106 0.0060 'International Tables Vol C Tables 4.2.6.8 and 6.1.1.4'
S S 0.1246 0.1234 'International Tables Vol C Tables 4.2.6.8 and 6.1.1.4'
Zn Zn 0.2839 1.4301 'International Tables Vol C Tables 4.2.6.8 and 6.1.1.4'

_space_group_crystal_system      triclinic
_space_group_IT_number           2
_space_group_name_H-M_alt        'P -1'
_space_group_name_Hall           '-P 1'

_shelx_space_group_comment       
;
The symmetry employed for this shelxl refinement is uniquely defined
by the following loop, which should always be used as a source of
symmetry information in preference to the above space-group names.
They are only intended as comments.
;

loop_
_space_group_symop_operation_xyz
'x, y, z'
'-x, -y, -z'

_cell_length_a                   11.0215(4)
_cell_length_b                   12.3323(3)
_cell_length_c                   12.7843(3)
_cell_angle_alpha                67.307(2)
_cell_angle_beta                 76.105(3)
_cell_angle_gamma                84.644(2)
_cell_volume                     1556.22(8)
_cell_formula_units_Z            2
_cell_measurement_temperature    289(2)
_cell_measurement_reflns_used   6656
_cell_measurement_theta_min     2.6030
_cell_measurement_theta_max     27.4560

_exptl_crystal_description       block
_exptl_crystal_colour            green
_exptl_crystal_density_meas      ?
_exptl_crystal_density_method    ?
_exptl_crystal_density_diffrn    1.366
_exptl_crystal_F_000             648
_exptl_transmission_factor_min   ?
_exptl_transmission_factor_max   ?
_exptl_crystal_size_max          0.150
_exptl_crystal_size_mid          0.100
_exptl_crystal_size_min          0.100
_exptl_absorpt_coefficient_mu    0.972
_shelx_estimated_absorpt_T_min   ?
_shelx_estimated_absorpt_T_max   ?
_exptl_absorpt_correction_type   multi-scan
_exptl_absorpt_correction_T_min                   0.96809
_exptl_absorpt_correction_T_max                   1.00000
_exptl_absorpt_process_details   
;
CrysAlisPro 1.171.41.123a (Rigaku Oxford Diffraction, 2022)
Empirical absorption correction using spherical harmonics,
implemented in SCALE3 ABSPACK scaling algorithm.
;
_exptl_absorpt_special_details   ?
_diffrn_ambient_temperature      289(2)
_diffrn_radiation_wavelength     0.71073
_diffrn_radiation_type           MoK\a
_diffrn_source                   'sealed X-ray tube'
_diffrn_measurement_device_type  'New Xcalibur, AtlasS2'
_diffrn_measurement_method       '\w scans'
_diffrn_detector_area_resol_mean 10.6
_diffrn_reflns_number            13378
_diffrn_reflns_av_unetI/netI     0.0430
_diffrn_reflns_av_R_equivalents  0.0249
_diffrn_reflns_limit_h_min       -15
_diffrn_reflns_limit_h_max       14
_diffrn_reflns_limit_k_min       -16
_diffrn_reflns_limit_k_max       16
_diffrn_reflns_limit_l_min       -13
_diffrn_reflns_limit_l_max       17
_diffrn_reflns_theta_min         1.903
_diffrn_reflns_theta_max         28.984
_diffrn_reflns_theta_full        25.242
_diffrn_measured_fraction_theta_max 0.831
_diffrn_measured_fraction_theta_full 0.999
_diffrn_reflns_Laue_measured_fraction_max 0.831
_diffrn_reflns_Laue_measured_fraction_full 0.999
_diffrn_reflns_point_group_measured_fraction_max 0.831
_diffrn_reflns_point_group_measured_fraction_full 0.999
_reflns_number_total             6869
_reflns_number_gt                5720
_reflns_threshold_expression     'I > 2\s(I)'
_reflns_Friedel_coverage         0.000
_reflns_Friedel_fraction_max     .
_reflns_Friedel_fraction_full    .

_reflns_special_details          
;
 Reflections were merged by SHELXL according to the crystal
 class for the calculation of statistics and refinement.
 
 Structure factors included contributions from the .fab file.
 
 _reflns_Friedel_fraction is defined as the number of unique
 Friedel pairs measured divided by the number that would be
 possible theoretically, ignoring centric projections and
 systematic absences.
;
_computing_data_collection       'CrysAlisPro 1.171.39.46 (Rigaku OD, 2018)'
_computing_cell_refinement       'CrysAlisPro 1.171.39.46 (Rigaku OD, 2018)'
_computing_data_reduction        'CrysAlisPro 1.171.39.46 (Rigaku OD, 2018)'
_computing_structure_solution    'SHELXT 2018/2 (Sheldrick, 2018)'
_computing_structure_refinement  'SHELXL-2018/3 (Sheldrick, 2018)'
_computing_molecular_graphics    ?
_computing_publication_material  ?
_refine_special_details          ?
_refine_ls_structure_factor_coef Fsqd
_refine_ls_matrix_type           full
_refine_ls_weighting_scheme      calc
_refine_ls_weighting_details     
'w=1/[\s^2^(Fo^2^)+(0.0354P)^2^+0.0334P] where P=(Fo^2^+2Fc^2^)/3'
_atom_sites_solution_primary     ?
_atom_sites_solution_secondary   ?
_atom_sites_solution_hydrogens   geom
_refine_ls_hydrogen_treatment    constr
_refine_ls_extinction_method     none
_refine_ls_extinction_coef       .
_refine_ls_number_reflns         6869
_refine_ls_number_parameters     370
_refine_ls_number_restraints     24
_refine_ls_R_factor_all          0.0427
_refine_ls_R_factor_gt           0.0332
_refine_ls_wR_factor_ref         0.0812
_refine_ls_wR_factor_gt          0.0765
_refine_ls_goodness_of_fit_ref   1.016
_refine_ls_restrained_S_all      1.030
_refine_ls_shift/su_max          0.001
_refine_ls_shift/su_mean         0.000

loop_
_atom_site_label
_atom_site_type_symbol
_atom_site_fract_x
_atom_site_fract_y
_atom_site_fract_z
_atom_site_U_iso_or_equiv
_atom_site_adp_type
_atom_site_occupancy
_atom_site_site_symmetry_order
_atom_site_calc_flag
_atom_site_refinement_flags_posn
_atom_site_refinement_flags_adp
_atom_site_refinement_flags_occupancy
_atom_site_disorder_assembly
_atom_site_disorder_group
Zn1 Zn 0.38367(2) 0.92849(2) 0.05001(2) 0.03232(8) Uani 1 1 d . . . . .
S1 S 0.36203(6) 0.42101(5) -0.07041(6) 0.05854(17) Uani 1 1 d . . . . .
S2 S 0.78423(7) 0.57963(5) 0.59173(5) 0.0662(2) Uani 1 1 d . U . . .
O1 O 0.48559(13) 0.87785(13) 0.91698(13) 0.0551(4) Uani 1 1 d . . . . .
O5 O 0.50208(13) 0.82942(12) 0.14823(14) 0.0554(4) Uani 1 1 d . . . . .
O6 O 0.67799(12) 0.93455(11) 0.07629(12) 0.0446(3) Uani 1 1 d . . . . .
N1 N 0.25139(13) 0.80647(12) 0.09991(14) 0.0351(3) Uani 1 1 d . . . . .
N2 N 0.06390(15) 0.72226(14) 0.15140(19) 0.0572(5) Uani 1 1 d . . . . .
N3 N 0.15532(13) 0.65238(12) 0.11901(13) 0.0328(3) Uani 1 1 d . . . . .
N4 N -0.02394(19) 0.05445(15) 0.1198(2) 0.0652(6) Uani 1 1 d . . . . .
N5 N -0.13288(17) 0.20915(15) 0.14608(18) 0.0569(5) Uani 1 1 d . . . . .
N6 N -0.00759(15) 0.23162(13) 0.11393(16) 0.0425(4) Uani 1 1 d . . . . .
N7 N 0.31637(15) 0.51741(13) -0.01204(16) 0.0462(4) Uani 1 1 d . . . . .
N8 N 0.24229(16) 0.33594(13) -0.01793(15) 0.0464(4) Uani 1 1 d . . . . .
C1 C 0.59212(19) 0.89997(17) 0.85301(17) 0.0406(5) Uani 1 1 d . . . . .
O2 O 0.66446(13) 0.97766(12) 0.84428(12) 0.0492(4) Uani 1 1 d . . . . .
O3 O 0.7167(2) 0.47161(13) 0.65600(15) 0.0955(7) Uani 1 1 d . U . . .
O4 O 0.91869(19) 0.58047(17) 0.56948(16) 0.0897(7) Uani 1 1 d . U . . .
C2 C 0.63812(18) 0.82537(16) 0.78160(16) 0.0392(4) Uani 1 1 d . . . . .
C3 C 0.75736(19) 0.83926(18) 0.71257(18) 0.0475(5) Uani 1 1 d . . . . .
H3 H 0.808012 0.898939 0.705767 0.057 Uiso 1 1 calc R U . . .
C4 C 0.8026(2) 0.7654(2) 0.65322(19) 0.0529(6) Uani 1 1 d . . . . .
H4 H 0.882993 0.775057 0.606725 0.063 Uiso 1 1 calc R U . . .
C5 C 0.7267(2) 0.67752(18) 0.66422(17) 0.0493(5) Uani 1 1 d . U . . .
C6 C 0.6063(2) 0.6648(2) 0.7297(2) 0.0626(6) Uani 1 1 d . . . . .
H6 H 0.554797 0.606744 0.734228 0.075 Uiso 1 1 calc R U . . .
C7 C 0.5621(2) 0.73903(19) 0.7888(2) 0.0572(6) Uani 1 1 d . . . . .
H7 H 0.480866 0.730537 0.833504 0.069 Uiso 1 1 calc R U . . .
C8 C 0.7379(2) 0.64867(17) 0.45761(18) 0.0475(5) Uani 1 1 d . U . . .
C9 C 0.8182(2) 0.7245(2) 0.36404(19) 0.0551(6) Uani 1 1 d . . . . .
H9 H 0.899340 0.733697 0.368720 0.066 Uiso 1 1 calc R U . . .
C10 C 0.77841(18) 0.78766(18) 0.26235(18) 0.0458(5) Uani 1 1 d . . . . .
H10 H 0.832647 0.839495 0.198665 0.055 Uiso 1 1 calc R U . . .
C11 C 0.65820(17) 0.77354(15) 0.25568(16) 0.0358(4) Uani 1 1 d . . . . .
C12 C 0.5799(2) 0.69296(19) 0.3493(2) 0.0565(6) Uani 1 1 d . . . . .
H12 H 0.500163 0.680886 0.343467 0.068 Uiso 1 1 calc R U . . .
C13 C 0.6185(3) 0.63010(19) 0.4513(2) 0.0623(6) Uani 1 1 d . . . . .
H13 H 0.565394 0.576460 0.514400 0.075 Uiso 1 1 calc R U . . .
C14 C 0.61029(18) 0.85135(16) 0.15099(17) 0.0366(4) Uani 1 1 d . . . . .
C15 C 0.12695(19) 0.81289(17) 0.1383(2) 0.0545(6) Uani 1 1 d . . . . .
H15 H 0.088845 0.876997 0.154353 0.065 Uiso 1 1 calc R U . . .
C16 C 0.26522(16) 0.70360(15) 0.08928(17) 0.0349(4) Uani 1 1 d . . . . .
H16 H 0.341262 0.671709 0.064454 0.042 Uiso 1 1 calc R U . . .
C17 C 0.11991(16) 0.54458(14) 0.11847(16) 0.0323(4) Uani 1 1 d . . . . .
C18 C 0.20030(16) 0.48530(15) 0.05296(16) 0.0339(4) Uani 1 1 d . . . . .
C19 C 0.15824(17) 0.38028(15) 0.05009(17) 0.0353(4) Uani 1 1 d . . . . .
C20 C 0.03675(18) 0.33639(15) 0.11287(17) 0.0372(4) Uani 1 1 d . . . . .
C21 C -0.03724(17) 0.39613(15) 0.17402(18) 0.0407(5) Uani 1 1 d . . . . .
H21 H -0.117031 0.368025 0.215317 0.049 Uiso 1 1 calc R U . . .
C22 C 0.00430(17) 0.50005(15) 0.17629(17) 0.0390(4) Uani 1 1 d . . . . .
H22 H -0.049174 0.538955 0.218627 0.047 Uiso 1 1 calc R U . . .
C23 C 0.0540(2) 0.13824(17) 0.0980(2) 0.0554(6) Uani 1 1 d . . . . .
H23 H 0.140355 0.133650 0.074539 0.067 Uiso 1 1 calc R U . . .
C24 C -0.1359(2) 0.10258(19) 0.1473(2) 0.0633(7) Uani 1 1 d . . . . .
H24 H -0.210494 0.062776 0.166081 0.076 Uiso 1 1 calc R U . . .

loop_
_atom_site_aniso_label
_atom_site_aniso_U_11
_atom_site_aniso_U_22
_atom_site_aniso_U_33
_atom_site_aniso_U_23
_atom_site_aniso_U_13
_atom_site_aniso_U_12
Zn1 0.03463(13) 0.02959(12) 0.03466(14) -0.01293(10) -0.00742(9) -0.00616(9)
S1 0.0599(4) 0.0487(3) 0.0622(4) -0.0293(3) 0.0124(3) -0.0077(3)
S2 0.1182(6) 0.0519(3) 0.0380(3) -0.0252(3) -0.0343(3) 0.0352(4)
O1 0.0502(9) 0.0630(9) 0.0599(10) -0.0396(9) 0.0027(8) -0.0038(7)
O5 0.0521(9) 0.0462(8) 0.0657(11) -0.0076(8) -0.0298(8) -0.0054(7)
O6 0.0496(8) 0.0397(7) 0.0395(8) -0.0068(7) -0.0138(7) -0.0018(6)
N1 0.0357(8) 0.0308(8) 0.0409(10) -0.0150(7) -0.0088(7) -0.0031(6)
N2 0.0360(9) 0.0405(9) 0.0981(16) -0.0401(11) 0.0050(9) -0.0044(8)
N3 0.0309(8) 0.0268(7) 0.0414(9) -0.0145(7) -0.0060(7) -0.0015(6)
N4 0.0735(14) 0.0365(10) 0.0982(17) -0.0324(11) -0.0280(12) -0.0049(9)
N5 0.0517(11) 0.0442(10) 0.0813(15) -0.0276(10) -0.0164(10) -0.0086(8)
N6 0.0465(10) 0.0311(8) 0.0556(11) -0.0172(8) -0.0184(8) -0.0041(7)
N7 0.0456(10) 0.0355(9) 0.0532(11) -0.0175(8) -0.0003(8) -0.0035(7)
N8 0.0564(10) 0.0384(9) 0.0470(11) -0.0217(8) -0.0065(8) 0.0001(8)
C1 0.0496(12) 0.0411(11) 0.0352(11) -0.0178(9) -0.0122(10) 0.0028(9)
O2 0.0605(9) 0.0497(8) 0.0445(9) -0.0268(7) -0.0068(7) -0.0069(7)
O3 0.204(2) 0.0394(9) 0.0463(11) -0.0140(8) -0.0456(13) 0.0210(12)
O4 0.1087(15) 0.1189(15) 0.0651(12) -0.0581(12) -0.0512(11) 0.0754(13)
C2 0.0471(11) 0.0413(10) 0.0318(11) -0.0166(9) -0.0085(9) -0.0010(9)
C3 0.0504(12) 0.0549(12) 0.0422(13) -0.0244(11) -0.0076(10) -0.0038(10)
C4 0.0508(12) 0.0697(14) 0.0414(13) -0.0278(12) -0.0083(10) 0.0098(11)
C5 0.0773(15) 0.0427(11) 0.0301(11) -0.0160(10) -0.0163(11) 0.0111(11)
C6 0.0881(18) 0.0543(13) 0.0517(15) -0.0309(12) -0.0004(13) -0.0206(13)
C7 0.0625(14) 0.0630(14) 0.0504(14) -0.0332(12) 0.0055(11) -0.0152(11)
C8 0.0730(15) 0.0416(11) 0.0312(11) -0.0176(10) -0.0168(11) 0.0152(11)
C9 0.0479(12) 0.0780(15) 0.0392(13) -0.0215(12) -0.0162(10) 0.0149(11)
C10 0.0432(11) 0.0545(12) 0.0338(12) -0.0125(10) -0.0064(9) 0.0033(10)
C11 0.0434(10) 0.0331(9) 0.0328(11) -0.0145(9) -0.0092(8) 0.0017(8)
C12 0.0626(14) 0.0561(13) 0.0472(15) -0.0089(12) -0.0176(12) -0.0152(11)
C13 0.0885(19) 0.0498(13) 0.0388(14) -0.0027(11) -0.0123(13) -0.0193(12)
C14 0.0440(11) 0.0324(10) 0.0372(11) -0.0152(9) -0.0139(9) 0.0039(8)
C15 0.0426(12) 0.0373(11) 0.0864(18) -0.0353(12) 0.0033(11) -0.0070(9)
C16 0.0313(9) 0.0313(9) 0.0448(12) -0.0169(9) -0.0086(8) -0.0004(7)
C17 0.0365(10) 0.0246(8) 0.0371(11) -0.0109(8) -0.0110(8) -0.0021(7)
C18 0.0378(10) 0.0284(9) 0.0339(11) -0.0091(8) -0.0091(8) -0.0011(8)
C19 0.0448(11) 0.0263(9) 0.0357(11) -0.0102(8) -0.0132(9) 0.0005(8)
C20 0.0447(11) 0.0279(9) 0.0430(12) -0.0126(9) -0.0180(9) -0.0006(8)
C21 0.0365(10) 0.0360(10) 0.0507(13) -0.0171(10) -0.0072(9) -0.0073(8)
C22 0.0392(10) 0.0334(10) 0.0471(12) -0.0189(9) -0.0072(9) -0.0017(8)
C23 0.0561(13) 0.0409(11) 0.0829(18) -0.0343(12) -0.0232(13) 0.0041(10)
C24 0.0673(16) 0.0445(12) 0.086(2) -0.0272(13) -0.0228(14) -0.0131(11)

_geom_special_details            
;
 All esds (except the esd in the dihedral angle between two l.s. planes)
 are estimated using the full covariance matrix.  The cell esds are taken
 into account individually in the estimation of esds in distances, angles
 and torsion angles; correlations between esds in cell parameters are only
 used when they are defined by crystal symmetry.  An approximate (isotropic)
 treatment of cell esds is used for estimating esds involving l.s. planes.
;

loop_
_geom_bond_atom_site_label_1
_geom_bond_atom_site_label_2
_geom_bond_distance
_geom_bond_site_symmetry_2
_geom_bond_publ_flag
Zn1 N1 2.0047(14) . ?
Zn1 O5 2.0194(13) . ?
Zn1 O6 2.0323(13) 2_675 ?
Zn1 O2 2.0482(12) 2_676 ?
Zn1 O1 2.0774(13) 1_554 ?
Zn1 Zn1 2.9750(4) 2_675 ?
S1 N8 1.6071(18) . ?
S1 N7 1.6173(16) . ?
S2 O3 1.432(2) . ?
S2 O4 1.441(2) . ?
S2 C8 1.771(2) . ?
S2 C5 1.7768(18) . ?
O1 C1 1.244(2) . ?
O5 C14 1.259(2) . ?
O6 C14 1.251(2) . ?
N1 C16 1.318(2) . ?
N1 C15 1.347(2) . ?
N2 C15 1.306(2) . ?
N2 N3 1.357(2) . ?
N3 C16 1.322(2) . ?
N3 C17 1.4230(19) . ?
N4 C23 1.308(3) . ?
N4 C24 1.347(3) . ?
N5 C24 1.312(2) . ?
N5 N6 1.365(2) . ?
N6 C23 1.341(2) . ?
N6 C20 1.418(2) . ?
N7 C18 1.347(2) . ?
N8 C19 1.341(2) . ?
C1 O2 1.258(2) . ?
C1 C2 1.509(2) . ?
C2 C7 1.378(3) . ?
C2 C3 1.380(3) . ?
C3 C4 1.386(3) . ?
C3 H3 0.9300 . ?
C4 C5 1.374(3) . ?
C4 H4 0.9300 . ?
C5 C6 1.375(3) . ?
C6 C7 1.386(3) . ?
C6 H6 0.9300 . ?
C7 H7 0.9300 . ?
C8 C9 1.368(3) . ?
C8 C13 1.383(3) . ?
C9 C10 1.385(3) . ?
C9 H9 0.9300 . ?
C10 C11 1.379(3) . ?
C10 H10 0.9300 . ?
C11 C12 1.382(3) . ?
C11 C14 1.498(3) . ?
C12 C13 1.382(3) . ?
C12 H12 0.9300 . ?
C13 H13 0.9300 . ?
C15 H15 0.9300 . ?
C16 H16 0.9300 . ?
C17 C22 1.355(3) . ?
C17 C18 1.420(2) . ?
C18 C19 1.432(2) . ?
C19 C20 1.419(3) . ?
C20 C21 1.358(3) . ?
C21 C22 1.413(2) . ?
C21 H21 0.9300 . ?
C22 H22 0.9300 . ?
C23 H23 0.9300 . ?
C24 H24 0.9300 . ?

loop_
_geom_angle_atom_site_label_1
_geom_angle_atom_site_label_2
_geom_angle_atom_site_label_3
_geom_angle
_geom_angle_site_symmetry_1
_geom_angle_site_symmetry_3
_geom_angle_publ_flag
N1 Zn1 O5 97.80(6) . . ?
N1 Zn1 O6 102.78(6) . 2_675 ?
O5 Zn1 O6 158.80(6) . 2_675 ?
N1 Zn1 O2 107.62(6) . 2_676 ?
O5 Zn1 O2 90.29(6) . 2_676 ?
O6 Zn1 O2 88.33(5) 2_675 2_676 ?
N1 Zn1 O1 93.50(6) . 1_554 ?
O5 Zn1 O1 87.34(6) . 1_554 ?
O6 Zn1 O1 86.37(6) 2_675 1_554 ?
O2 Zn1 O1 158.87(6) 2_676 1_554 ?
N1 Zn1 Zn1 166.18(4) . 2_675 ?
O5 Zn1 Zn1 77.13(4) . 2_675 ?
O6 Zn1 Zn1 81.67(4) 2_675 2_675 ?
O2 Zn1 Zn1 85.42(4) 2_676 2_675 ?
O1 Zn1 Zn1 73.57(4) 1_554 2_675 ?
N8 S1 N7 100.91(9) . . ?
O3 S2 O4 120.37(12) . . ?
O3 S2 C8 108.43(11) . . ?
O4 S2 C8 108.70(11) . . ?
O3 S2 C5 107.47(11) . . ?
O4 S2 C5 107.75(11) . . ?
C8 S2 C5 102.70(9) . . ?
C1 O1 Zn1 134.67(13) . 1_556 ?
C14 O5 Zn1 130.54(14) . . ?
C14 O6 Zn1 124.09(12) . 2_675 ?
C16 N1 C15 102.83(15) . . ?
C16 N1 Zn1 126.96(12) . . ?
C15 N1 Zn1 129.78(12) . . ?
C15 N2 N3 102.28(15) . . ?
C16 N3 N2 109.83(13) . . ?
C16 N3 C17 131.91(14) . . ?
N2 N3 C17 118.22(14) . . ?
C23 N4 C24 102.60(16) . . ?
C24 N5 N6 101.85(17) . . ?
C23 N6 N5 109.05(16) . . ?
C23 N6 C20 130.96(17) . . ?
N5 N6 C20 119.70(15) . . ?
C18 N7 S1 106.18(12) . . ?
C19 N8 S1 106.72(12) . . ?
O1 C1 O2 125.63(17) . . ?
O1 C1 C2 116.59(17) . . ?
O2 C1 C2 117.78(18) . . ?
C1 O2 Zn1 120.20(13) . 2_676 ?
C7 C2 C3 119.41(17) . . ?
C7 C2 C1 119.70(18) . . ?
C3 C2 C1 120.84(17) . . ?
C2 C3 C4 120.8(2) . . ?
C2 C3 H3 119.6 . . ?
C4 C3 H3 119.6 . . ?
C5 C4 C3 118.9(2) . . ?
C5 C4 H4 120.5 . . ?
C3 C4 H4 120.5 . . ?
C4 C5 C6 121.03(18) . . ?
C4 C5 S2 119.60(17) . . ?
C6 C5 S2 119.37(17) . . ?
C5 C6 C7 119.5(2) . . ?
C5 C6 H6 120.2 . . ?
C7 C6 H6 120.2 . . ?
C2 C7 C6 120.2(2) . . ?
C2 C7 H7 119.9 . . ?
C6 C7 H7 119.9 . . ?
C9 C8 C13 121.2(2) . . ?
C9 C8 S2 119.45(18) . . ?
C13 C8 S2 119.27(18) . . ?
C8 C9 C10 119.8(2) . . ?
C8 C9 H9 120.1 . . ?
C10 C9 H9 120.1 . . ?
C11 C10 C9 119.9(2) . . ?
C11 C10 H10 120.0 . . ?
C9 C10 H10 120.0 . . ?
C10 C11 C12 119.56(19) . . ?
C10 C11 C14 119.95(18) . . ?
C12 C11 C14 120.34(18) . . ?
C13 C12 C11 120.9(2) . . ?
C13 C12 H12 119.5 . . ?
C11 C12 H12 119.5 . . ?
C12 C13 C8 118.5(2) . . ?
C12 C13 H13 120.7 . . ?
C8 C13 H13 120.7 . . ?
O6 C14 O5 125.46(18) . . ?
O6 C14 C11 118.09(17) . . ?
O5 C14 C11 116.39(18) . . ?
N2 C15 N1 114.91(16) . . ?
N2 C15 H15 122.5 . . ?
N1 C15 H15 122.5 . . ?
N1 C16 N3 110.14(15) . . ?
N1 C16 H16 124.9 . . ?
N3 C16 H16 124.9 . . ?
C22 C17 C18 118.65(15) . . ?
C22 C17 N3 119.70(15) . . ?
C18 C17 N3 121.55(16) . . ?
N7 C18 C17 127.26(16) . . ?
N7 C18 C19 113.09(15) . . ?
C17 C18 C19 119.64(16) . . ?
N8 C19 C20 127.18(16) . . ?
N8 C19 C18 113.10(17) . . ?
C20 C19 C18 119.69(15) . . ?
C21 C20 N6 119.84(18) . . ?
C21 C20 C19 118.71(16) . . ?
N6 C20 C19 121.44(16) . . ?
C20 C21 C22 121.48(18) . . ?
C20 C21 H21 119.3 . . ?
C22 C21 H21 119.3 . . ?
C17 C22 C21 121.82(16) . . ?
C17 C22 H22 119.1 . . ?
C21 C22 H22 119.1 . . ?
N4 C23 N6 110.8(2) . . ?
N4 C23 H23 124.6 . . ?
N6 C23 H23 124.6 . . ?
N5 C24 N4 115.7(2) . . ?
N5 C24 H24 122.1 . . ?
N4 C24 H24 122.1 . . ?

_refine_diff_density_max         0.283
_refine_diff_density_min         -0.310
_refine_diff_density_rms         0.046

_shelx_res_file                  
;
TITL pvl1217_a.res in P-1
    pvl1217_sq.res
    created by SHELXL-2018/3 at 17:19:29 on 04-May-2023
REM Old TITL pvl1217_auto in P1
REM SHELXT solution in P-1: R1 0.192, Rweak 0.016, Alpha 0.045
REM <I/s>   0.000 for    0 systematic absences,  Orientation as input
REM Formula found by SHELXT:  C29 N8 O2 S Zn
CELL  0.71073  11.0215  12.3323  12.7843   67.307   76.105   84.644
ZERR   2   0.0004   0.0003   0.0003    0.002    0.003    0.002
LATT  1
SFAC C H N O S ZN
UNIT 48 28 16 12 4 2
OMIT 14 0 6
SIMU 0.01 0.01 2 C8 S2 C5 O3 O4
LIST 4
OMIT 0
BOND $H
TEMP 16
L.S. 5 0   54
BOND
FMAP 2
PLAN 20
ABIN
ACTA
WGHT    0.035400    0.033400
FVAR       0.43439
ZN1   6    0.383670    0.928490    0.050013    11.00000    0.03463    0.02959 =
         0.03466   -0.01293   -0.00742   -0.00616
S1    5    0.362026    0.421013   -0.070407    11.00000    0.05988    0.04869 =
         0.06220   -0.02927    0.01239   -0.00765
S2    5    0.784231    0.579626    0.591728    11.00000    0.11821    0.05192 =
         0.03800   -0.02520   -0.03430    0.03524
O1    4    0.485593    0.877848    0.916975    11.00000    0.05021    0.06304 =
         0.05986   -0.03959    0.00275   -0.00381
O5    4    0.502082    0.829415    0.148226    11.00000    0.05215    0.04620 =
         0.06570   -0.00764   -0.02978   -0.00535
O6    4    0.677989    0.934550    0.076289    11.00000    0.04965    0.03967 =
         0.03946   -0.00675   -0.01385   -0.00177

N1    3    0.251393    0.806470    0.099914    11.00000    0.03575    0.03077 =
         0.04093   -0.01503   -0.00881   -0.00310
N2    3    0.063896    0.722257    0.151404    11.00000    0.03603    0.04049 =
         0.09814   -0.04008    0.00502   -0.00438
N3    3    0.155321    0.652379    0.119014    11.00000    0.03085    0.02677 =
         0.04140   -0.01446   -0.00596   -0.00151
N4    3   -0.023944    0.054455    0.119786    11.00000    0.07346    0.03654 =
         0.09817   -0.03242   -0.02803   -0.00486
N5    3   -0.132881    0.209150    0.146077    11.00000    0.05170    0.04415 =
         0.08135   -0.02764   -0.01637   -0.00861
N6    3   -0.007593    0.231621    0.113932    11.00000    0.04649    0.03112 =
         0.05559   -0.01723   -0.01844   -0.00412
N7    3    0.316373    0.517412   -0.012043    11.00000    0.04556    0.03551 =
         0.05320   -0.01749   -0.00029   -0.00355
N8    3    0.242288    0.335936   -0.017929    11.00000    0.05640    0.03837 =
         0.04703   -0.02171   -0.00648    0.00009
C1    1    0.592122    0.899972    0.853014    11.00000    0.04959    0.04110 =
         0.03523   -0.01777   -0.01217    0.00279
O2    4    0.664465    0.977663    0.844283    11.00000    0.06047    0.04974 =
         0.04448   -0.02680   -0.00677   -0.00694
O3    4    0.716695    0.471611    0.656002    11.00000    0.20408    0.03938 =
         0.04630   -0.01398   -0.04562    0.02105
O4    4    0.918695    0.580473    0.569476    11.00000    0.10875    0.11885 =
         0.06515   -0.05814   -0.05121    0.07540
C2    1    0.638125    0.825369    0.781596    11.00000    0.04712    0.04131 =
         0.03175   -0.01663   -0.00846   -0.00098
C3    1    0.757357    0.839262    0.712570    11.00000    0.05044    0.05488 =
         0.04222   -0.02436   -0.00765   -0.00384
AFIX  43
H3    2    0.808012    0.898939    0.705767    11.00000   -1.20000
AFIX   0
C4    1    0.802587    0.765352    0.653221    11.00000    0.05079    0.06971 =
         0.04137   -0.02776   -0.00832    0.00976
AFIX  43
H4    2    0.882993    0.775057    0.606725    11.00000   -1.20000
AFIX   0
C5    1    0.726667    0.677518    0.664225    11.00000    0.07729    0.04270 =
         0.03012   -0.01604   -0.01632    0.01106
C6    1    0.606257    0.664772    0.729667    11.00000    0.08807    0.05428 =
         0.05173   -0.03092   -0.00038   -0.02058
AFIX  43
H6    2    0.554797    0.606744    0.734228    11.00000   -1.20000
AFIX   0
C7    1    0.562108    0.739029    0.788799    11.00000    0.06248    0.06304 =
         0.05037   -0.03315    0.00545   -0.01518
AFIX  43
H7    2    0.480866    0.730537    0.833504    11.00000   -1.20000
AFIX   0
C8    1    0.737924    0.648675    0.457610    11.00000    0.07296    0.04160 =
         0.03125   -0.01763   -0.01677    0.01522
C9    1    0.818244    0.724543    0.364045    11.00000    0.04790    0.07798 =
         0.03924   -0.02148   -0.01616    0.01494
AFIX  43
H9    2    0.899340    0.733697    0.368720    11.00000   -1.20000
AFIX   0
C10   1    0.778406    0.787664    0.262355    11.00000    0.04324    0.05450 =
         0.03382   -0.01248   -0.00637    0.00332
AFIX  43
H10   2    0.832647    0.839495    0.198665    11.00000   -1.20000
AFIX   0
C11   1    0.658201    0.773544    0.255680    11.00000    0.04341    0.03315 =
         0.03280   -0.01449   -0.00916    0.00167
C12   1    0.579933    0.692963    0.349266    11.00000    0.06264    0.05609 =
         0.04725   -0.00891   -0.01765   -0.01519
AFIX  43
H12   2    0.500163    0.680886    0.343467    11.00000   -1.20000
AFIX   0
C13   1    0.618544    0.630098    0.451320    11.00000    0.08848    0.04979 =
         0.03881   -0.00272   -0.01231   -0.01934
AFIX  43
H13   2    0.565394    0.576460    0.514400    11.00000   -1.20000
AFIX   0
C14   1    0.610286    0.851350    0.150986    11.00000    0.04402    0.03238 =
         0.03716   -0.01518   -0.01393    0.00393
C15   1    0.126952    0.812890    0.138342    11.00000    0.04263    0.03733 =
         0.08639   -0.03529    0.00335   -0.00696
AFIX  43
H15   2    0.088845    0.876997    0.154353    11.00000   -1.20000
AFIX   0
C16   1    0.265218    0.703604    0.089278    11.00000    0.03130    0.03130 =
         0.04476   -0.01693   -0.00860   -0.00043
AFIX  43
H16   2    0.341262    0.671709    0.064454    11.00000   -1.20000
AFIX   0
C17   1    0.119909    0.544581    0.118468    11.00000    0.03648    0.02459 =
         0.03713   -0.01088   -0.01096   -0.00207
C18   1    0.200299    0.485303    0.052960    11.00000    0.03785    0.02840 =
         0.03390   -0.00909   -0.00913   -0.00115
C19   1    0.158244    0.380282    0.050091    11.00000    0.04483    0.02632 =
         0.03566   -0.01015   -0.01321    0.00050
C20   1    0.036753    0.336386    0.112873    11.00000    0.04474    0.02791 =
         0.04304   -0.01262   -0.01798   -0.00056
C21   1   -0.037244    0.396131    0.174020    11.00000    0.03648    0.03595 =
         0.05068   -0.01714   -0.00717   -0.00725
AFIX  43
H21   2   -0.117031    0.368025    0.215317    11.00000   -1.20000
AFIX   0
C22   1    0.004304    0.500055    0.176286    11.00000    0.03921    0.03338 =
         0.04709   -0.01887   -0.00723   -0.00173
AFIX  43
H22   2   -0.049174    0.538955    0.218627    11.00000   -1.20000
AFIX   0
C23   1    0.053997    0.138237    0.097953    11.00000    0.05608    0.04090 =
         0.08289   -0.03427   -0.02319    0.00414
AFIX  43
H23   2    0.140355    0.133650    0.074539    11.00000   -1.20000
AFIX   0
C24   1   -0.135863    0.102576    0.147346    11.00000    0.06727    0.04451 =
         0.08631   -0.02721   -0.02280   -0.01306
AFIX  43
H24   2   -0.210494    0.062776    0.166081    11.00000   -1.20000
AFIX   0
HKLF 4




REM  pvl1217_a.res in P-1
REM wR2 = 0.0812, GooF = S = 1.016, Restrained GooF = 1.030 for all data
REM R1 = 0.0332 for 5720 Fo > 4sig(Fo) and 0.0427 for all 6869 data
REM 370 parameters refined using 24 restraints

END

WGHT      0.0368      0.0000

REM Highest difference peak  0.283,  deepest hole -0.310,  1-sigma level  0.046
Q1    1   0.0875  0.3756  0.0595  11.00000  0.05    0.28
Q2    1   0.8026  0.6017  0.5864  11.00000  0.05    0.27
Q3    1   0.7393  0.6397  0.6352  11.00000  0.05    0.25
Q4    1   0.8638  0.5479  0.6117  11.00000  0.05    0.25
Q5    1   0.1376  0.6012  0.1128  11.00000  0.05    0.25
Q6    1   0.2881  0.4091 -0.0709  11.00000  0.05    0.25
Q7    1   0.7911  0.8577  0.7166  11.00000  0.05    0.23
Q8    1   0.6992  0.7989  0.2673  11.00000  0.05    0.22
Q9    1   0.3543  0.4662 -0.0281  11.00000  0.05    0.22
Q10   1   0.1806  0.4251  0.0602  11.00000  0.05    0.22
Q11   1   0.0025  0.3580  0.1487  11.00000  0.05    0.22
Q12   1  -0.1028  0.0633  0.2145  11.00000  0.05    0.22
Q13   1  -0.1180  0.1989  0.2116  11.00000  0.05    0.21
Q14   1   0.7353  0.7384  0.6281  11.00000  0.05    0.21
Q15   1   0.5923  0.6966  0.4044  11.00000  0.05    0.21
Q16   1   0.6583  0.6793  0.6640  11.00000  0.05    0.21
Q17   1   0.0581  0.5373  0.1179  11.00000  0.05    0.20
Q18   1  -0.0047  0.3816  0.1243  11.00000  0.05    0.20
Q19   1   0.6518  1.0028  0.9013  11.00000  0.05    0.20
Q20   1   0.7689  0.6148  0.5136  11.00000  0.05    0.20
;
_shelx_res_checksum              45652

_shelx_hkl_file                  
;
 -15  -2  -4    3.10    1.91
 -14  -5  -3   11.15    2.87
 -14  -5  -2    8.26    2.52
 -14  -5  -1    7.87    2.66
 -14  -4  -5   19.66    3.57
 -14  -4  -4    3.44    1.61
 -14  -4  -3   -1.40    1.36
 -14  -4  -2    2.15    1.52
 -14  -4  -1   12.13    3.19
 -14  -3  -6    4.62    1.55
 -14  -3  -5   12.28    2.87
 -14  -3  -4   14.14    3.12
 -14  -3  -3    1.93    1.38
 -14  -3  -2   -0.79    1.44
 -14  -3  -1    0.18    1.03
 -14  -2  -7   13.57    3.12
 -14  -2  -6   19.69    3.48
 -14  -2  -5    5.43    2.18
 -14  -2  -4   19.26    3.60
 -14  -2  -3   12.79    2.96
 -14  -2  -2    2.73    1.68
 -14  -2  -1   -0.07    1.17
 -14  -1  -8   11.58    2.90
 -14  -1  -7    2.22    1.75
 -14  -1  -6    8.84    2.69
 -14  -1  -5   20.56    3.86
 -14  -1  -4   18.80    3.47
 -14  -1  -3   20.44    3.92
 -14  -1  -2   10.67    2.89
 -14  -1  -1   11.91    3.09
 -14   0  -7    1.93    1.52
 -14   0  -6   27.80    4.54
 -14   0  -5    6.07    2.21
 -14   0  -4    3.17    1.64
 -14   0  -3    6.28    2.30
 -14   0  -2    6.06    2.40
 -14   1  -7   -0.16    0.86
 -14   1  -6    0.73    1.29
 -14   1  -5    3.24    1.64
 -14   1  -4    6.45    2.14
 -14   1  -3    3.63    1.88
 -14   1   1    0.50    1.29
 -14   2   1   28.93    4.68
 -14   2   2   22.57    4.34
 -13  -6  -3    0.46    0.87
 -13  -6  -2    9.48    2.71
 -13  -6  -1    8.49    2.65
 -13  -6   0    8.30    2.47
 -13  -5  -5    1.85    1.30
 -13  -5  -4    0.35    0.69
 -13  -5  -3    1.40    1.38
 -13  -5  -2    3.21    0.87
 -13  -5  -1    9.77    2.72
 -13  -5   0    7.21    2.24
 -13  -5   1    0.23    1.01
 -13  -4  -7   34.78    4.22
 -13  -4  -6   26.64    3.77
 -13  -4  -5   22.76    3.55
 -13  -4  -4   20.98    3.55
 -13  -4  -3    4.10    1.70
 -13  -4  -2    7.44    2.26
 -13  -4  -1    0.26    0.87
 -13  -4   0   11.07    2.93
 -13  -4   1   25.89    4.39
 -13  -3  -8    7.80    2.33
 -13  -3  -7   10.42    2.44
 -13  -3  -6    5.47    1.98
 -13  -3  -5   11.46    2.63
 -13  -3  -4   17.37    3.31
 -13  -3  -3   24.26    3.89
 -13  -3  -2   25.86    4.12
 -13  -3  -1   13.85    3.20
 -13  -3   0    0.38    1.32
 -13  -3   1   -0.60    0.84
 -13  -2  -8   -0.54    1.09
 -13  -2  -7   -0.23    1.08
 -13  -2  -6    8.30    2.33
 -13  -2  -5   51.42    5.58
 -13  -2  -4   55.88    5.92
 -13  -2  -3   43.82    5.33
 -13  -2  -2   11.70    2.85
 -13  -2  -1    1.18    1.11
 -13  -2   0    5.34    2.05
 -13  -2   1    2.02    1.32
 -13  -2   1   -0.17    1.12
 -13  -1  -8   15.28    3.20
 -13  -1  -7   12.07    2.81
 -13  -1  -6    4.38    1.71
 -13  -1  -5    0.64    1.08
 -13  -1  -4   18.07    3.48
 -13  -1  -3   23.10    4.07
 -13  -1  -2   37.31    5.05
 -13  -1  -1   16.35    3.39
 -13  -1   0    8.36    2.58
 -13  -1   1    6.72    2.37
 -13  -1   2    0.36    0.81
 -13   0  -7    0.01    1.31
 -13   0  -6   -1.13    1.53
 -13   0  -5    2.51    1.69
 -13   0  -4    8.23    2.25
 -13   0  -3   14.94    3.06
 -13   0  -2   11.35    2.69
 -13   0  -1   17.73    3.60
 -13   0   0    6.49    2.01
 -13   0   1    9.61    2.74
 -13   0   2   14.38    3.36
 -13   0   3    7.10    2.54
 -13   1  -7    5.01    1.97
 -13   1  -6   -1.50    1.27
 -13   1  -5   -1.04    1.28
 -13   1  -4    0.07    0.90
 -13   1  -3    2.20    1.57
 -13   1  -2    3.01    1.77
 -13   1  -1    4.97    1.82
 -13   1   0   12.87    3.22
 -13   1   1   14.18    3.35
 -13   1   2    2.10    1.37
 -13   1   3    1.89    1.53
 -13   1   4    1.81    1.31
 -13   2  -7   20.06    4.04
 -13   2  -6   19.96    4.00
 -13   2  -5    3.28    1.92
 -13   2  -4    6.77    2.36
 -13   2  -3   -1.28    1.35
 -13   2  -2   -0.02    0.85
 -13   2  -1   -1.70    1.44
 -13   2   0   11.84    3.02
 -13   2   1   11.03    3.12
 -13   2   2   14.48    3.32
 -13   2   3   12.18    3.17
 -13   2   4    5.16    2.05
 -13   3  -6   16.35    3.84
 -13   3  -5   20.82    4.18
 -13   3  -4    6.51    2.53
 -13   3  -3   10.77    3.00
 -13   3  -2    7.48    2.38
 -13   3  -1    0.21    1.37
 -13   3   0    1.75    0.95
 -13   3   2   17.36    3.53
 -13   3   3    8.24    2.44
 -13   3   4    8.61    2.42
 -12  -8  -1   23.78    3.74
 -12  -8   0   26.40    4.22
 -12  -8   1   28.15    4.75
 -12  -7  -4   -0.47    0.88
 -12  -7  -3    7.19    1.89
 -12  -7  -2    0.89    0.66
 -12  -7  -1    4.11    1.31
 -12  -7   0    4.97    1.95
 -12  -7   1    2.47    1.24
 -12  -6  -5   14.98    2.57
 -12  -6  -4   21.81    3.24
 -12  -6  -3    8.16    2.06
 -12  -6  -2    0.84    0.97
 -12  -6  -1    2.01    1.23
 -12  -6   0   18.85    3.45
 -12  -6   1   20.11    3.89
 -12  -6   2   18.75    3.76
 -12  -5  -7    7.35    1.81
 -12  -5  -6   31.65    3.71
 -12  -5  -5   28.89    3.69
 -12  -5  -4   15.30    2.75
 -12  -5  -3   18.16    3.08
 -12  -5  -2    9.47    2.35
 -12  -5  -1    4.80    1.82
 -12  -5   0    7.09    2.30
 -12  -5   1    2.57    1.68
 -12  -5   2   12.05    3.07
 -12  -4  -8   11.42    2.25
 -12  -4  -7   31.91    3.83
 -12  -4  -6   41.13    4.36
 -12  -4  -5   29.87    3.78
 -12  -4  -4   12.80    2.47
 -12  -4  -3   25.81    3.72
 -12  -4  -2   21.34    3.45
 -12  -4  -1    2.28    1.01
 -12  -4   0    2.01    1.50
 -12  -4   1    3.64    1.89
 -12  -4   1    0.89    1.32
 -12  -4   2    2.95    1.56
 -12  -3  -8   15.70    2.74
 -12  -3  -7    0.77    1.06
 -12  -3  -6    0.18    0.55
 -12  -3  -5   10.47    2.31
 -12  -3  -4   76.44    6.38
 -12  -3  -3   42.61    4.83
 -12  -3  -2   29.19    4.07
 -12  -3  -1   22.89    3.73
 -12  -3   0    5.44    2.09
 -12  -3   1    6.84    2.07
 -12  -3   1   11.50    2.99
 -12  -3   2    7.90    2.51
 -12  -3   2    6.73    2.41
 -12  -3   3    1.65    1.33
 -12  -2  -8    2.63    1.35
 -12  -2  -7    7.61    2.08
 -12  -2  -6   14.46    2.85
 -12  -2  -5   -0.95    1.14
 -12  -2  -4    7.62    1.99
 -12  -2  -3   25.49    3.75
 -12  -2  -2   29.53    4.14
 -12  -2  -1   34.98    4.66
 -12  -2   0   21.88    3.86
 -12  -2   1    9.85    2.81
 -12  -2   2   16.41    3.44
 -12  -2   2   14.74    3.47
 -12  -2   3   11.06    2.97
 -12  -2   3   10.01    2.75
 -12  -1  -7   22.02    3.55
 -12  -1  -6   -0.38    0.69
 -12  -1  -5   11.51    2.47
 -12  -1  -4    5.14    1.69
 -12  -1  -3    8.68    2.46
 -12  -1  -2    3.14    1.53
 -12  -1  -1    4.42    1.56
 -12  -1   0   19.03    3.53
 -12  -1   1   13.54    3.10
 -12  -1   2    5.37    2.22
 -12  -1   2    7.06    2.33
 -12  -1   3    7.46    2.57
 -12  -1   3    5.77    2.33
 -12  -1   4   -0.10    0.67
 -12   0  -7   17.92    3.40
 -12   0  -6   13.91    3.02
 -12   0  -5    3.79    1.79
 -12   0  -4    1.78    0.99
 -12   0  -3    1.26    0.79
 -12   0  -2    4.64    1.91
 -12   0  -1    9.26    2.57
 -12   0   0    5.63    2.16
 -12   0   1   20.15    3.85
 -12   0   2   15.19    3.32
 -12   0   2   20.93    3.75
 -12   0   3   18.69    3.94
 -12   0   3   16.20    3.46
 -12   0   4    7.61    2.53
 -12   0   5   10.13    2.92
 -12   1  -7   14.59    3.23
 -12   1  -6   14.05    3.12
 -12   1  -5   15.68    3.27
 -12   1  -4    2.73    1.28
 -12   1  -3   -1.57    1.17
 -12   1  -2   -0.26    1.02
 -12   1  -1    6.19    2.22
 -12   1   0    0.00    1.23
 -12   1   1   -1.55    1.40
 -12   1   2    5.63    1.88
 -12   1   2    4.28    1.82
 -12   1   3    7.11    2.36
 -12   1   3   10.98    2.77
 -12   1   4   29.35    4.66
 -12   1   5   16.13    3.59
 -12   2  -6   18.71    3.63
 -12   2  -5   51.88    5.95
 -12   2  -4   35.75    5.06
 -12   2  -3    5.48    1.95
 -12   2  -2    0.21    1.04
 -12   2  -1    1.79    1.43
 -12   2   0    9.59    2.67
 -12   2   1    9.88    2.78
 -12   2   2   15.36    3.38
 -12   2   2   12.53    2.83
 -12   2   3   14.42    3.48
 -12   2   3   13.63    3.10
 -12   2   4    2.47    1.45
 -12   2   5   -0.32    1.39
 -12   2   6    1.03    1.41
 -12   3  -6    4.84    2.17
 -12   3  -5    8.98    2.77
 -12   3  -4   31.95    4.78
 -12   3  -3   43.57    5.57
 -12   3  -2   60.94    6.55
 -12   3  -1   50.57    6.06
 -12   3   0    5.41    2.24
 -12   3   1    2.42    1.72
 -12   3   2    0.74    0.75
 -12   3   2   -0.68    0.92
 -12   3   3    5.18    2.47
 -12   3   3    5.75    2.21
 -12   3   4    5.14    2.02
 -12   3   5   17.67    3.38
 -12   3   6   28.01    4.45
 -12   4  -5    3.67    1.76
 -12   4  -4    0.65    0.83
 -12   4  -3   -1.83    1.34
 -12   4  -2    1.06    1.40
 -12   4  -1    1.49    1.31
 -12   4   0   15.64    3.54
 -12   4   1    1.32    1.19
 -12   4   2   -0.24    1.20
 -12   4   2    0.89    0.62
 -12   4   3   -0.74    0.87
 -12   4   4   -0.49    1.13
 -12   4   5    0.33    0.96
 -12   5  -4   15.85    3.81
 -12   5  -3   48.38    6.31
 -12   5  -2   52.48    6.53
 -12   5  -1   30.06    4.96
 -12   5   0    8.96    3.10
 -12   5   1    7.13    2.70
 -11  -9  -1   27.31    4.03
 -11  -9   0   18.28    3.52
 -11  -8  -4   18.50    2.74
 -11  -8  -3    9.68    2.11
 -11  -8  -2   -0.70    1.21
 -11  -8  -1    1.75    1.42
 -11  -8  -1   -1.36    1.12
 -11  -8   0    3.89    1.69
 -11  -7  -6   53.17    4.20
 -11  -7  -5   61.49    4.82
 -11  -7  -4   40.27    4.06
 -11  -7  -3   14.20    2.57
 -11  -7  -2    9.08    2.22
 -11  -7  -1    0.93    0.81
 -11  -7   0    1.72    0.80
 -11  -7   0    3.91    1.80
 -11  -7   1    1.03    0.93
 -11  -6  -7   26.31    2.94
 -11  -6  -6   41.14    3.80
 -11  -6  -5   68.07    5.17
 -11  -6  -4   33.57    3.72
 -11  -6  -3    2.94    1.36
 -11  -6  -2    0.34    1.00
 -11  -6  -1    1.82    1.22
 -11  -6   0    0.05    0.68
 -11  -6   1   27.44    4.19
 -11  -6   1    0.29    0.73
 -11  -6   2    6.06    2.11
 -11  -5  -8   24.01    2.90
 -11  -5  -7   29.91    3.38
 -11  -5  -6    9.60    1.93
 -11  -5  -5    3.96    1.44
 -11  -5  -4   15.82    2.61
 -11  -5  -3   42.74    4.47
 -11  -5  -2   65.79    5.76
 -11  -5  -1   73.64    6.40
 -11  -5   0   33.89    4.47
 -11  -5   1   12.78    2.88
 -11  -5   1   15.36    3.42
 -11  -5   2   -0.88    1.42
 -11  -5   2    1.57    1.18
 -11  -5   3    8.11    2.49
 -11  -4  -8   12.76    2.31
 -11  -4  -7   25.70    3.27
 -11  -4  -6    2.41    1.03
 -11  -4  -5   -0.38    0.79
 -11  -4  -4    9.29    2.06
 -11  -4  -3    7.63    1.80
 -11  -4  -2   45.58    4.79
 -11  -4  -1   44.34    4.88
 -11  -4   0   51.89    5.53
 -11  -4   1   24.45    4.02
 -11  -4   1   26.68    4.45
 -11  -4   2    6.67    2.12
 -11  -4   2    3.84    1.98
 -11  -4   3    7.20    2.37
 -11  -4   3    9.00    2.90
 -11  -4   4    2.99    1.56
 -11  -3  -8    4.88    1.61
 -11  -3  -7    1.51    1.07
 -11  -3  -6    0.21    0.48
 -11  -3  -5   20.29    3.03
 -11  -3  -4    5.45    1.53
 -11  -3  -3   28.77    3.67
 -11  -3  -2  110.77    7.64
 -11  -3  -1  125.77    8.42
 -11  -3   0   90.80    7.31
 -11  -3   1   23.70    3.83
 -11  -3   2    6.16    2.16
 -11  -3   2    7.15    2.40
 -11  -3   3    1.64    1.02
 -11  -3   3    1.99    1.63
 -11  -3   4    2.67    1.72
 -11  -3   4   -0.80    1.23
 -11  -2  -8   29.16    3.79
 -11  -2  -7    2.69    1.17
 -11  -2  -6   44.45    4.65
 -11  -2  -5   55.28    5.14
 -11  -2  -4    6.29    1.72
 -11  -2  -3   16.01    2.80
 -11  -2  -2    8.77    2.16
 -11  -2  -1    5.46    1.54
 -11  -2   0   41.10    4.91
 -11  -2   1   84.30    7.27
 -11  -2   2   67.72    6.75
 -11  -2   2   71.98    7.09
 -11  -2   3   30.05    4.62
 -11  -2   3   31.57    4.85
 -11  -2   4   14.31    3.25
 -11  -2   4   16.08    3.56
 -11  -2   5    4.58    2.22
 -11  -2   5    4.93    2.14
 -11  -1  -7   54.85    5.41
 -11  -1  -6   42.86    4.66
 -11  -1  -5    4.15    1.49
 -11  -1  -4    3.70    1.35
 -11  -1  -3   21.45    3.37
 -11  -1  -2    3.29    1.15
 -11  -1  -1    1.77    1.14
 -11  -1   0   -1.11    0.87
 -11  -1   1    2.58    1.45
 -11  -1   2    6.11    2.01
 -11  -1   2    9.86    2.61
 -11  -1   3   19.21    3.64
 -11  -1   3   20.67    3.86
 -11  -1   4   36.29    5.19
 -11  -1   4   38.13    5.23
 -11  -1   5   31.74    5.11
 -11  -1   5   30.54    4.90
 -11  -1   6   15.45    3.50
 -11  -1   7    5.99    2.05
 -11   0  -7  122.36    8.47
 -11   0  -6  123.42    8.50
 -11   0  -5   51.12    5.26
 -11   0  -4   13.24    2.60
 -11   0  -3    0.04    0.91
 -11   0  -2   10.19    2.52
 -11   0  -1    1.23    1.06
 -11   0   0    0.28    0.69
 -11   0   1    1.14    1.05
 -11   0   2    4.62    1.78
 -11   0   2    2.79    1.31
 -11   0   3   33.40    4.74
 -11   0   3   30.54    4.66
 -11   0   4   35.14    4.97
 -11   0   4   38.50    5.41
 -11   0   5   30.51    4.67
 -11   0   5   29.32    4.78
 -11   0   6    7.29    2.14
 -11   1  -7    9.37    2.54
 -11   1  -6   27.89    4.11
 -11   1  -5   29.22    4.15
 -11   1  -4   52.48    5.43
 -11   1  -3   42.94    4.92
 -11   1  -2   23.61    3.67
 -11   1  -1   16.41    3.08
 -11   1   0   27.16    4.06
 -11   1   1   29.37    5.14
 -11   1   2    1.17    1.03
 -11   1   2    1.23    0.86
 -11   1   3   13.66    2.99
 -11   1   3   12.92    3.04
 -11   1   4   15.46    3.21
 -11   1   4   14.41    3.38
 -11   1   5   32.85    4.84
 -11   1   5   38.87    5.58
 -11   1   6   33.77    4.93
 -11   1   7   34.70    5.11
 -11   2  -6    1.36    0.87
 -11   2  -5    4.56    1.69
 -11   2  -4   13.25    2.82
 -11   2  -3   53.01    5.65
 -11   2  -2   63.90    6.20
 -11   2  -1   20.02    3.51
 -11   2   0   27.58    4.14
 -11   2   1    2.27    1.28
 -11   2   2   -1.64    1.19
 -11   2   3    0.70    0.91
 -11   2   3    1.57    1.44
 -11   2   4    8.15    2.41
 -11   2   4    9.20    2.65
 -11   2   5    9.29    2.42
 -11   2   5    8.08    2.65
 -11   2   6    7.92    2.39
 -11   2   7    8.23    2.70
 -11   3  -6   -0.25    1.22
 -11   3  -5    1.33    1.00
 -11   3  -4   10.29    2.67
 -11   3  -3   15.48    3.12
 -11   3  -2   35.72    4.71
 -11   3  -1   80.50    7.32
 -11   3   0   30.81    4.55
 -11   3   1   16.74    3.40
 -11   3   2    4.10    1.89
 -11   3   3   -0.48    0.66
 -11   3   3   -0.70    1.22
 -11   3   4    7.47    2.23
 -11   3   4    5.12    1.92
 -11   3   5    9.33    2.42
 -11   3   5    7.27    2.38
 -11   3   6    4.64    1.91
 -11   4  -5    1.70    1.32
 -11   4  -4   16.00    3.43
 -11   4  -3   22.17    3.87
 -11   4  -2   56.02    6.13
 -11   4  -1   30.86    4.48
 -11   4   0    5.69    2.00
 -11   4   1    1.62    1.34
 -11   4   2   25.94    3.63
 -11   4   2   25.91    4.42
 -11   4   3   36.40    4.39
 -11   4   3   43.36    5.58
 -11   4   4   18.00    3.08
 -11   4   4   17.09    3.77
 -11   4   5    9.56    2.39
 -11   4   5    4.03    1.99
 -11   4   6   -1.28    1.52
 -11   5  -5   21.97    4.06
 -11   5  -4   19.75    3.80
 -11   5  -3   13.77    3.17
 -11   5  -2   10.39    3.00
 -11   5  -1    6.31    2.16
 -11   5   0   18.45    3.65
 -11   5   1   13.37    3.25
 -11   5   2    6.24    1.70
 -11   5   2    5.28    2.42
 -11   5   3    2.17    1.32
 -11   5   3    0.56    0.91
 -11   5   4    3.11    1.27
 -11   5   4    2.53    1.60
 -11   5   5    4.42    1.55
 -11   5   5    5.34    2.35
 -11   6  -4    9.29    2.74
 -11   6  -3    6.05    2.34
 -11   6  -2   -0.06    1.14
 -11   6  -1    3.59    1.74
 -11   6   0   15.59    3.60
 -11   6   1   70.30    7.39
 -11   6   2   24.39    4.49
 -11   6   3   40.38    5.60
 -11   6   4   32.07    5.29
 -11   7  -2   17.63    4.01
 -11   7  -1   26.77    4.69
 -11   7   0    1.14    1.26
 -11   7   1    1.54    1.70
 -11   7   2   12.42    3.34
 -10 -10  -2    1.77    1.60
 -10 -10  -1    7.31    2.20
 -10  -9  -3    4.82    1.51
 -10  -9  -2    5.99    1.57
 -10  -9  -1    0.44    0.87
 -10  -9   0    2.78    1.55
 -10  -8  -5   73.75    4.78
 -10  -8  -4   46.38    4.10
 -10  -8  -3   19.15    2.76
 -10  -8  -2    0.05    0.53
 -10  -8  -1    3.53    1.39
 -10  -8   0    2.84    1.18
 -10  -8   1    3.75    2.13
 -10  -7  -7    0.93    0.53
 -10  -7  -6   49.36    3.72
 -10  -7  -5   88.34    5.35
 -10  -7  -4  113.80    6.57
 -10  -7  -3  115.66    6.97
 -10  -7  -2   84.09    6.21
 -10  -7  -1   54.91    5.23
 -10  -7   0   27.41    4.57
 -10  -7   1   -0.79    1.02
 -10  -7   2    3.26    1.65
 -10  -6  -7    4.36    1.18
 -10  -6  -6   39.80    3.45
 -10  -6  -5    2.53    0.96
 -10  -6  -4   14.74    2.27
 -10  -6  -3   84.33    5.87
 -10  -6  -2   69.25    5.56
 -10  -6  -1   38.81    4.33
 -10  -6   0    7.76    2.06
 -10  -6   1   -0.18    1.06
 -10  -6   2    3.55    1.94
 -10  -6   3    4.92    1.95
 -10  -5  -8   83.80    5.19
 -10  -5  -7   24.06    2.74
 -10  -5  -6    3.90    1.16
 -10  -5  -5    7.62    1.64
 -10  -5  -4   72.14    5.21
 -10  -5  -3   70.48    5.42
 -10  -5  -3   70.55    5.38
 -10  -5  -2   49.67    4.41
 -10  -5  -2   54.40    4.89
 -10  -5  -1  113.35    6.79
 -10  -5  -1  135.41    8.14
 -10  -5   0  105.69    6.53
 -10  -5   0  114.09    7.77
 -10  -5   1   27.66    4.36
 -10  -5   1   25.59    3.83
 -10  -5   2    2.88    1.77
 -10  -5   3    4.60    2.05
 -10  -5   4    1.24    1.04
 -10  -4  -7    4.37    1.29
 -10  -4  -6   16.92    2.41
 -10  -4  -5   53.07    4.39
 -10  -4  -4   51.63    4.47
 -10  -4  -3   42.01    4.14
 -10  -4  -2   19.19    2.62
 -10  -4  -2   20.50    3.01
 -10  -4  -1   90.42    5.65
 -10  -4  -1  101.45    7.04
 -10  -4   0  102.49    5.99
 -10  -4   0  109.51    7.59
 -10  -4   1   91.03    7.20
 -10  -4   2   37.78    5.17
 -10  -4   2   35.72    4.73
 -10  -4   3   22.95    4.04
 -10  -4   4   14.64    3.42
 -10  -4   5    8.43    2.80
 -10  -3  -7   28.22    3.33
 -10  -3  -6    0.55    0.47
 -10  -3  -5    0.86    0.66
 -10  -3  -4  102.26    6.51
 -10  -3  -3   20.84    2.95
 -10  -3  -2    1.06    0.61
 -10  -3  -1   16.45    2.77
 -10  -3   0   44.22    3.54
 -10  -3   0   42.95    4.71
 -10  -3   1   99.92    5.44
 -10  -3   1  105.45    7.60
 -10  -3   2  111.10    8.58
 -10  -3   2  104.14    8.00
 -10  -3   3   25.60    4.32
 -10  -3   3   35.10    4.81
 -10  -3   4    7.87    2.55
 -10  -3   4   10.03    2.67
 -10  -3   5    0.09    1.33
 -10  -2  -7  115.01    7.19
 -10  -2  -6   48.68    4.55
 -10  -2  -5  108.25    6.73
 -10  -2  -4   32.02    3.69
 -10  -2  -3    2.37    1.10
 -10  -2  -2    0.67    0.83
 -10  -2  -1   -0.26    0.70
 -10  -2   0    2.13    1.14
 -10  -2   1    7.98    1.32
 -10  -2   1    8.81    2.18
 -10  -2   2   49.51    5.43
 -10  -2   2   50.45    5.53
 -10  -2   3   71.63    6.77
 -10  -2   3   84.43    7.54
 -10  -2   4   37.50    5.10
 -10  -2   4   38.20    5.19
 -10  -2   5   11.19    2.97
 -10  -2   5   10.44    2.74
 -10  -2   6    3.31    1.60
 -10  -2   6    7.49    2.44
 -10  -2   7    0.41    1.33
 -10  -1  -7   19.36    3.04
 -10  -1  -6  116.01    7.40
 -10  -1  -5   51.27    4.78
 -10  -1  -4   12.60    2.35
 -10  -1  -3   22.83    3.19
 -10  -1  -2   48.09    4.74
 -10  -1  -1   29.18    3.80
 -10  -1   0    3.32    1.29
 -10  -1   1    0.03    0.74
 -10  -1   2    0.75    1.07
 -10  -1   2    0.07    0.80
 -10  -1   3   31.91    4.48
 -10  -1   3   26.15    4.00
 -10  -1   4   33.13    4.83
 -10  -1   4   39.30    5.10
 -10  -1   5   51.69    6.11
 -10  -1   5   43.02    5.45
 -10  -1   6   20.34    3.90
 -10  -1   6   21.50    4.00
 -10  -1   7   18.11    3.84
 -10  -1   7   21.41    3.89
 -10  -1   8    3.94    1.91
 -10   0  -7   24.33    3.56
 -10   0  -6   65.58    5.82
 -10   0  -5  106.70    7.36
 -10   0  -4   60.76    5.37
 -10   0  -3   42.84    4.53
 -10   0  -2   59.75    5.45
 -10   0  -1   10.39    2.24
 -10   0   0    1.46    0.89
 -10   0   1   10.26    2.42
 -10   0   2   -0.60    1.07
 -10   0   3    3.16    1.64
 -10   0   3   -0.47    0.81
 -10   0   4   24.72    4.11
 -10   0   4   23.39    3.82
 -10   0   5    6.55    2.22
 -10   0   5    7.04    2.15
 -10   0   6    3.84    2.09
 -10   0   6    9.56    2.56
 -10   0   7   11.42    2.91
 -10   0   8    5.95    1.87
 -10   0   9   12.96    3.41
 -10   1  -6    1.42    0.79
 -10   1  -5   22.28    3.36
 -10   1  -4   78.68    6.41
 -10   1  -3  164.74    9.37
 -10   1  -2  100.87    7.28
 -10   1  -1  109.22    7.69
 -10   1   0   49.49    5.18
 -10   1   1   30.79    4.23
 -10   1   2   -0.65    1.27
 -10   1   3   13.08    2.82
 -10   1   3   18.37    3.13
 -10   1   4   38.82    5.41
 -10   1   4   16.20    3.20
 -10   1   5   61.36    6.62
 -10   1   5   57.04    5.96
 -10   1   6   35.88    5.21
 -10   1   6   29.27    4.27
 -10   1   7    3.87    2.04
 -10   1   7    4.79    1.92
 -10   1   8   -0.62    0.96
 -10   1   9    7.36    2.60
 -10   2  -6    2.80    1.26
 -10   2  -5    0.79    0.71
 -10   2  -4   45.31    5.12
 -10   2  -3   18.60    3.08
 -10   2  -2   28.74    3.93
 -10   2  -1   20.70    3.36
 -10   2   0  149.19    9.34
 -10   2   1  186.32   10.66
 -10   2   2   84.55    7.24
 -10   2   3   29.59    4.35
 -10   2   3   31.76    4.05
 -10   2   4   21.22    3.80
 -10   2   4   19.56    3.27
 -10   2   5   -1.13    1.29
 -10   2   5    0.64    0.69
 -10   2   6   18.41    3.79
 -10   2   6   22.76    3.73
 -10   2   7   26.03    4.64
 -10   2   7   18.00    3.48
 -10   2   8   21.52    3.64
 -10   3  -6   22.44    3.88
 -10   3  -5    1.75    1.51
 -10   3  -4    4.53    1.81
 -10   3  -3   63.77    6.10
 -10   3  -2    4.46    1.77
 -10   3  -1   -0.67    0.97
 -10   3   0   -0.62    1.28
 -10   3   0    0.58    0.50
 -10   3   1   -1.17    1.66
 -10   3   1    0.27    0.64
 -10   3   2    5.70    1.85
 -10   3   2    8.89    1.77
 -10   3   3   18.49    3.38
 -10   3   3   20.98    3.11
 -10   3   4    1.33    1.28
 -10   3   4    1.61    1.06
 -10   3   5    0.74    1.05
 -10   3   5    1.40    1.12
 -10   3   6    3.09    1.58
 -10   3   6    1.59    1.02
 -10   3   7    4.63    2.22
 -10   3   7    1.72    0.90
 -10   4  -5   56.03    6.20
 -10   4  -4   36.43    4.94
 -10   4  -3    9.30    2.51
 -10   4  -2   42.34    5.05
 -10   4  -1  155.94    9.94
 -10   4  -1  142.23    7.97
 -10   4   0  161.23   10.14
 -10   4   0  144.20    7.68
 -10   4   1  147.97    9.73
 -10   4   1  122.20    6.96
 -10   4   2   55.75    6.06
 -10   4   2   47.64    4.22
 -10   4   3   28.31    4.46
 -10   4   3   29.20    3.65
 -10   4   4    5.56    2.24
 -10   4   4    8.91    2.11
 -10   4   5    1.00    1.31
 -10   4   5    3.52    1.33
 -10   4   6   26.75    4.60
 -10   4   6   21.67    3.53
 -10   4   7    1.19    1.11
 -10   5  -5    5.32    2.08
 -10   5  -4   20.18    3.82
 -10   5  -3   24.22    4.04
 -10   5  -2    2.92    1.37
 -10   5  -1    4.40    1.81
 -10   5   0    0.22    0.77
 -10   5   0    0.50    0.59
 -10   5   1   11.80    2.74
 -10   5   2    4.17    1.81
 -10   5   3   30.10    3.58
 -10   5   3   31.09    4.61
 -10   5   4   35.81    3.98
 -10   5   4   30.45    4.65
 -10   5   5   42.13    4.38
 -10   5   5   40.29    5.42
 -10   5   6   15.73    2.87
 -10   5   6   20.17    3.92
 -10   5   7   15.21    3.58
 -10   6  -4    0.90    0.99
 -10   6  -3   11.10    2.84
 -10   6  -2   51.05    6.02
 -10   6  -1   -1.94    1.57
 -10   6   0    5.17    1.97
 -10   6   1    7.43    2.23
 -10   6   2   16.41    2.47
 -10   6   2   14.98    3.28
 -10   6   3   20.49    2.86
 -10   6   3   20.45    3.77
 -10   6   4   25.11    3.19
 -10   6   4   26.28    4.38
 -10   6   5   23.89    4.32
 -10   6   6    5.94    2.28
 -10   7  -3   31.09    5.05
 -10   7  -2   15.92    3.68
 -10   7  -1   75.12    7.51
 -10   7   0   10.51    2.81
 -10   7   1   -1.91    1.46
 -10   7   2    2.39    1.61
 -10   7   3   11.04    2.92
 -10   7   4   13.05    3.18
 -10   7   5   13.86    3.45
 -10   7   6   11.34    3.18
 -10   8  -2   21.97    4.31
 -10   8  -1   31.73    5.16
 -10   8   0    2.24    1.22
 -10   8   1   -1.43    1.73
 -10   8   2    0.52    0.86
 -10   8   3    1.70    1.18
 -10   8   4   -1.70    1.73
 -10   8   5   -0.76    1.13
 -10   9   0   28.13    5.04
 -10   9   1    7.11    2.55
 -10   9   2    1.85    1.64
 -10   9   3    0.69    1.21
  -9 -13  -4   14.87    3.61
  -9 -12  -3    1.87    1.86
  -9 -12  -2    3.61    2.01
  -9 -11  -2   -0.31    0.86
  -9 -11  -1    0.68    0.68
  -9 -10  -2    2.17    1.18
  -9 -10  -1    2.97    1.61
  -9 -10   0   -1.00    1.40
  -9 -10   1   31.99    5.11
  -9  -9  -5   91.11    4.89
  -9  -9  -4  104.58    5.83
  -9  -9  -3   49.33    4.30
  -9  -9  -1   27.79    4.36
  -9  -9   0    7.50    2.34
  -9  -9   1    3.79    1.71
  -9  -9   2    0.54    1.07
  -9  -8  -7    0.62    0.53
  -9  -8  -6   43.31    2.91
  -9  -8  -5  106.44    5.35
  -9  -8  -4  133.37    6.65
  -9  -8  -3  117.92    6.69
  -9  -8   0    1.07    0.99
  -9  -8   1    0.25    1.13
  -9  -8   2   -1.78    1.14
  -9  -8   3   -0.28    1.14
  -9  -7  -7   44.04    2.82
  -9  -7  -6    9.55    1.41
  -9  -7  -5    7.05    1.42
  -9  -7  -4   42.70    3.63
  -9  -7  -3  127.55    6.82
  -9  -7  -2  125.44    7.28
  -9  -7   0    4.50    1.38
  -9  -7   1    9.81    2.70
  -9  -7   2   12.40    2.99
  -9  -7   3    0.52    0.94
  -9  -7   4    2.56    1.56
  -9  -6  -7    0.73    0.59
  -9  -6  -6   54.30    3.66
  -9  -6  -5   38.18    3.20
  -9  -6  -4    4.42    1.12
  -9  -6  -3    4.07    1.22
  -9  -6  -2    2.18    1.08
  -9  -6  -1   17.97    2.80
  -9  -6   1  174.31   10.90
  -9  -6   2  100.16    8.46
  -9  -6   3   51.16    6.14
  -9  -6   4    5.30    2.10
  -9  -5  -7   35.70    3.11
  -9  -5  -6  122.68    5.88
  -9  -5  -5   78.65    4.83
  -9  -5  -4   41.46    3.62
  -9  -5  -3    0.73    0.61
  -9  -5  -3    0.84    0.40
  -9  -5  -2    1.49    0.58
  -9  -5  -2    1.57    0.88
  -9  -5  -1   17.91    2.54
  -9  -5  -1   16.71    2.63
  -9  -5   0  103.68    6.33
  -9  -5   0  120.59    7.62
  -9  -5   1   32.29    3.51
  -9  -5   1   31.84    4.46
  -9  -5   2   38.27    4.99
  -9  -5   2   36.23    3.82
  -9  -5   3   11.21    2.76
  -9  -5   4    6.98    2.26
  -9  -5   5   -0.10    1.08
  -9  -5   6    2.91    1.03
  -9  -4  -7  156.19    7.17
  -9  -4  -6   99.58    5.58
  -9  -4  -5  144.93    6.96
  -9  -4  -4   26.22    2.91
  -9  -4  -3   40.15    3.78
  -9  -4  -2   20.33    2.74
  -9  -4  -2   17.34    2.35
  -9  -4  -1   62.56    5.11
  -9  -4  -1   58.60    4.33
  -9  -4   0  231.91   10.70
  -9  -4   0  214.37    8.89
  -9  -4   1  132.49    8.36
  -9  -4   1  135.37    6.87
  -9  -4   2   71.36    6.63
  -9  -4   2   70.92    4.94
  -9  -4   3   53.41    6.00
  -9  -4   3   47.12    4.10
  -9  -4   4   24.46    4.12
  -9  -4   5   13.94    3.20
  -9  -4   6    1.25    1.37
  -9  -4   7   -1.13    1.89
  -9  -3  -7    4.52    1.19
  -9  -3  -6   63.78    4.66
  -9  -3  -5   34.68    3.35
  -9  -3  -4  116.13    6.52
  -9  -3  -3  148.54    7.57
  -9  -3  -2    6.88    1.65
  -9  -3  -1    1.88    0.66
  -9  -3  -1    1.20    0.72
  -9  -3   0   27.20    2.68
  -9  -3   0   29.25    3.60
  -9  -3   1    1.16    0.60
  -9  -3   1    2.87    1.34
  -9  -3   2    0.58    0.62
  -9  -3   2    0.17    0.77
  -9  -3   2    0.50    0.68
  -9  -3   3    7.49    1.50
  -9  -3   3    7.31    2.34
  -9  -3   4   49.63    5.74
  -9  -3   5   54.42    6.29
  -9  -3   6   43.38    5.59
  -9  -3   7   16.99    3.61
  -9  -2  -7   82.11    5.68
  -9  -2  -6   21.59    2.79
  -9  -2  -5   43.98    3.96
  -9  -2  -4  200.95    9.01
  -9  -2  -3   33.58    3.51
  -9  -2  -2    0.10    0.76
  -9  -2  -1   23.16    3.10
  -9  -2   0   27.29    2.45
  -9  -2   0   28.47    3.55
  -9  -2   1   40.11    2.96
  -9  -2   1   33.98    4.00
  -9  -2   2   35.90    2.83
  -9  -2   2   40.92    4.69
  -9  -2   2   43.25    4.75
  -9  -2   3    6.73    1.23
  -9  -2   3    6.36    2.00
  -9  -2   3    5.95    1.93
  -9  -2   4    6.64    2.30
  -9  -2   5    1.48    1.32
  -9  -2   6   34.34    4.86
  -9  -2   7   31.70    4.91
  -9  -2   7   33.57    4.95
  -9  -2   8   17.41    3.72
  -9  -1  -7   31.24    3.60
  -9  -1  -6   12.31    2.33
  -9  -1  -5  176.34    8.68
  -9  -1  -4  133.01    7.40
  -9  -1  -3  259.92   10.87
  -9  -1  -2  161.63    8.40
  -9  -1  -1  126.27    7.55
  -9  -1   0    7.48    1.81
  -9  -1   1    1.58    0.92
  -9  -1   2    1.17    0.44
  -9  -1   2    0.72    0.87
  -9  -1   3    6.48    0.99
  -9  -1   3   11.28    2.61
  -9  -1   3    7.25    2.07
  -9  -1   4    7.29    2.19
  -9  -1   4    3.92    1.66
  -9  -1   5    9.81    2.52
  -9  -1   5    5.63    1.92
  -9  -1   6   30.93    4.56
  -9  -1   7   33.21    4.86
  -9  -1   7   38.34    4.99
  -9  -1   8   11.11    2.88
  -9  -1   9    1.97    1.85
  -9   0  -6    6.66    1.65
  -9   0  -5    7.48    1.85
  -9   0  -4   24.12    3.10
  -9   0  -3    6.42    1.64
  -9   0  -2   73.81    5.67
  -9   0  -2   75.12    5.63
  -9   0  -1   74.75    5.76
  -9   0  -1   66.85    5.20
  -9   0   0   71.65    5.88
  -9   0   1   83.38    6.46
  -9   0   2   78.29    6.53
  -9   0   3   12.85    2.71
  -9   0   3   16.23    2.88
  -9   0   4    6.07    1.98
  -9   0   4   10.18    2.41
  -9   0   5    2.12    1.41
  -9   0   5    1.69    1.05
  -9   0   6    3.11    1.64
  -9   0   6    0.49    0.75
  -9   0   7    4.14    1.83
  -9   0   7    6.35    2.09
  -9   0   7    5.89    2.00
  -9   0   8    9.01    2.59
  -9   0   9   18.35    3.64
  -9   0  10   35.37    5.31
  -9   1  -6    3.53    1.16
  -9   1  -5  109.33    7.31
  -9   1  -4    4.00    1.50
  -9   1  -3   -3.71    1.33
  -9   1  -2   16.60    2.73
  -9   1  -2   17.16    2.56
  -9   1  -1   60.96    5.32
  -9   1  -1   64.32    5.02
  -9   1   0  170.87    9.29
  -9   1   0  162.14    8.20
  -9   1   1   93.19    6.89
  -9   1   2   81.42    6.64
  -9   1   3   19.17    3.33
  -9   1   3   10.92    2.28
  -9   1   4   49.42    5.40
  -9   1   4   46.91    4.95
  -9   1   5   30.46    4.41
  -9   1   5   29.49    4.09
  -9   1   6    4.76    1.80
  -9   1   6    3.40    1.49
  -9   1   7    5.23    2.03
  -9   1   7    5.30    1.80
  -9   1   8    3.07    1.71
  -9   1   8    0.83    0.75
  -9   1   9    1.04    1.17
  -9   1  10   -0.20    1.04
  -9   2  -6   52.20    5.35
  -9   2  -5   43.27    4.83
  -9   2  -4    1.74    0.96
  -9   2  -3    2.47    1.10
  -9   2  -3    2.50    1.07
  -9   2  -2    2.49    1.02
  -9   2  -2    5.69    1.41
  -9   2  -1   61.46    5.43
  -9   2  -1   53.70    4.55
  -9   2   0   43.51    4.62
  -9   2   0   46.08    4.10
  -9   2   1  161.81    9.42
  -9   2   1  163.25    8.02
  -9   2   2  142.56    8.99
  -9   2   2  140.16    7.44
  -9   2   3   85.48    7.03
  -9   2   3   85.12    6.34
  -9   2   4   91.23    7.47
  -9   2   4   95.44    6.95
  -9   2   5    0.47    0.90
  -9   2   5    0.24    0.85
  -9   2   6    0.25    0.85
  -9   2   6    0.35    0.72
  -9   2   7    2.76    1.68
  -9   2   7    2.37    1.18
  -9   2   7    1.15    0.79
  -9   2   8    6.64    2.33
  -9   2   8    1.27    0.77
  -9   2   9    7.14    1.94
  -9   3  -5   92.87    7.30
  -9   3  -4    1.68    1.15
  -9   3  -3    1.40    1.24
  -9   3  -3    0.41    0.53
  -9   3  -2   13.19    2.57
  -9   3  -2   17.61    2.60
  -9   3  -1    1.95    0.87
  -9   3  -1    2.45    1.07
  -9   3   0   48.67    5.05
  -9   3   0   47.76    4.11
  -9   3   1   10.87    2.34
  -9   3   1   10.54    1.88
  -9   3   2    0.94    0.66
  -9   3   2    1.39    0.80
  -9   3   3    2.67    1.34
  -9   3   3    1.35    0.63
  -9   3   3    1.45    0.83
  -9   3   4    9.90    2.50
  -9   3   4   11.05    2.29
  -9   3   5   68.81    6.62
  -9   3   5   63.85    5.62
  -9   3   6   12.68    3.10
  -9   3   6   10.94    2.49
  -9   3   7   55.49    6.41
  -9   3   7   48.33    4.75
  -9   3   8   23.62    4.28
  -9   3   8   23.13    3.41
  -9   4  -5   31.98    4.47
  -9   4  -4   44.26    5.08
  -9   4  -3   13.82    2.88
  -9   4  -2   40.48    4.76
  -9   4  -2   43.43    4.17
  -9   4  -1   21.82    3.50
  -9   4  -1   16.76    2.44
  -9   4   0   38.44    4.62
  -9   4   0   39.65    3.60
  -9   4   1   -0.21    0.91
  -9   4   1   -0.39    0.71
  -9   4   2   38.19    4.66
  -9   4   2   39.98    3.57
  -9   4   3   56.02    5.74
  -9   4   3   53.56    4.12
  -9   4   3   52.37    4.59
  -9   4   4   63.11    6.25
  -9   4   4   63.89    5.28
  -9   4   4   63.98    4.61
  -9   4   5   17.75    3.38
  -9   4   5   14.91    2.55
  -9   4   6    2.75    1.57
  -9   4   6    2.37    1.31
  -9   4   7    4.06    2.02
  -9   4   7    2.45    1.04
  -9   4   8    0.30    1.01
  -9   5  -4   26.18    4.09
  -9   5  -3   98.67    8.11
  -9   5  -2   -0.16    1.18
  -9   5  -2    1.15    0.90
  -9   5  -1   33.38    4.41
  -9   5  -1   37.43    3.61
  -9   5   0    4.72    1.77
  -9   5   0    4.54    1.25
  -9   5   1    0.30    0.70
  -9   5   1    0.61    0.70
  -9   5   2    2.57    1.30
  -9   5   2    1.73    0.63
  -9   5   3   67.84    6.54
  -9   5   3   68.59    5.09
  -9   5   3   66.31    4.42
  -9   5   4   76.29    6.98
  -9   5   4   72.12    5.37
  -9   5   5   72.50    7.09
  -9   5   5   64.84    5.20
  -9   5   6  141.53   10.03
  -9   5   6  128.84    7.81
  -9   5   7   17.54    3.65
  -9   5   8    2.65    1.98
  -9   6  -4   78.20    7.49
  -9   6  -3   44.46    5.46
  -9   6  -2   22.99    3.86
  -9   6  -2   18.43    2.77
  -9   6  -1    2.01    1.58
  -9   6  -1    0.19    0.56
  -9   6   0    0.30    0.84
  -9   6   0    1.79    0.99
  -9   6   1   91.86    7.60
  -9   6   1   87.34    5.21
  -9   6   2   13.58    3.07
  -9   6   3    5.59    1.94
  -9   6   3    4.08    1.18
  -9   6   4    1.14    0.93
  -9   6   4    1.54    0.87
  -9   6   5   -0.86    1.24
  -9   6   5    0.10    0.40
  -9   6   6    1.25    1.06
  -9   6   7   34.34    5.07
  -9   6   8   21.72    4.17
  -9   7  -3   40.23    5.43
  -9   7  -2   89.62    8.02
  -9   7  -1    1.30    1.45
  -9   7   0   13.68    3.11
  -9   7   1    1.86    1.36
  -9   7   2   -0.32    0.77
  -9   7   2    0.92    0.74
  -9   7   3   -1.96    1.43
  -9   7   3    0.81    0.57
  -9   7   4   -1.20    1.43
  -9   7   4    0.61    0.77
  -9   7   5    0.94    0.95
  -9   7   6    1.73    1.32
  -9   7   7    5.01    1.98
  -9   7   8   14.52    3.51
  -9   8  -2    2.51    1.74
  -9   8  -1  151.28   10.80
  -9   8   0   17.95    3.66
  -9   8   1    7.43    2.39
  -9   8   2    0.59    1.15
  -9   8   3    7.61    2.38
  -9   8   4    6.40    2.35
  -9   8   5   -0.81    1.33
  -9   8   6    3.13    1.82
  -9   8   7   -0.53    1.40
  -9   9  -1   13.87    3.41
  -9   9   0   42.09    5.68
  -9   9   1    2.22    1.28
  -9   9   2    5.92    2.07
  -9   9   3   13.95    3.26
  -9   9   4    1.87    1.34
  -9   9   5   20.05    3.94
  -9   9   6    4.14    2.00
  -9   9   7    2.76    1.40
  -9  10   0    7.86    2.62
  -9  10   1   19.20    4.05
  -9  10   2    9.57    2.94
  -9  10   3    1.11    1.06
  -9  10   4   16.42    3.59
  -9  10   5    6.90    2.34
  -8 -14  -5    8.09    2.36
  -8 -14  -4    1.08    1.76
  -8 -14  -3   -2.39    1.38
  -8 -13  -4    6.35    2.42
  -8 -13  -3    0.82    0.92
  -8 -13  -2    5.26    2.12
  -8 -13  -1    6.23    2.08
  -8 -12  -3    5.58    1.86
  -8 -12  -2    6.15    2.25
  -8 -12  -1   -0.34    1.02
  -8 -12   0    3.74    2.28
  -8 -11  -2   47.49    5.75
  -8 -11  -1   16.03    3.52
  -8 -11   0   -0.59    1.04
  -8 -11   1   -0.07    0.91
  -8 -10  -5   29.41    2.44
  -8 -10  -2   48.39    5.53
  -8 -10  -1    8.80    2.38
  -8 -10   0    3.91    1.15
  -8 -10   1    0.65    0.93
  -8 -10   2   -0.24    0.82
  -8  -9  -6   17.11    1.39
  -8  -9  -5   34.87    2.69
  -8  -9  -4  100.16    5.35
  -8  -9  -1   72.82    6.80
  -8  -9   0   24.77    4.05
  -8  -9   1    1.40    0.90
  -8  -9   2    1.02    0.95
  -8  -9   3   -1.60    1.44
  -8  -8  -6    1.04    0.39
  -8  -8  -5   -0.67    0.36
  -8  -8  -4   10.66    1.62
  -8  -8   0  107.96    8.23
  -8  -8   1  135.50    9.71
  -8  -8   2   66.61    6.93
  -8  -8   3   38.56    5.35
  -8  -8   4    2.27    1.55
  -8  -7  -7    1.13    0.41
  -8  -7  -6    7.07    1.05
  -8  -7  -5   14.66    1.75
  -8  -7  -4   -0.01    0.48
  -8  -7  -3   20.23    2.45
  -8  -7   0   59.27    5.90
  -8  -7   1   38.75    5.08
  -8  -7   2   52.24    5.90
  -8  -7   3   15.18    3.27
  -8  -7   4    5.24    1.94
  -8  -7   5    0.61    0.99
  -8  -7   5    2.77    1.80
  -8  -6  -7  432.12   10.81
  -8  -6  -6  294.90    8.62
  -8  -6  -5  117.40    5.30
  -8  -6  -4    3.34    1.23
  -8  -6  -4    2.95    0.87
  -8  -6  -3   33.96    3.70
  -8  -6  -3   36.29    3.22
  -8  -6  -2  124.63    7.17
  -8  -6  -2  123.38    6.67
  -8  -6  -1   12.85    2.22
  -8  -6   0    6.38    1.64
  -8  -6   1   58.41    5.89
  -8  -6   2  155.81   10.09
  -8  -6   3  116.68    8.94
  -8  -6   4   58.41    6.37
  -8  -6   5   13.37    3.27
  -8  -6   6    3.91    2.10
  -8  -5  -7   65.80    3.78
  -8  -5  -6   54.15    3.46
  -8  -5  -5   18.08    2.04
  -8  -5  -4    8.93    1.84
  -8  -5  -4    5.55    1.23
  -8  -5  -3   21.65    2.73
  -8  -5  -3   19.18    2.36
  -8  -5  -2   34.17    3.45
  -8  -5  -2   36.41    3.43
  -8  -5  -1   95.44    5.87
  -8  -5   0  120.59    6.66
  -8  -5   1    0.93    0.61
  -8  -5   1    0.83    0.68
  -8  -5   2   10.67    1.98
  -8  -5   2   16.14    3.10
  -8  -5   3   26.59    4.31
  -8  -5   3   28.47    3.35
  -8  -5   4   56.46    6.19
  -8  -5   5   62.67    6.63
  -8  -5   6   47.29    6.01
  -8  -5   6   49.54    6.07
  -8  -5   7   23.95    4.62
  -8  -4  -7   60.81    3.97
  -8  -4  -6  107.12    5.36
  -8  -4  -5   53.52    3.73
  -8  -4  -4   91.56    5.08
  -8  -4  -3   14.96    2.18
  -8  -4  -3   15.21    2.11
  -8  -4  -2   82.67    5.12
  -8  -4  -2   88.35    5.45
  -8  -4  -1    9.44    1.66
  -8  -4  -1    8.56    1.76
  -8  -4   0   76.83    4.88
  -8  -4   1    5.61    1.34
  -8  -4   2    5.37    1.34
  -8  -4   2    5.65    1.76
  -8  -4   3   58.24    5.88
  -8  -4   3   55.46    4.39
  -8  -4   4   78.37    7.07
  -8  -4   4   75.29    5.37
  -8  -4   5   59.90    6.34
  -8  -4   6   23.09    4.09
  -8  -4   7   11.74    3.06
  -8  -4   8    4.68    1.97
  -8  -3  -7   12.01    1.87
  -8  -3  -6    2.16    0.64
  -8  -3  -5  160.40    7.03
  -8  -3  -4  129.87    6.39
  -8  -3  -3  562.99   17.27
  -8  -3  -3  513.54   15.10
  -8  -3  -2  361.45   12.21
  -8  -3  -2  358.25   11.32
  -8  -3  -1   41.88    3.83
  -8  -3  -1   38.22    3.14
  -8  -3   0    1.37    0.83
  -8  -3   0    3.23    0.96
  -8  -3   1    1.21    0.69
  -8  -3   2   59.96    5.63
  -8  -3   2   63.16    4.17
  -8  -3   3    0.88    0.63
  -8  -3   3    2.68    1.35
  -8  -3   4    0.73    0.44
  -8  -3   4    1.07    0.93
  -8  -3   5    8.64    1.76
  -8  -3   5   11.02    2.71
  -8  -3   6   43.66    5.40
  -8  -3   7   58.99    6.52
  -8  -3   8   50.13    6.22
  -8  -2  -6    0.20    0.60
  -8  -2  -5    0.68    0.45
  -8  -2  -4   44.13    4.24
  -8  -2  -4   34.53    3.30
  -8  -2  -3   81.28    5.71
  -8  -2  -3   90.23    5.44
  -8  -2  -2   15.45    2.27
  -8  -2  -1   30.09    2.57
  -8  -2  -1   29.15    3.23
  -8  -2   0   20.28    2.06
  -8  -2   0   15.74    2.48
  -8  -2   1    0.57    0.44
  -8  -2   1   -0.42    0.55
  -8  -2   2    1.40    0.63
  -8  -2   2    0.35    0.49
  -8  -2   2    0.83    0.93
  -8  -2   3   58.45    5.64
  -8  -2   3   57.14    3.70
  -8  -2   4   15.49    2.93
  -8  -2   4   17.04    2.06
  -8  -2   5    3.68    1.08
  -8  -2   5    2.71    1.13
  -8  -2   6    0.14    0.86
  -8  -2   7   21.04    3.68
  -8  -2   8   41.53    5.50
  -8  -2   9   36.80    5.38
  -8  -1  -6   59.65    4.68
  -8  -1  -5    2.90    1.06
  -8  -1  -4   58.96    4.83
  -8  -1  -4   61.40    4.56
  -8  -1  -3   78.66    5.54
  -8  -1  -3   89.54    5.60
  -8  -1  -2  209.88    9.28
  -8  -1  -2  207.09    9.02
  -8  -1  -1  188.94    8.77
  -8  -1   0  225.55   10.05
  -8  -1   1   84.04    3.79
  -8  -1   1   89.93    6.22
  -8  -1   2    3.88    0.77
  -8  -1   2    4.23    1.39
  -8  -1   3    2.75    0.77
  -8  -1   3    1.06    0.90
  -8  -1   3    4.32    1.44
  -8  -1   4    0.78    0.42
  -8  -1   4    1.97    1.41
  -8  -1   5    0.38    0.39
  -8  -1   5   -0.68    0.74
  -8  -1   6    2.15    0.96
  -8  -1   7    3.91    1.62
  -8  -1   8    1.77    1.50
  -8  -1   9   14.35    3.31
  -8  -1  10    9.32    2.73
  -8   0  -6   57.40    4.84
  -8   0  -5  234.77   10.04
  -8   0  -4  305.32   11.40
  -8   0  -4  284.00   11.33
  -8   0  -3   42.41    3.90
  -8   0  -3   40.43    3.84
  -8   0  -2    1.13    0.42
  -8   0  -2    1.98    0.85
  -8   0  -1  237.33    9.75
  -8   0  -1  226.39    9.93
  -8   0   0  388.28   13.85
  -8   0   1  336.24   13.06
  -8   0   2  246.90   11.16
  -8   0   3   11.70    1.06
  -8   0   3   10.36    2.32
  -8   0   3   13.95    2.47
  -8   0   4  144.89    8.89
  -8   0   4  128.66    8.15
  -8   0   4  122.20    4.32
  -8   0   5    4.79    0.88
  -8   0   5    4.95    1.57
  -8   0   5    8.57    2.17
  -8   0   6    3.73    1.55
  -8   0   7    7.98    2.29
  -8   0   7    4.85    1.64
  -8   0   8   24.46    3.93
  -8   0   9   10.96    2.73
  -8   0  10   11.34    2.90
  -8   0  11   11.44    3.00
  -8   1  -6    2.42    1.18
  -8   1  -5  150.02    8.28
  -8   1  -4    2.98    0.99
  -8   1  -4    3.73    1.14
  -8   1  -3   41.64    4.02
  -8   1  -3   37.93    3.69
  -8   1  -2    2.74    0.88
  -8   1  -2    7.66    1.56
  -8   1  -1   14.41    2.37
  -8   1  -1   10.21    1.80
  -8   1   0    5.17    1.57
  -8   1   0    5.90    1.36
  -8   1   1   40.81    4.21
  -8   1   2   64.41    5.49
  -8   1   3  195.69    9.55
  -8   1   3  184.32    9.86
  -8   1   4   27.74    3.54
  -8   1   4   29.81    3.91
  -8   1   5   99.22    2.91
  -8   1   5  109.97    8.04
  -8   1   5  117.11    7.71
  -8   1   6   86.83    7.35
  -8   1   6   77.96    6.50
  -8   1   7   13.61    3.05
  -8   1   7   11.23    2.36
  -8   1   8   -0.73    0.71
  -8   1   9    0.51    0.66
  -8   1  10    3.62    1.37
  -8   1  11    7.41    2.31
  -8   2  -5   22.49    3.20
  -8   2  -4  167.90    8.90
  -8   2  -4  171.03    8.66
  -8   2  -3   12.56    2.27
  -8   2  -3   10.75    1.99
  -8   2  -2    6.18    1.64
  -8   2  -2    3.13    1.10
  -8   2  -1    1.82    0.96
  -8   2  -1    3.78    1.07
  -8   2   0    0.81    0.57
  -8   2   0    1.82    0.87
  -8   2   1    2.22    1.01
  -8   2   1    2.89    1.04
  -8   2   2   20.46    3.16
  -8   2   3    9.43    2.16
  -8   2   3   10.31    2.04
  -8   2   4    1.59    1.04
  -8   2   4    1.68    1.13
  -8   2   5    6.49    2.06
  -8   2   5    5.18    1.55
  -8   2   6   31.37    4.44
  -8   2   6   31.52    3.96
  -8   2   7    6.26    1.99
  -8   2   7    3.54    1.40
  -8   2   8    0.08    1.35
  -8   2   8    0.64    0.78
  -8   2   9    1.79    1.51
  -8   2   9   -0.69    1.06
  -8   2  10    2.02    1.42
  -8   3  -5   96.95    7.14
  -8   3  -4    2.56    1.25
  -8   3  -4    4.97    1.42
  -8   3  -3   51.96    5.03
  -8   3  -3   58.96    4.74
  -8   3  -2   58.59    5.16
  -8   3  -2   48.11    4.09
  -8   3  -1  101.03    6.90
  -8   3  -1   97.59    5.64
  -8   3   0  122.18    7.65
  -8   3   0  113.47    6.06
  -8   3   1    9.10    2.19
  -8   3   1   11.99    1.84
  -8   3   2   85.40    6.51
  -8   3   2   72.81    4.69
  -8   3   3  301.66   13.32
  -8   3   3  331.80   12.09
  -8   3   4  342.36   14.41
  -8   3   4  313.51   12.26
  -8   3   5   58.11    5.92
  -8   3   5   53.79    4.89
  -8   3   6   39.27    4.92
  -8   3   6   36.35    4.07
  -8   3   7   33.89    4.73
  -8   3   7   31.60    3.63
  -8   3   8   43.00    5.45
  -8   3   8   48.77    4.74
  -8   3   9   26.64    4.64
  -8   3   9   23.84    3.47
  -8   3  10    3.08    1.95
  -8   3  10    0.85    0.90
  -8   4  -4    6.38    1.96
  -8   4  -4    8.07    1.97
  -8   4  -3    0.38    0.60
  -8   4  -3    3.23    1.17
  -8   4  -2    2.33    1.21
  -8   4  -2    2.46    0.92
  -8   4  -1   55.00    5.17
  -8   4  -1   54.09    4.25
  -8   4   0   16.04    2.85
  -8   4   0   18.16    2.25
  -8   4   1  163.86    9.29
  -8   4   1  163.41    7.12
  -8   4   2  148.63    8.83
  -8   4   2  144.48    6.57
  -8   4   3   72.20    6.25
  -8   4   3   92.06    5.06
  -8   4   3   88.91    5.59
  -8   4   4   20.78    3.41
  -8   4   4   22.02    2.42
  -8   4   4   18.77    2.62
  -8   4   5   58.02    5.82
  -8   4   5   61.90    4.95
  -8   4   6    4.60    1.74
  -8   4   6    7.37    1.83
  -8   4   7   41.43    5.29
  -8   4   7   38.25    3.74
  -8   4   8   38.77    5.26
  -8   4   8   38.15    3.96
  -8   4   9    6.09    2.31
  -8   4   9    6.18    1.71
  -8   4  10   12.09    3.07
  -8   5  -4  115.37    8.30
  -8   5  -3    0.18    0.70
  -8   5  -3    1.59    0.65
  -8   5  -2   38.03    4.51
  -8   5  -2   30.28    3.27
  -8   5  -1    0.73    0.63
  -8   5  -1    2.13    0.79
  -8   5   0   93.76    7.11
  -8   5   0  101.86    5.60
  -8   5   1   21.42    3.31
  -8   5   1   23.24    2.46
  -8   5   2   33.16    4.21
  -8   5   2   32.31    2.80
  -8   5   3   39.43    4.67
  -8   5   3   36.32    3.37
  -8   5   3   34.80    2.89
  -8   5   4   72.29    6.39
  -8   5   4   66.32    4.07
  -8   5   4   66.74    4.80
  -8   5   5   75.42    6.68
  -8   5   5   70.78    4.28
  -8   5   5   68.87    5.03
  -8   5   6   94.74    7.82
  -8   5   7   18.56    3.46
  -8   5   7   21.08    2.55
  -8   5   8   30.54    4.64
  -8   5   9   22.39    4.18
  -8   5  10    9.41    2.71
  -8   6  -3   48.08    5.45
  -8   6  -3   39.27    4.02
  -8   6  -2    1.22    1.10
  -8   6  -2    0.57    0.68
  -8   6  -1  170.05   10.08
  -8   6  -1  155.56    7.49
  -8   6   0   55.69    5.58
  -8   6   0   40.67    3.47
  -8   6   1   78.37    6.68
  -8   6   1   91.88    4.98
  -8   6   2  146.02    9.28
  -8   6   2  138.55    6.00
  -8   6   3    2.75    0.73
  -8   6   3    3.71    1.02
  -8   6   3    2.99    0.73
  -8   6   4   17.05    3.21
  -8   6   4   20.68    2.46
  -8   6   4   17.38    1.85
  -8   6   5   -0.22    1.10
  -8   6   5    2.34    0.94
  -8   6   6    4.47    1.56
  -8   6   6    2.17    0.72
  -8   6   7    7.41    2.34
  -8   6   8    8.08    2.36
  -8   6   9   35.02    5.06
  -8   6  10   36.09    5.34
  -8   7  -3    0.06    1.01
  -8   7  -2   74.83    6.98
  -8   7  -2   80.85    5.67
  -8   7  -1    4.11    1.59
  -8   7  -1    2.16    0.76
  -8   7   0   45.11    5.31
  -8   7   0   43.62    3.62
  -8   7   1   92.33    7.42
  -8   7   1   78.64    4.59
  -8   7   2    0.11    0.99
  -8   7   2    4.32    0.98
  -8   7   2    3.67    0.95
  -8   7   3   11.27    2.44
  -8   7   3    9.89    1.51
  -8   7   4   -0.27    0.86
  -8   7   4    0.98    0.43
  -8   7   5   24.01    3.89
  -8   7   6   24.06    4.01
  -8   7   7    3.52    1.95
  -8   7   8    3.72    1.98
  -8   7   9    2.69    1.51
  -8   7  10    6.87    2.60
  -8   8  -2    6.75    2.16
  -8   8  -1   21.81    4.01
  -8   8   0   93.43    8.02
  -8   8   1   42.88    5.26
  -8   8   2   37.70    4.85
  -8   8   3   10.88    2.74
  -8   8   4   16.99    3.37
  -8   8   5   11.31    2.72
  -8   8   6    0.73    1.25
  -8   8   7    4.13    1.68
  -8   8   8    3.02    1.53
  -8   8   9    1.67    1.65
  -8   9  -1    2.56    1.67
  -8   9   0   24.03    4.18
  -8   9   1    2.01    1.30
  -8   9   2    2.48    1.24
  -8   9   3   43.74    5.43
  -8   9   4   44.48    5.46
  -8   9   5   29.61    4.58
  -8   9   6   80.10    7.59
  -8   9   7    8.09    2.47
  -8   9   8    8.38    2.40
  -8   9   9    5.27    1.94
  -8  10   0    5.00    2.22
  -8  10   1   12.95    3.33
  -8  10   2   12.30    3.02
  -8  10   3   13.39    2.98
  -8  10   4   13.34    3.21
  -8  10   5   32.53    4.81
  -8  10   6    1.49    1.36
  -8  10   7   33.40    5.16
  -8  10   8    9.84    2.73
  -8  11   1    0.43    1.12
  -8  11   2    3.34    1.89
  -8  11   3    3.41    1.98
  -8  11   4    9.55    2.75
  -8  11   5   13.48    3.40
  -8  11   6   43.72    5.87
  -8  11   7   15.69    3.62
  -7 -14  -5   37.99    4.94
  -7 -14  -4   15.06    3.33
  -7 -14  -3   -0.50    0.86
  -7 -14  -2    3.01    1.02
  -7 -14  -1    9.70    2.94
  -7 -13  -4   22.24    3.72
  -7 -13  -3   51.01    5.88
  -7 -13  -2   43.53    5.43
  -7 -13  -1   28.77    4.62
  -7 -13   0    3.92    1.89
  -7 -12  -3    8.35    2.21
  -7 -12  -2    3.97    1.81
  -7 -12  -1    0.84    1.16
  -7 -12   0    1.20    0.93
  -7 -12   1    2.45    1.91
  -7 -11  -2  119.64    8.70
  -7 -11  -1   46.58    5.54
  -7 -11   0   19.86    3.72
  -7 -11   1   10.77    2.73
  -7 -11   2   -0.49    0.93
  -7 -10  -5    8.67    1.19
  -7 -10  -2   52.85    5.58
  -7 -10  -1   85.47    7.23
  -7 -10   0   62.65    6.38
  -7 -10   1   52.28    5.98
  -7 -10   2   12.10    2.88
  -7 -10   3    4.00    1.56
  -7  -9  -5   16.82    1.63
  -7  -9  -1   78.44    6.74
  -7  -9   0   95.93    7.68
  -7  -9   1   58.64    6.11
  -7  -9   2   16.17    3.35
  -7  -9   3    0.96    0.72
  -7  -9   4    2.91    1.76
  -7  -9   4    0.09    1.49
  -7  -8  -6   80.94    2.59
  -7  -8  -5   32.71    2.26
  -7  -8  -4   70.83    4.03
  -7  -8   0   68.65    6.27
  -7  -8   1  108.85    8.17
  -7  -8   2   99.99    8.06
  -7  -8   3   62.43    6.53
  -7  -8   4   44.12    5.69
  -7  -8   5   18.36    4.04
  -7  -7  -6   68.53    2.71
  -7  -7  -5   17.46    1.62
  -7  -7  -4   44.62    3.04
  -7  -7   0   32.53    4.11
  -7  -7   1   30.22    4.09
  -7  -7   2   13.82    2.89
  -7  -7   3  163.12   10.44
  -7  -7   4  190.09   11.61
  -7  -7   5   51.30    6.11
  -7  -7   5   40.04    5.56
  -7  -7   6   21.22    4.11
  -7  -6  -6  205.04    6.03
  -7  -6  -5  183.82    6.13
  -7  -6  -5  192.71    9.20
  -7  -6  -4  276.52    8.63
  -7  -6  -4  286.91   11.19
  -7  -6  -3  235.11    8.42
  -7  -6  -3  247.09   10.20
  -7  -6  -2   94.95    6.00
  -7  -6  -1  150.86    7.74
  -7  -6   0    2.89    1.07
  -7  -6   1    2.91    1.16
  -7  -6   1    4.81    1.84
  -7  -6   2   95.60    7.45
  -7  -6   3  125.06    8.85
  -7  -6   4   30.67    4.38
  -7  -6   5   33.23    4.80
  -7  -6   6    2.44    1.30
  -7  -6   7    1.90    1.45
  -7  -5  -6   57.13    4.87
  -7  -5  -6   58.90    3.17
  -7  -5  -5  320.39   12.26
  -7  -5  -5  316.53    9.01
  -7  -5  -4  334.15    9.82
  -7  -5  -4  337.06   11.91
  -7  -5  -3  251.60    8.58
  -7  -5  -3  241.73    9.65
  -7  -5  -2  163.23    7.09
  -7  -5  -2  156.14    7.46
  -7  -5  -1  103.96    5.96
  -7  -5   0  324.20   11.44
  -7  -5   1    6.30    1.47
  -7  -5   1   10.67    2.33
  -7  -5   2   73.83    6.32
  -7  -5   2   76.83    5.33
  -7  -5   3   29.12    4.12
  -7  -5   3   32.97    3.58
  -7  -5   4   52.40    5.64
  -7  -5   5   83.70    7.43
  -7  -5   6   37.45    5.18
  -7  -5   7   23.55    4.39
  -7  -5   8   12.56    3.32
  -7  -4  -6   81.53    5.73
  -7  -4  -6   73.13    3.98
  -7  -4  -5   29.62    3.36
  -7  -4  -5   26.66    2.31
  -7  -4  -4   52.47    4.40
  -7  -4  -4   49.56    3.30
  -7  -4  -3   85.90    4.70
  -7  -4  -3   72.74    4.75
  -7  -4  -2   17.65    2.18
  -7  -4  -2   18.98    2.30
  -7  -4  -1   88.10    5.11
  -7  -4   0   33.70    3.07
  -7  -4   1   21.83    2.57
  -7  -4   2   40.83    4.49
  -7  -4   2   44.20    3.68
  -7  -4   3   49.31    5.13
  -7  -4   3   51.56    4.17
  -7  -4   4   15.54    2.35
  -7  -4   4   13.99    2.76
  -7  -4   5    0.21    0.58
  -7  -4   5   -1.80    1.75
  -7  -4   6   33.40    4.65
  -7  -4   6   30.33    4.46
  -7  -4   7   51.04    6.24
  -7  -4   8   45.74    6.00
  -7  -3  -6    4.95    1.16
  -7  -3  -6    6.24    1.53
  -7  -3  -5   64.48    4.96
  -7  -3  -5   49.82    3.42
  -7  -3  -4  184.58    8.64
  -7  -3  -4  192.40    7.29
  -7  -3  -3  171.36    8.10
  -7  -3  -3  158.21    6.70
  -7  -3  -2  335.62   10.89
  -7  -3  -2  330.22   10.41
  -7  -3  -1  137.85    6.69
  -7  -3  -1  133.27    5.93
  -7  -3   0    3.03    0.88
  -7  -3   1  103.59    5.18
  -7  -3   2   20.69    3.12
  -7  -3   2   16.46    2.04
  -7  -3   3    8.83    1.56
  -7  -3   3    7.05    1.85
  -7  -3   4    8.02    1.52
  -7  -3   4    9.46    2.22
  -7  -3   5    2.36    0.91
  -7  -3   5   22.47    3.92
  -7  -3   6    0.18    0.49
  -7  -3   6    1.05    1.00
  -7  -3   7    6.83    2.22
  -7  -3   8    9.02    2.76
  -7  -3   9   31.09    4.93
  -7  -2  -6  276.49   11.29
  -7  -2  -6  327.43   10.57
  -7  -2  -5  113.11    6.61
  -7  -2  -5  107.65    5.50
  -7  -2  -4   89.54    5.75
  -7  -2  -4  101.73    5.26
  -7  -2  -3   19.87    2.57
  -7  -2  -3   14.06    1.93
  -7  -2  -2  236.89    8.90
  -7  -2  -1  240.87    9.26
  -7  -2  -1  230.73    7.72
  -7  -2   0  393.54   13.03
  -7  -2   0  401.93   10.76
  -7  -2   1  182.43    6.53
  -7  -2   2  378.20   13.93
  -7  -2   2  379.00   10.60
  -7  -2   3  120.23    7.60
  -7  -2   3  112.42    5.29
  -7  -2   4   56.19    5.29
  -7  -2   4   55.17    3.76
  -7  -2   5   26.00    3.68
  -7  -2   5   27.61    2.77
  -7  -2   6    1.73    0.87
  -7  -2   6    2.22    1.18
  -7  -2   7    5.85    1.95
  -7  -2   8   51.92    5.94
  -7  -2   9   18.60    3.62
  -7  -2  10   12.36    3.39
  -7  -1  -6   74.39    4.99
  -7  -1  -6   86.64    5.93
  -7  -1  -5  474.10   13.93
  -7  -1  -5  476.64   15.02
  -7  -1  -4  248.47    9.13
  -7  -1  -4  243.91    9.86
  -7  -1  -3  154.47    6.95
  -7  -1  -3  138.31    7.07
  -7  -1  -2    1.70    0.73
  -7  -1  -2    3.79    1.12
  -7  -1  -1  216.18    8.82
  -7  -1   0   83.25    5.38
  -7  -1   0   77.93    3.61
  -7  -1   1  105.64    6.36
  -7  -1   1  105.24    4.17
  -7  -1   2   19.18    2.77
  -7  -1   2   19.28    1.71
  -7  -1   3  176.36    9.12
  -7  -1   3  175.56    6.08
  -7  -1   4  101.13    6.96
  -7  -1   4   90.59    4.41
  -7  -1   5   47.48    4.94
  -7  -1   5   46.40    3.28
  -7  -1   6   20.19    3.33
  -7  -1   6   18.69    2.24
  -7  -1   7    7.86    1.59
  -7  -1   7    8.14    2.14
  -7  -1   8    3.84    1.82
  -7  -1   9    0.78    0.89
  -7  -1  10    3.82    1.55
  -7  -1  11    0.40    0.76
  -7   0  -6  404.21   14.30
  -7   0  -5   39.43    3.68
  -7   0  -5   31.28    3.37
  -7   0  -4   98.77    5.76
  -7   0  -4  107.18    6.12
  -7   0  -3   13.70    2.04
  -7   0  -3   10.89    1.89
  -7   0  -2    2.86    0.96
  -7   0  -2    4.61    1.17
  -7   0  -1   23.85    2.65
  -7   0  -1   22.30    2.68
  -7   0   0  142.69    7.28
  -7   0   1  137.54    7.42
  -7   0   2  186.24    9.02
  -7   0   2  194.85    5.21
  -7   0   3  188.20    9.43
  -7   0   3  193.33    9.20
  -7   0   3  187.67    5.41
  -7   0   4  300.59   12.20
  -7   0   4  267.04    7.45
  -7   0   5   60.16    5.35
  -7   0   5   56.48    3.21
  -7   0   6    1.20    0.40
  -7   0   6    1.50    0.77
  -7   0   7    8.05    1.44
  -7   0   7    3.35    1.30
  -7   0   8    8.25    2.33
  -7   0   9   27.34    4.22
  -7   0  10   18.83    3.66
  -7   0  11    0.92    1.19
  -7   0  12    1.84    1.44
  -7   1  -6    7.36    1.85
  -7   1  -5  249.37   10.47
  -7   1  -5  263.24   10.74
  -7   1  -4  138.11    7.25
  -7   1  -4  132.24    7.03
  -7   1  -3  185.16    8.38
  -7   1  -3  202.57    8.46
  -7   1  -2  699.08   18.82
  -7   1  -2  674.58   17.92
  -7   1  -1  108.80    6.23
  -7   1  -1   93.36    5.33
  -7   1   0    0.27    0.79
  -7   1   0    0.71    0.35
  -7   1   1   34.78    3.67
  -7   1   2   92.52    6.22
  -7   1   3   97.77    6.63
  -7   1   3  103.70    6.33
  -7   1   4  285.47   12.17
  -7   1   4  247.62   10.81
  -7   1   4  267.43    5.91
  -7   1   5  242.47   11.57
  -7   1   5  231.36   10.69
  -7   1   5  228.58    6.19
  -7   1   6  174.40    9.53
  -7   1   6  184.09    6.03
  -7   1   7  120.12    7.62
  -7   1   7  118.17    5.15
  -7   1   8   39.38    4.50
  -7   1   9    6.50    1.91
  -7   1  10    3.63    1.88
  -7   1  11    2.65    1.60
  -7   1  12   16.45    3.56
  -7   2  -5   46.73    4.40
  -7   2  -5   33.98    3.64
  -7   2  -4   28.49    3.48
  -7   2  -4   36.97    3.65
  -7   2  -3  304.12   11.56
  -7   2  -3  280.48   10.56
  -7   2  -2   22.42    2.85
  -7   2  -2   22.38    2.55
  -7   2  -1   78.65    5.50
  -7   2  -1   77.98    4.79
  -7   2   0   75.45    5.37
  -7   2   0   61.67    4.12
  -7   2   1    2.09    1.03
  -7   2   1    0.74    0.43
  -7   2   2    1.96    1.07
  -7   2   3   35.20    3.49
  -7   2   3   36.55    4.06
  -7   2   4   38.44    3.82
  -7   2   4   38.28    4.33
  -7   2   5    1.35    0.90
  -7   2   5    0.57    1.10
  -7   2   6    1.62    0.34
  -7   2   6    1.14    0.97
  -7   2   6    2.96    1.42
  -7   2   7   14.57    3.01
  -7   2   7   14.65    2.44
  -7   2   7   13.67    1.40
  -7   2   8   37.14    4.18
  -7   2   9   34.47    4.25
  -7   2  10   48.03    5.16
  -7   2  11   -0.19    0.74
  -7   2  12   -0.29    1.32
  -7   3  -5   -0.47    0.40
  -7   3  -4  338.58   13.28
  -7   3  -4  324.63   12.03
  -7   3  -3   98.41    6.58
  -7   3  -3  100.00    5.89
  -7   3  -2  146.73    7.98
  -7   3  -2  156.56    7.30
  -7   3  -1   29.52    3.40
  -7   3  -1   27.47    2.67
  -7   3   0   67.73    5.34
  -7   3   0   76.77    4.50
  -7   3   1  217.35    9.92
  -7   3   1  207.80    7.80
  -7   3   2   16.48    2.67
  -7   3   2   19.89    2.18
  -7   3   3   37.12    4.09
  -7   3   3   36.61    3.38
  -7   3   4   48.72    4.87
  -7   3   4   60.01    4.60
  -7   3   5   65.99    5.82
  -7   3   5   63.62    4.95
  -7   3   6  316.82   13.82
  -7   3   6  321.04   12.50
  -7   3   7  173.10    4.58
  -7   3   7  182.48   10.62
  -7   3   7  170.67    8.40
  -7   3   7  177.31    4.59
  -7   3   8   23.22    3.91
  -7   3   8   21.91    3.07
  -7   3   9   11.97    2.93
  -7   3   9    9.98    2.19
  -7   3  10   -0.33    1.16
  -7   3  10    0.22    0.65
  -7   3  11   -0.98    1.46
  -7   3  11    0.83    0.95
  -7   4  -4    2.75    1.25
  -7   4  -4    2.18    0.98
  -7   4  -3  155.12    8.82
  -7   4  -3  134.31    7.13
  -7   4  -2   35.62    3.96
  -7   4  -2   27.92    2.93
  -7   4  -1  108.58    6.92
  -7   4  -1  123.13    6.10
  -7   4   0  176.55    9.02
  -7   4   0  158.03    6.71
  -7   4   1   85.70    6.19
  -7   4   1   87.97    4.65
  -7   4   2  234.40   10.73
  -7   4   2  230.64    7.97
  -7   4   3    0.12    0.48
  -7   4   3   -0.06    0.36
  -7   4   4   27.40    3.69
  -7   4   4   32.65    3.24
  -7   4   5    0.63    0.80
  -7   4   5   -0.11    0.65
  -7   4   6   51.16    5.35
  -7   4   6   44.39    4.14
  -7   4   7   74.56    6.59
  -7   4   7   61.96    4.56
  -7   4   8  117.86    8.73
  -7   4   8  128.83    7.02
  -7   4   9   58.86    6.32
  -7   4   9   56.54    4.77
  -7   4  10   31.06    4.81
  -7   4  10   35.15    3.92
  -7   4  11   25.59    4.45
  -7   5  -4   11.84    2.18
  -7   5  -3    0.10    0.96
  -7   5  -3    0.51    0.69
  -7   5  -2  166.44    9.37
  -7   5  -2  177.21    7.95
  -7   5  -1  191.73    9.84
  -7   5  -1  168.15    7.38
  -7   5   0   40.42    4.38
  -7   5   0   36.40    3.00
  -7   5   1   98.52    6.81
  -7   5   1   90.25    4.72
  -7   5   2    1.80    1.02
  -7   5   2    1.84    0.57
  -7   5   3   77.65    6.22
  -7   5   3   86.62    4.90
  -7   5   3   83.51    4.17
  -7   5   4   26.94    3.61
  -7   5   4   29.76    2.39
  -7   5   4   28.63    2.84
  -7   5   5    8.04    2.11
  -7   5   5    6.73    1.46
  -7   5   5    6.64    1.18
  -7   5   6   33.92    4.35
  -7   5   6   33.40    2.84
  -7   5   7    1.72    1.44
  -7   5   7    1.38    0.78
  -7   5   8    2.07    1.29
  -7   5   8    2.31    0.99
  -7   5   9    3.91    1.51
  -7   5   9    9.00    1.79
  -7   5  10   25.22    4.28
  -7   5  11   24.03    4.29
  -7   6  -3    0.98    0.86
  -7   6  -3    0.24    0.49
  -7   6  -2    2.04    1.25
  -7   6  -2    2.20    0.86
  -7   6  -1    2.42    1.24
  -7   6  -1    4.94    1.33
  -7   6   0  189.33   10.15
  -7   6   0  197.48    7.65
  -7   6   1   50.35    4.99
  -7   6   1   53.86    3.51
  -7   6   2  211.65   10.75
  -7   6   2  220.49    7.25
  -7   6   3  195.31   10.27
  -7   6   3  173.74    6.06
  -7   6   3  181.21    6.89
  -7   6   4    4.82    1.62
  -7   6   4    5.29    1.18
  -7   6   4    5.66    0.87
  -7   6   5    0.28    0.64
  -7   6   5    0.37    0.28
  -7   6   6    1.20    0.82
  -7   6   6    1.48    0.54
  -7   6   6    1.30    0.49
  -7   6   7   12.93    2.78
  -7   6   7   13.66    1.62
  -7   6   8    4.17    1.66
  -7   6   9    7.18    2.34
  -7   6  10   10.55    2.84
  -7   6  11   17.06    3.83
  -7   7  -3   11.46    2.17
  -7   7  -2  140.04    9.36
  -7   7  -2  139.93    7.34
  -7   7  -1    0.56    1.24
  -7   7  -1    0.60    0.56
  -7   7   0   24.80    3.67
  -7   7   0   25.12    2.54
  -7   7   1   60.96    5.81
  -7   7   1   68.44    3.94
  -7   7   2  127.14    8.39
  -7   7   2  124.81    5.02
  -7   7   2  138.15    5.17
  -7   7   3   31.79    4.14
  -7   7   3   33.33    2.43
  -7   7   3   31.64    2.07
  -7   7   4   91.96    7.16
  -7   7   4   93.69    3.27
  -7   7   5    7.70    2.10
  -7   7   5    9.17    0.77
  -7   7   5    9.61    0.80
  -7   7   6   30.48    4.22
  -7   7   7    0.80    1.02
  -7   7   8   16.18    3.17
  -7   7   9    2.29    1.62
  -7   7  10    7.15    2.48
  -7   7  11    8.08    2.64
  -7   8  -2    0.14    0.69
  -7   8  -1   57.66    6.04
  -7   8  -1   60.23    4.51
  -7   8   0    2.78    1.45
  -7   8   0    2.15    0.86
  -7   8   1   35.23    4.51
  -7   8   1   34.90    2.78
  -7   8   2   24.96    3.90
  -7   8   2   28.79    1.74
  -7   8   2   28.15    2.13
  -7   8   3   67.59    6.23
  -7   8   3   65.87    2.56
  -7   8   4   27.54    3.91
  -7   8   5  130.02    8.97
  -7   8   6    1.11    0.96
  -7   8   7    1.52    1.05
  -7   8   8   13.51    2.97
  -7   8   9   -0.12    1.04
  -7   8  10   10.03    2.74
  -7   8  11    0.66    0.97
  -7   9  -1   41.80    5.33
  -7   9   0    8.83    2.37
  -7   9   1    1.02    1.29
  -7   9   2   14.11    2.98
  -7   9   3    5.74    1.84
  -7   9   4   44.80    5.21
  -7   9   5   23.65    3.79
  -7   9   6   54.34    5.98
  -7   9   7   60.88    6.34
  -7   9   8    0.87    0.90
  -7   9   9   14.13    3.28
  -7   9  10    5.83    2.32
  -7   9  11   12.08    3.11
  -7  10   0   35.21    5.01
  -7  10   1   15.04    3.23
  -7  10   2   84.96    7.79
  -7  10   3    0.80    1.05
  -7  10   4    2.95    1.64
  -7  10   5    6.82    2.22
  -7  10   6   86.18    7.67
  -7  10   7   33.60    4.79
  -7  10   8   85.42    7.84
  -7  10   9    5.04    2.12
  -7  10  10    8.95    2.54
  -7  11   1   26.30    4.43
  -7  11   2    0.86    1.50
  -7  11   3    5.29    2.01
  -7  11   4    1.68    1.66
  -7  11   5    1.96    0.97
  -7  11   6    3.64    1.96
  -7  11   7   30.88    4.78
  -7  11   8   -2.09    1.35
  -7  11   9   -0.23    0.78
  -7  11  10   -1.42    0.89
  -7  12   2   26.62    4.71
  -7  12   3    8.54    2.64
  -7  12   4   -0.41    0.77
  -7  12   5    2.36    1.05
  -7  12   6   11.18    2.95
  -7  12   7    0.52    1.03
  -7  12   8    8.06    2.45
  -7  12   9   17.02    3.50
  -7  13   4   43.73    6.06
  -7  13   5    9.73    2.89
  -7  13   6   11.26    3.08
  -7  13   7    2.09    0.88
  -6 -14  -5   12.03    2.60
  -6 -14  -4   18.65    3.35
  -6 -14  -3   16.83    3.13
  -6 -14  -2    8.81    2.50
  -6 -14  -1    1.43    1.35
  -6 -13  -4   34.42    4.37
  -6 -13  -3   29.42    4.17
  -6 -13  -2   22.28    3.72
  -6 -13  -1   15.67    3.22
  -6 -13   0   19.39    3.65
  -6 -13   0   12.27    3.30
  -6 -12  -3   15.84    3.06
  -6 -12  -2   16.63    3.13
  -6 -12  -1   33.85    4.62
  -6 -12   0   23.92    3.90
  -6 -12   1   11.51    2.87
  -6 -12   1    7.50    2.46
  -6 -11  -2  122.69    8.40
  -6 -11  -1  167.91   10.12
  -6 -11   0   65.61    6.35
  -6 -11   1   12.35    2.65
  -6 -11   2    7.19    2.36
  -6 -11   2    3.46    1.37
  -6 -10  -5  352.58    9.33
  -6 -10  -2   36.49    4.32
  -6 -10  -1   99.46    7.46
  -6 -10   0   90.99    7.36
  -6 -10   1   77.12    6.93
  -6 -10   2   24.87    3.99
  -6 -10   3   11.90    3.05
  -6 -10   3   13.50    3.19
  -6  -9  -5   66.29    3.02
  -6  -9  -1    9.27    2.21
  -6  -9   0   22.03    3.44
  -6  -9   1   21.35    3.53
  -6  -9   2   34.42    4.61
  -6  -9   3   33.00    4.69
  -6  -9   4   71.70    7.47
  -6  -9   5   48.18    6.36
  -6  -8  -5  210.13    5.79
  -6  -8   0   34.45    4.16
  -6  -8   1    0.27    0.98
  -6  -8   2   10.77    2.49
  -6  -8   3   19.99    3.64
  -6  -8   4   25.50    4.15
  -6  -8   4   29.67    4.64
  -6  -8   5   52.82    6.40
  -6  -8   6    8.34    2.56
  -6  -7  -7   59.28    4.87
  -6  -7  -6   92.52    6.11
  -6  -7  -5  140.96    4.34
  -6  -7  -5  139.80    7.79
  -6  -7  -4  468.31   11.52
  -6  -7  -4  493.49   15.70
  -6  -7  -3  357.31   13.04
  -6  -7  -2  352.98   12.87
  -6  -7  -1    0.91    0.77
  -6  -7   0   24.21    3.35
  -6  -7   1   49.24    5.04
  -6  -7   2    8.51    2.07
  -6  -7   3   13.52    2.91
  -6  -7   4   52.63    5.72
  -6  -7   5   43.04    5.59
  -6  -7   6   48.28    6.11
  -6  -7   7   37.30    5.59
  -6  -6  -8    1.87    0.70
  -6  -6  -7   10.88    2.04
  -6  -6  -6   73.04    5.44
  -6  -6  -6   83.22    5.62
  -6  -6  -5   52.24    4.40
  -6  -6  -5   52.65    4.41
  -6  -6  -5   52.05    2.47
  -6  -6  -4    7.05    1.03
  -6  -6  -4    4.34    1.35
  -6  -6  -3   19.66    2.60
  -6  -6  -2   65.70    4.82
  -6  -6  -1  163.94    7.88
  -6  -6   0   94.71    5.93
  -6  -6   1  139.01    8.29
  -6  -6   1  146.84    7.70
  -6  -6   2   51.79    5.13
  -6  -6   2   53.75    4.67
  -6  -6   3   39.77    4.70
  -6  -6   4   11.23    2.54
  -6  -6   5   -0.95    1.16
  -6  -6   5    1.40    1.48
  -6  -6   6    2.28    1.29
  -6  -6   7   12.10    2.97
  -6  -5  -8   17.29    2.60
  -6  -5  -7   28.40    3.23
  -6  -5  -6  143.33    7.45
  -6  -5  -6  137.27    4.42
  -6  -5  -5  301.91   11.08
  -6  -5  -5  295.10   11.03
  -6  -5  -5  284.05    7.52
  -6  -5  -4   88.20    3.93
  -6  -5  -4   99.31    5.76
  -6  -5  -3   35.20    2.61
  -6  -5  -3   32.62    3.13
  -6  -5  -2  203.61    8.34
  -6  -5  -1  389.83   12.39
  -6  -5   0  400.31   12.74
  -6  -5   1  128.34    7.73
  -6  -5   1  147.73    7.17
  -6  -5   2    9.35    1.79
  -6  -5   2   10.05    2.12
  -6  -5   3   52.17    5.21
  -6  -5   3   66.61    4.99
  -6  -5   4   41.82    4.79
  -6  -5   5   98.30    7.74
  -6  -5   6   34.82    4.84
  -6  -5   7   31.71    4.80
  -6  -5   8    5.02    2.08
  -6  -4  -8  320.73   12.36
  -6  -4  -7  180.54    8.55
  -6  -4  -6   38.20    2.45
  -6  -4  -6   38.73    3.69
  -6  -4  -5   11.07    1.28
  -6  -4  -5   12.61    2.08
  -6  -4  -4   10.86    1.33
  -6  -4  -4   10.75    1.76
  -6  -4  -4   12.68    2.03
  -6  -4  -3    9.65    1.32
  -6  -4  -3    9.76    1.63
  -6  -4  -2   93.27    4.69
  -6  -4  -2   87.38    4.94
  -6  -4  -1  217.03    8.17
  -6  -4   0  971.99   22.32
  -6  -4   1  182.20    7.54
  -6  -4   2  121.60    7.49
  -6  -4   2  130.06    6.40
  -6  -4   3   97.70    6.90
  -6  -4   3   99.90    5.77
  -6  -4   4    5.27    1.33
  -6  -4   4    8.87    2.09
  -6  -4   5    4.67    1.41
  -6  -4   5    4.86    1.70
  -6  -4   6   -0.90    0.66
  -6  -4   7   11.51    2.69
  -6  -4   8    2.04    1.49
  -6  -4   9   24.89    4.45
  -6  -3  -8  110.11    6.94
  -6  -3  -7  163.13    8.09
  -6  -3  -6   49.89    4.16
  -6  -3  -5  182.94    6.44
  -6  -3  -5  191.50    8.37
  -6  -3  -4    1.07    0.55
  -6  -3  -4    0.52    0.49
  -6  -3  -3  141.82    5.70
  -6  -3  -3  140.02    6.20
  -6  -3  -2    7.57    1.35
  -6  -3  -2   11.47    1.60
  -6  -3  -1  119.87    5.75
  -6  -3  -1  116.33    5.31
  -6  -3   0    2.32    0.77
  -6  -3   1   48.82    3.37
  -6  -3   2    2.03    0.55
  -6  -3   2    4.27    1.36
  -6  -3   3    3.92    1.07
  -6  -3   3    3.72    1.31
  -6  -3   4   10.21    1.69
  -6  -3   4    8.37    2.03
  -6  -3   5   -0.06    0.47
  -6  -3   5    0.21    0.54
  -6  -3   6    4.29    1.32
  -6  -3   6    4.06    1.62
  -6  -3   6    2.63    1.06
  -6  -3   7   -0.26    0.98
  -6  -3   8    7.20    2.36
  -6  -3   9    2.38    1.47
  -6  -3  10   10.13    2.88
  -6  -2  -7   61.62    4.98
  -6  -2  -6  526.33   15.58
  -6  -2  -5  425.33   11.67
  -6  -2  -5  407.13   13.21
  -6  -2  -4   61.03    3.63
  -6  -2  -4   59.32    4.32
  -6  -2  -3    0.78    0.47
  -6  -2  -3    1.40    0.69
  -6  -2  -2  228.97    8.00
  -6  -2  -2  221.77    7.50
  -6  -2  -1  154.54    6.61
  -6  -2  -1  156.96    5.79
  -6  -2   0  439.52   13.14
  -6  -2   0  448.84   11.32
  -6  -2   1  356.54    9.73
  -6  -2   2  558.15   16.39
  -6  -2   2  480.15   12.55
  -6  -2   3  305.50   12.05
  -6  -2   3  289.07    9.13
  -6  -2   4  111.69    7.19
  -6  -2   4  105.63    5.31
  -6  -2   5   63.08    5.55
  -6  -2   5   65.03    4.31
  -6  -2   6    2.64    1.04
  -6  -2   6    1.61    0.84
  -6  -2   7    7.95    1.70
  -6  -2   7    6.19    1.94
  -6  -2   8    9.33    2.49
  -6  -2   9    8.22    2.52
  -6  -2  10    0.75    1.08
  -6  -2  11    2.99    1.77
  -6  -1  -7  247.67   10.51
  -6  -1  -6   98.82    6.15
  -6  -1  -5   44.47    3.74
  -6  -1  -5   45.01    3.45
  -6  -1  -4  482.67   14.30
  -6  -1  -4  493.02   13.29
  -6  -1  -3  511.54   14.58
  -6  -1  -3  525.73   13.86
  -6  -1  -2  507.13   14.17
  -6  -1  -2  499.80   13.58
  -6  -1  -1  327.66   10.53
  -6  -1   0  147.46    6.71
  -6  -1   0  141.19    4.89
  -6  -1   1    0.08    0.39
  -6  -1   1    1.12    0.42
  -6  -1   2  470.24   11.14
  -6  -1   3  294.63   11.44
  -6  -1   3  289.87    8.32
  -6  -1   4  349.03   13.29
  -6  -1   4  358.64   10.07
  -6  -1   5  134.90    8.06
  -6  -1   5  151.99    6.26
  -6  -1   6  112.51    7.59
  -6  -1   6  116.36    5.79
  -6  -1   7   39.29    4.54
  -6  -1   7   47.25    3.83
  -6  -1   8    9.02    1.84
  -6  -1   8    6.03    2.07
  -6  -1   9    0.48    0.85
  -6  -1  10    2.08    1.46
  -6  -1  11    4.77    1.74
  -6   0  -7   79.40    5.75
  -6   0  -6  117.81    6.74
  -6   0  -5  288.80   10.87
  -6   0  -5  297.87   10.40
  -6   0  -4  289.88   10.20
  -6   0  -4  290.09   10.00
  -6   0  -3  429.69   12.79
  -6   0  -3  420.33   12.43
  -6   0  -2   53.12    3.78
  -6   0  -2   66.20    4.22
  -6   0  -1   80.48    4.65
  -6   0  -1   98.55    5.31
  -6   0   0    9.14    1.67
  -6   0   1  227.31    9.09
  -6   0   1  232.41    5.78
  -6   0   2    1.41    0.76
  -6   0   2    1.28    0.33
  -6   0   3   30.01    3.26
  -6   0   3   33.37    1.98
  -6   0   4    0.75    0.31
  -6   0   4   -0.01    0.62
  -6   0   5   57.08    4.97
  -6   0   5   62.43    3.43
  -6   0   6   73.99    5.88
  -6   0   6   75.38    4.20
  -6   0   7   13.57    1.93
  -6   0   7   12.58    2.44
  -6   0   8   49.97    5.13
  -6   0   8   48.90    3.92
  -6   0   9   -0.59    0.62
  -6   0  10    4.74    1.99
  -6   0  11    0.91    1.20
  -6   0  12   -0.27    1.35
  -6   1  -6  136.52    7.47
  -6   1  -5  123.23    6.70
  -6   1  -5  127.12    6.78
  -6   1  -4  535.31   15.68
  -6   1  -4  567.38   16.14
  -6   1  -3  210.12    8.24
  -6   1  -3  236.02    8.98
  -6   1  -2  267.62    9.15
  -6   1  -2  247.18    9.32
  -6   1  -1  290.81    9.42
  -6   1  -1  269.46    9.83
  -6   1   0  121.41    5.63
  -6   1   0  134.15    6.59
  -6   1   1    2.61    0.99
  -6   1   2    0.63    0.61
  -6   1   3   15.79    0.88
  -6   1   3   19.95    2.58
  -6   1   3   11.70    2.16
  -6   1   4    6.56    0.77
  -6   1   4    6.26    1.53
  -6   1   5   31.91    3.57
  -6   1   5   36.79    2.25
  -6   1   6   10.05    1.34
  -6   1   6    9.61    2.10
  -6   1   7   97.57    6.59
  -6   1   7  104.69    4.99
  -6   1   8   39.73    4.38
  -6   1   8   46.84    3.51
  -6   1   9   17.95    3.09
  -6   1  10    1.76    1.09
  -6   1  11    0.21    1.02
  -6   1  12   -1.00    1.29
  -6   1  13    8.28    2.55
  -6   2  -6   38.83    3.96
  -6   2  -5  115.22    6.61
  -6   2  -4   22.02    2.76
  -6   2  -4   17.82    2.35
  -6   2  -3  182.77    8.31
  -6   2  -3  185.48    7.87
  -6   2  -2  248.27    9.52
  -6   2  -2  225.90    8.28
  -6   2  -1    1.33    0.76
  -6   2  -1    0.78    0.36
  -6   2   0   41.47    3.70
  -6   2   0   51.39    3.39
  -6   2   1    3.74    1.05
  -6   2   1    5.02    1.05
  -6   2   2  335.06   12.14
  -6   2   3  185.45    8.82
  -6   2   3  188.24    7.89
  -6   2   4    3.94    1.30
  -6   2   4    4.36    1.20
  -6   2   5   35.66    4.00
  -6   2   5   31.46    3.38
  -6   2   5   32.79    1.66
  -6   2   6  296.12   11.77
  -6   2   6  299.86    7.83
  -6   2   7  122.25    6.99
  -6   2   7  120.87    4.92
  -6   2   8   86.75    6.19
  -6   2   9   51.09    4.91
  -6   2  10   16.91    2.89
  -6   2  11   36.44    4.60
  -6   2  12   11.21    2.66
  -6   2  13    4.05    1.87
  -6   3  -5    0.65    0.68
  -6   3  -4  115.18    7.05
  -6   3  -4  126.11    6.78
  -6   3  -3  201.06    9.26
  -6   3  -3  174.95    7.68
  -6   3  -2   59.80    4.69
  -6   3  -2   56.96    3.96
  -6   3  -1  180.27    8.28
  -6   3  -1  167.23    6.71
  -6   3   0   85.91    5.53
  -6   3   0   77.38    4.18
  -6   3   1   81.72    5.47
  -6   3   1   83.63    4.25
  -6   3   2   19.90    2.63
  -6   3   2   15.02    1.66
  -6   3   3   14.54    2.41
  -6   3   3   19.81    2.29
  -6   3   4  190.59    9.28
  -6   3   4  188.04    8.00
  -6   3   5   40.19    4.21
  -6   3   5   41.47    3.68
  -6   3   6  125.44    7.95
  -6   3   6  131.03    3.96
  -6   3   6  137.85    3.98
  -6   3   6  135.51    6.56
  -6   3   7    0.34    0.66
  -6   3   7    0.83    0.45
  -6   3   7    0.36    0.64
  -6   3   8   22.50    2.13
  -6   3   8   25.25    3.79
  -6   3   8   23.52    3.03
  -6   3   9    4.81    1.45
  -6   3  10   34.85    4.01
  -6   3  11   -0.45    0.91
  -6   3  12    3.58    1.55
  -6   4  -5   83.59    5.90
  -6   4  -4    5.75    1.46
  -6   4  -3   -0.87    0.85
  -6   4  -3    0.79    0.56
  -6   4  -2  124.14    7.18
  -6   4  -2  122.28    6.06
  -6   4  -1   80.20    5.66
  -6   4  -1   88.95    4.70
  -6   4   0  408.97   14.12
  -6   4   0  437.13   11.85
  -6   4   1  486.99   15.36
  -6   4   1  450.40   11.71
  -6   4   2   83.37    5.79
  -6   4   2   98.06    4.34
  -6   4   3  146.33    7.92
  -6   4   3  132.47    6.00
  -6   4   3  135.92    5.26
  -6   4   4    0.25    0.60
  -6   4   4    0.70    0.50
  -6   4   5   11.93    2.41
  -6   4   5   17.14    2.31
  -6   4   6   51.01    5.12
  -6   4   6   60.70    3.98
  -6   4   7  146.06    8.94
  -6   4   7  146.01    6.83
  -6   4   7  147.42    4.56
  -6   4   8   27.77    2.14
  -6   4   8   27.59    2.97
  -6   4   8   26.13    3.82
  -6   4   9   47.86    3.22
  -6   4   9   58.37    5.95
  -6   4   9   54.34    4.45
  -6   4  10   19.54    3.50
  -6   4  10   17.86    2.69
  -6   4  11   45.31    5.84
  -6   4  11   47.08    4.63
  -6   4  12    7.61    2.56
  -6   5  -4   66.15    5.09
  -6   5  -3   41.17    4.47
  -6   5  -3   40.82    3.72
  -6   5  -2  193.10    9.72
  -6   5  -2  187.35    7.92
  -6   5  -1    0.79    1.00
  -6   5  -1    0.16    0.37
  -6   5   0    9.78    2.03
  -6   5   0    6.27    1.15
  -6   5   1  166.54    8.53
  -6   5   1  168.30    6.12
  -6   5   2  644.06   19.08
  -6   5   2  616.53   14.13
  -6   5   3   23.10    3.14
  -6   5   3   22.82    1.83
  -6   5   3   21.58    2.14
  -6   5   4  237.10   10.82
  -6   5   4  249.54    8.39
  -6   5   4  229.17    6.88
  -6   5   5   13.98    2.54
  -6   5   5   11.06    1.70
  -6   5   6   15.18    2.78
  -6   5   6    9.83    1.42
  -6   5   7   44.71    4.88
  -6   5   7   46.83    3.33
  -6   5   7   46.69    2.05
  -6   5   8   25.20    3.73
  -6   5   8   27.60    2.65
  -6   5   8   25.44    1.85
  -6   5   9    8.44    2.29
  -6   5   9   12.29    1.48
  -6   5   9   11.67    1.90
  -6   5  10    1.17    0.93
  -6   5  10   -0.38    0.41
  -6   5  11    6.01    2.25
  -6   5  12   30.32    4.83
  -6   6  -4   18.82    2.77
  -6   6  -3   10.79    1.99
  -6   6  -2   54.50    5.20
  -6   6  -2   55.08    4.21
  -6   6  -1   12.17    2.44
  -6   6  -1    9.20    1.54
  -6   6   0   29.40    3.65
  -6   6   0   38.58    2.94
  -6   6   1  118.81    7.35
  -6   6   1  116.86    4.92
  -6   6   2   13.92    2.47
  -6   6   2   14.88    1.51
  -6   6   3  350.92   13.74
  -6   6   3  358.36    9.66
  -6   6   3  358.67    8.67
  -6   6   4    4.23    1.43
  -6   6   4    2.06    0.56
  -6   6   4    2.40    0.49
  -6   6   5   47.00    4.75
  -6   6   5   42.53    2.14
  -6   6   5   37.66    2.12
  -6   6   6    1.04    0.86
  -6   6   6    0.52    0.19
  -6   6   6    0.55    0.27
  -6   6   7    0.39    0.73
  -6   6   7    0.54    0.34
  -6   6   7   -0.22    0.48
  -6   6   8   24.61    3.77
  -6   6   8   23.22    2.11
  -6   6   8   20.87    1.63
  -6   6   9    7.10    2.21
  -6   6   9    9.28    1.45
  -6   6  10   17.07    3.53
  -6   6  11    3.29    1.63
  -6   6  12    3.15    1.52
  -6   7  -3   52.51    4.60
  -6   7  -2  113.69    7.97
  -6   7  -2  111.21    6.31
  -6   7  -1   68.31    5.98
  -6   7  -1   57.73    4.13
  -6   7   0    0.15    0.59
  -6   7   0   -0.08    0.55
  -6   7   1    1.18    1.16
  -6   7   1    1.80    0.45
  -6   7   2   72.68    5.90
  -6   7   2   77.80    3.17
  -6   7   2   78.79    3.49
  -6   7   3   94.98    6.78
  -6   7   3   76.18    3.18
  -6   7   3   77.53    2.83
  -6   7   4   17.94    2.95
  -6   7   5   95.68    6.98
  -6   7   6   78.23    6.43
  -6   7   7  114.39    8.06
  -6   7   7  115.43    3.78
  -6   7   8    3.24    1.39
  -6   7   9   16.80    3.29
  -6   7  10   -0.45    0.99
  -6   7  11    4.86    1.98
  -6   7  12   -0.25    0.91
  -6   8  -3   40.43    4.20
  -6   8  -2   84.18    5.75
  -6   8  -1    5.06    1.74
  -6   8  -1    7.28    1.53
  -6   8   0   69.32    6.21
  -6   8   0   78.23    4.62
  -6   8   1   -0.13    0.94
  -6   8   1    1.56    0.63
  -6   8   2   28.08    3.91
  -6   8   2   38.39    2.30
  -6   8   3   69.32    5.98
  -6   8   4    5.04    1.79
  -6   8   5   -0.85    0.81
  -6   8   6   94.54    7.24
  -6   8   7   49.47    5.28
  -6   8   8  131.09    8.98
  -6   8   9   41.33    5.11
  -6   8  10    5.50    2.04
  -6   8  11    1.78    1.61
  -6   8  12   12.81    3.07
  -6   9  -2    9.28    2.05
  -6   9  -1   58.79    4.54
  -6   9   0    3.33    1.39
  -6   9   0    2.96    0.91
  -6   9   1   34.36    4.50
  -6   9   2    1.24    1.19
  -6   9   3   -0.16    0.60
  -6   9   4    1.67    1.01
  -6   9   5  121.39    8.39
  -6   9   6    7.13    1.98
  -6   9   7   62.80    6.20
  -6   9   8   18.44    3.33
  -6   9   9    6.38    2.34
  -6   9  10   15.74    3.32
  -6   9  11    1.84    1.08
  -6   9  12   -0.06    1.07
  -6  10   1   47.06    5.47
  -6  10   2   39.89    4.92
  -6  10   3   44.30    5.18
  -6  10   4    0.72    0.93
  -6  10   5   16.54    3.14
  -6  10   6    5.37    1.99
  -6  10   7   10.78    2.52
  -6  10   8   22.17    3.72
  -6  10   9   64.22    6.55
  -6  10  10    2.73    1.54
  -6  10  11   12.52    3.01
  -6  10  12    5.47    2.33
  -6  11   2   25.76    4.21
  -6  11   3    0.99    0.94
  -6  11   4   14.80    3.33
  -6  11   5    6.39    2.06
  -6  11   6   10.76    2.90
  -6  11   7   11.89    2.91
  -6  11   8    1.56    0.91
  -6  11   9    1.83    1.52
  -6  11  10   15.88    3.36
  -6  11  11   14.52    3.30
  -6  11  12   27.35    4.51
  -6  12   3   16.75    3.66
  -6  12   4    0.40    0.98
  -6  12   5    2.57    1.79
  -6  12   6    5.09    2.01
  -6  12   7    5.42    2.18
  -6  12   8    3.69    1.63
  -6  12   9   -0.34    1.00
  -6  12  10    4.28    1.47
  -6  12  11   -0.14    1.52
  -6  13   4   52.51    6.34
  -6  13   5   39.49    5.48
  -6  13   6    0.53    1.25
  -6  13   7   25.99    4.43
  -6  13   8    0.50    1.13
  -6  13   9    0.20    1.09
  -6  14   6   21.74    4.11
  -6  14   7    5.50    2.05
  -6  14   8   27.07    4.93
  -5 -15  -2   20.60    4.07
  -5 -14  -6   -0.17    0.54
  -5 -14  -5   16.22    2.85
  -5 -14  -4    3.53    1.37
  -5 -14  -3    5.75    1.92
  -5 -14  -2    2.35    1.21
  -5 -14  -1   14.51    2.93
  -5 -14  -1   11.33    3.08
  -5 -14   0   35.48    5.47
  -5 -13  -5    1.05    0.46
  -5 -13  -4   18.57    3.08
  -5 -13  -3   24.28    3.52
  -5 -13  -2   25.36    3.77
  -5 -13  -1    6.59    1.88
  -5 -13   0    5.80    1.89
  -5 -13   0    4.47    1.71
  -5 -13   1   11.31    2.71
  -5 -12  -4    4.76    1.52
  -5 -12  -3   12.61    2.40
  -5 -12  -2   24.01    3.45
  -5 -12  -1   37.05    4.51
  -5 -12   0   55.55    5.69
  -5 -12   1   50.00    5.60
  -5 -12   1   50.21    6.04
  -5 -12   2   20.66    4.16
  -5 -11  -6   98.20    2.98
  -5 -11  -5    3.40    0.79
  -5 -11  -4    0.39    0.37
  -5 -11  -3    3.22    1.22
  -5 -11  -2    6.62    1.84
  -5 -11  -1   14.45    2.71
  -5 -11   0    6.74    1.85
  -5 -11   1    2.00    1.12
  -5 -11   2   25.23    4.37
  -5 -11   3   21.45    4.22
  -5 -10  -7   53.07    4.65
  -5 -10  -5  101.78    4.14
  -5 -10  -4    6.59    1.28
  -5 -10  -2    3.21    1.32
  -5 -10  -1    2.58    1.38
  -5 -10   0    1.21    1.08
  -5 -10   1    8.53    2.05
  -5 -10   2   11.54    2.65
  -5 -10   2   12.52    2.91
  -5 -10   3   59.93    6.60
  -5 -10   4   22.73    4.32
  -5  -9  -9   56.17    4.78
  -5  -9  -8   23.20    2.97
  -5  -9  -7    1.59    0.98
  -5  -9  -6   32.59    3.49
  -5  -9  -5   36.35    2.03
  -5  -9  -1  103.34    6.92
  -5  -9   0   11.07    2.32
  -5  -9   1    6.56    1.83
  -5  -9   2    4.57    1.62
  -5  -9   3   13.50    2.78
  -5  -9   3   17.64    3.44
  -5  -9   4   57.11    6.43
  -5  -9   5   42.73    5.86
  -5  -8  -9    1.86    0.90
  -5  -8  -8   29.17    3.29
  -5  -8  -7    0.40    0.56
  -5  -8  -6    2.19    0.92
  -5  -8  -5  105.90    3.20
  -5  -8  -5  108.08    3.30
  -5  -8   0   31.97    3.81
  -5  -8   1   29.23    3.76
  -5  -8   2    4.20    1.63
  -5  -8   3   85.95    7.05
  -5  -8   4   39.38    5.16
  -5  -8   5    6.36    2.18
  -5  -8   6   51.98    6.34
  -5  -7  -9  101.01    6.32
  -5  -7  -8   28.24    3.21
  -5  -7  -7    7.20    1.61
  -5  -7  -6    3.21    1.14
  -5  -7  -6    3.35    1.04
  -5  -7  -5   31.44    1.27
  -5  -7  -5   34.27    3.65
  -5  -7  -4  264.85   10.69
  -5  -7  -3  453.14   14.65
  -5  -7  -2  461.43   14.85
  -5  -7  -1  558.43   16.97
  -5  -7   0  286.73   11.69
  -5  -7   0  292.17   11.51
  -5  -7   1   55.67    5.06
  -5  -7   2    1.04    0.77
  -5  -7   3   24.85    3.59
  -5  -7   4   31.83    4.26
  -5  -7   4   26.58    4.13
  -5  -7   5   91.11    7.85
  -5  -7   6    6.91    2.15
  -5  -7   7    4.18    1.77
  -5  -6  -9  115.16    6.93
  -5  -6  -8  125.72    6.88
  -5  -6  -7   21.63    2.70
  -5  -6  -6    9.84    1.97
  -5  -6  -6    7.97    1.63
  -5  -6  -5   17.17    2.46
  -5  -6  -5   18.93    2.46
  -5  -6  -5   20.07    0.97
  -5  -6  -4   25.70    1.69
  -5  -6  -4   24.26    2.82
  -5  -6  -3   53.05    4.16
  -5  -6  -2  170.48    7.81
  -5  -6  -1   35.10    3.37
  -5  -6   0  180.98    8.27
  -5  -6   1  172.02    8.83
  -5  -6   1  184.27    8.52
  -5  -6   2  151.91    8.63
  -5  -6   2  166.93    8.29
  -5  -6   3   55.73    5.20
  -5  -6   4   12.25    2.65
  -5  -6   5   10.90    2.66
  -5  -6   6    0.07    0.78
  -5  -6   7   12.53    3.16
  -5  -6   8    6.69    2.30
  -5  -5  -9  444.96   15.01
  -5  -5  -8  448.56   14.45
  -5  -5  -7  259.11   10.08
  -5  -5  -6    5.48    1.34
  -5  -5  -5  228.41    9.26
  -5  -5  -5  232.73    9.10
  -5  -5  -5  227.37    5.40
  -5  -5  -4  195.07    5.47
  -5  -5  -4  203.69    8.29
  -5  -5  -3  132.71    6.40
  -5  -5  -2   20.91    2.42
  -5  -5  -1   17.38    2.23
  -5  -5   0    7.45    1.47
  -5  -5   1   40.75    3.95
  -5  -5   1   39.54    3.49
  -5  -5   2   39.77    4.09
  -5  -5   2   42.89    3.76
  -5  -5   3    3.18    1.13
  -5  -5   3    2.46    1.21
  -5  -5   4   10.10    2.02
  -5  -5   4   13.68    2.68
  -5  -5   5   49.44    5.18
  -5  -5   5   45.99    5.10
  -5  -5   6   22.34    3.70
  -5  -5   7    2.52    1.62
  -5  -5   8   -2.17    1.37
  -5  -5   9   10.09    3.01
  -5  -4  -9   31.74    3.53
  -5  -4  -8  186.84    8.80
  -5  -4  -7  155.63    7.43
  -5  -4  -6   37.67    3.42
  -5  -4  -5   20.85    1.52
  -5  -4  -5   20.44    2.42
  -5  -4  -4    6.39    0.88
  -5  -4  -4    7.94    1.42
  -5  -4  -4    8.26    1.54
  -5  -4  -3    7.95    1.07
  -5  -4  -3    7.91    1.38
  -5  -4  -2  164.36    6.76
  -5  -4  -1  124.97    5.71
  -5  -4   0  129.69    5.89
  -5  -4   1  345.99   10.85
  -5  -4   2   90.07    5.96
  -5  -4   2   80.23    4.83
  -5  -4   3  272.84   11.51
  -5  -4   3  268.59    9.94
  -5  -4   4  105.10    7.14
  -5  -4   4  121.41    6.54
  -5  -4   5    6.24    1.53
  -5  -4   5    4.07    1.32
  -5  -4   6    4.20    1.74
  -5  -4   7    0.72    0.94
  -5  -4   8    0.75    1.19
  -5  -4   9    0.20    0.75
  -5  -4  10    4.11    1.93
  -5  -3  -9  113.27    7.00
  -5  -3  -8   79.09    5.48
  -5  -3  -7  263.42   10.29
  -5  -3  -6  112.88    6.02
  -5  -3  -5  142.41    6.67
  -5  -3  -5  141.75    4.97
  -5  -3  -4  260.67    9.20
  -5  -3  -4  246.05    7.03
  -5  -3  -3  366.26    9.33
  -5  -3  -3  355.14   10.56
  -5  -3  -2  467.40   11.62
  -5  -3  -2  468.98   12.30
  -5  -3  -1  265.07    8.31
  -5  -3   0   15.57    1.76
  -5  -3   1    5.66    1.09
  -5  -3   2  194.30    8.78
  -5  -3   2  205.89    7.51
  -5  -3   3  155.95    8.13
  -5  -3   3  170.56    7.05
  -5  -3   4  206.84    9.87
  -5  -3   4  213.75    8.40
  -5  -3   5  144.46    8.43
  -5  -3   5  141.35    7.00
  -5  -3   6   43.96    4.82
  -5  -3   6   49.37    4.24
  -5  -3   7  103.10    7.76
  -5  -3   8   21.17    3.65
  -5  -3   9    5.04    2.06
  -5  -3  10   -0.66    1.15
  -5  -3  11    4.06    2.40
  -5  -2  -8  103.72    6.43
  -5  -2  -7   29.21    3.18
  -5  -2  -6   36.75    3.37
  -5  -2  -5  206.60    6.92
  -5  -2  -5  205.44    8.12
  -5  -2  -4   78.67    3.75
  -5  -2  -4   65.83    4.23
  -5  -2  -3    2.29    0.59
  -5  -2  -3    3.09    0.84
  -5  -2  -2  663.47   15.35
  -5  -2  -2  681.16   15.40
  -5  -2  -1  205.48    7.13
  -5  -2  -1  196.21    6.43
  -5  -2   0    8.69    1.16
  -5  -2   1   71.96    3.60
  -5  -2   2  126.94    6.66
  -5  -2   2  124.22    5.09
  -5  -2   3  144.60    7.56
  -5  -2   3  138.38    5.75
  -5  -2   4   81.66    5.78
  -5  -2   4   83.39    4.55
  -5  -2   5   14.31    2.46
  -5  -2   5   18.12    2.21
  -5  -2   6   42.97    4.51
  -5  -2   6   40.37    3.60
  -5  -2   7    2.98    1.07
  -5  -2   7    3.56    1.41
  -5  -2   8   41.77    4.88
  -5  -2   9   -0.29    0.88
  -5  -2  10    0.47    0.84
  -5  -2  11    2.84    1.58
  -5  -1  -8   -0.78    0.76
  -5  -1  -7    1.96    0.79
  -5  -1  -6  289.33   10.63
  -5  -1  -5  202.50    7.34
  -5  -1  -5  192.71    7.98
  -5  -1  -4  430.12   11.39
  -5  -1  -4  407.08   12.19
  -5  -1  -3  532.12   13.14
  -5  -1  -3  521.49   13.97
  -5  -1  -2    2.03    0.67
  -5  -1  -2    1.71    0.60
  -5  -1  -1  125.70    5.44
  -5  -1  -1  126.90    4.52
  -5  -1   0    0.79    0.52
  -5  -1   0    0.47    0.32
  -5  -1   1   63.29    2.91
  -5  -1   2   66.49    3.15
  -5  -1   3   55.48    4.37
  -5  -1   3   54.27    3.02
  -5  -1   4   56.43    4.56
  -5  -1   4   55.23    3.30
  -5  -1   5  205.47    9.55
  -5  -1   5  207.21    7.55
  -5  -1   6  195.76    9.55
  -5  -1   6  196.46    7.79
  -5  -1   7  168.16    9.26
  -5  -1   7  170.04    7.64
  -5  -1   8   12.16    2.59
  -5  -1   9    4.49    1.70
  -5  -1  10    0.73    0.96
  -5  -1  11    5.26    1.89
  -5  -1  12    1.71    0.99
  -5   0  -7   24.16    3.02
  -5   0  -6    4.65    1.09
  -5   0  -5  156.96    7.25
  -5   0  -4   15.53    1.94
  -5   0  -4   13.96    1.96
  -5   0  -3   68.73    3.98
  -5   0  -3   75.70    4.33
  -5   0  -2  138.20    5.87
  -5   0  -2  141.52    5.92
  -5   0  -1    1.46    0.62
  -5   0  -1    1.40    0.52
  -5   0   0  518.65   13.86
  -5   0   1  214.83    8.14
  -5   0   1  208.62    5.16
  -5   0   2    9.41    0.89
  -5   0   3  130.32    6.50
  -5   0   3  123.70    4.21
  -5   0   4   29.79    3.15
  -5   0   4   32.78    2.21
  -5   0   5    1.28    0.35
  -5   0   5    0.07    0.56
  -5   0   6   81.02    5.62
  -5   0   7  142.47    8.07
  -5   0   8  121.13    7.81
  -5   0   9  200.47   10.67
  -5   0  10   79.99    6.83
  -5   0  11   32.73    4.65
  -5   0  12   10.08    2.69
  -5   0  13    1.86    1.19
  -5   1  -7    0.55    0.74
  -5   1  -6   64.76    4.84
  -5   1  -5   -0.99    0.94
  -5   1  -4    5.28    1.22
  -5   1  -4   11.11    1.75
  -5   1  -3  513.37   13.97
  -5   1  -3  486.03   13.40
  -5   1  -2  184.99    7.20
  -5   1  -2  171.71    6.64
  -5   1  -1  187.64    7.40
  -5   1  -1  217.33    7.26
  -5   1   0  112.64    5.50
  -5   1   0   95.15    4.48
  -5   1   1   28.81    2.80
  -5   1   2    1.57    0.80
  -5   1   3   67.20    4.67
  -5   1   3   63.18    4.21
  -5   1   3   58.72    2.10
  -5   1   4   41.29    3.60
  -5   1   4   43.89    2.20
  -5   1   5    3.53    1.07
  -5   1   6   35.66    3.51
  -5   1   7   37.26    3.85
  -5   1   8    1.09    0.95
  -5   1   9    9.15    2.05
  -5   1  10   27.59    3.82
  -5   1  11   16.25    3.09
  -5   1  12   20.97    3.73
  -5   1  13   11.03    2.91
  -5   2  -7   31.80    3.70
  -5   2  -6  165.52    8.25
  -5   2  -5  195.80    8.56
  -5   2  -4    1.18    0.67
  -5   2  -4    0.61    0.51
  -5   2  -3   47.87    3.83
  -5   2  -3   42.89    3.30
  -5   2  -2  257.07    9.32
  -5   2  -2  268.24    8.72
  -5   2  -1  806.62   19.30
  -5   2  -1  761.57   17.41
  -5   2   0   29.31    2.80
  -5   2   0   33.12    2.44
  -5   2   1  220.78    8.56
  -5   2   2   48.44    3.89
  -5   2   3   47.00    3.92
  -5   2   3   51.39    3.62
  -5   2   4  101.87    6.17
  -5   2   4  104.02    5.56
  -5   2   4  102.09    2.89
  -5   2   5  163.91    7.57
  -5   2   6   10.11    1.71
  -5   2   7   17.55    2.48
  -5   2   8  115.77    6.86
  -5   2   9  342.74   13.20
  -5   2  10   79.92    6.24
  -5   2  11   40.75    4.67
  -5   2  12   10.67    2.67
  -5   2  13    0.87    0.90
  -5   2  14    7.30    2.48
  -5   3  -6   96.49    6.39
  -5   3  -5   94.47    5.94
  -5   3  -4  147.48    7.09
  -5   3  -3    6.81    1.53
  -5   3  -3    8.75    1.55
  -5   3  -2    8.64    1.68
  -5   3  -2    7.83    1.35
  -5   3  -1   35.55    3.26
  -5   3  -1   35.31    2.70
  -5   3   0  160.26    7.27
  -5   3   0  158.38    5.70
  -5   3   1    0.40    0.46
  -5   3   1    1.13    0.43
  -5   3   2  270.67    7.73
  -5   3   2  280.28   10.24
  -5   3   3   76.22    4.21
  -5   3   3   72.94    5.01
  -5   3   4  139.10    6.21
  -5   3   4  119.17    6.76
  -5   3   5  102.54    3.24
  -5   3   5   96.53    5.42
  -5   3   5  105.40    6.52
  -5   3   6   69.42    3.20
  -5   3   6   75.67    5.81
  -5   3   6   74.32    4.49
  -5   3   7  105.41    5.82
  -5   3   8    0.66    0.49
  -5   3   9    1.35    0.91
  -5   3  10    1.43    0.99
  -5   3  11   21.66    3.20
  -5   3  12   26.09    3.79
  -5   3  13   44.52    5.17
  -5   4  -5  100.97    6.40
  -5   4  -4   32.96    3.31
  -5   4  -3   15.12    2.37
  -5   4  -3   13.71    2.00
  -5   4  -2    1.10    0.68
  -5   4  -2    1.65    0.58
  -5   4  -1    0.17    0.55
  -5   4  -1    0.50    0.30
  -5   4   0   39.24    2.65
  -5   4   0   37.65    3.56
  -5   4   1  279.05    7.79
  -5   4   1  286.89   10.58
  -5   4   2   60.94    2.96
  -5   4   2   56.99    4.37
  -5   4   3  331.04    9.39
  -5   4   3  311.51    8.11
  -5   4   3  300.98   11.33
  -5   4   4   86.82    4.56
  -5   4   4  104.22    6.27
  -5   4   5    4.74    0.56
  -5   4   5    4.25    1.25
  -5   4   6  117.98    4.03
  -5   4   6  120.04    5.35
  -5   4   6  118.84    7.20
  -5   4   7   55.44    3.02
  -5   4   7   53.74    5.01
  -5   4   7   51.83    3.63
  -5   4   8    4.59    1.61
  -5   4   8    3.00    0.80
  -5   4   8    1.91    0.64
  -5   4   9   39.00    3.16
  -5   4   9   37.82    4.58
  -5   4   9   35.07    3.39
  -5   4  10    2.58    0.98
  -5   4  10    3.38    1.17
  -5   4  11    6.50    1.51
  -5   4  11    3.81    1.26
  -5   4  12    5.82    1.70
  -5   5  -5   64.81    5.24
  -5   5  -4   31.75    3.39
  -5   5  -3    4.31    1.25
  -5   5  -2    0.59    0.49
  -5   5  -2    0.51    0.39
  -5   5  -1   28.76    3.31
  -5   5  -1   27.05    2.48
  -5   5   0   99.43    6.14
  -5   5   0  105.58    4.65
  -5   5   1  158.16    7.82
  -5   5   1  156.83    5.40
  -5   5   2    1.44    0.73
  -5   5   2    0.82    0.40
  -5   5   3  130.48    7.09
  -5   5   3  123.69    4.81
  -5   5   3  124.21    4.01
  -5   5   4  314.74   12.10
  -5   5   4  320.42    9.21
  -5   5   4  328.79    7.77
  -5   5   5  825.35   22.39
  -5   5   5  816.01   16.78
  -5   5   5  816.37   15.44
  -5   5   6   10.03    1.95
  -5   5   6    9.17    1.20
  -5   5   6    8.57    0.95
  -5   5   7   15.70    2.70
  -5   5   7   15.27    1.70
  -5   5   7   15.90    1.53
  -5   5   8   16.06    1.70
  -5   5   8   19.57    3.05
  -5   5   8   16.69    1.98
  -5   5   9    8.78    2.22
  -5   5   9    8.25    1.38
  -5   5   9    7.35    1.37
  -5   5  10    8.27    2.15
  -5   5  10    7.89    1.48
  -5   5  10    8.05    1.65
  -5   5  11    7.30    2.35
  -5   5  11    6.25    1.42
  -5   5  11    7.34    1.67
  -5   5  12   -0.06    1.05
  -5   5  13   16.27    3.44
  -5   6  -4   19.09    2.79
  -5   6  -3   16.86    2.41
  -5   6  -2   79.79    6.14
  -5   6  -2   79.01    4.94
  -5   6  -1   10.28    2.04
  -5   6  -1   14.28    1.89
  -5   6   0  267.59   11.05
  -5   6   0  236.22    7.86
  -5   6   1   85.77    5.96
  -5   6   1   95.79    4.07
  -5   6   2   32.20    3.56
  -5   6   2   38.88    2.09
  -5   6   2   36.60    2.09
  -5   6   3   60.46    4.83
  -5   6   3   48.31    2.00
  -5   6   3   46.27    2.39
  -5   6   4   89.01    6.06
  -5   6   4   89.90    2.46
  -5   6   4   87.18    2.46
  -5   6   5    0.63    0.52
  -5   6   5    0.42    0.28
  -5   6   5    0.34    0.14
  -5   6   5    0.47    0.16
  -5   6   6   19.94    3.03
  -5   6   6   21.93    1.36
  -5   6   6   23.79    1.40
  -5   6   6   22.09    1.68
  -5   6   7   68.11    5.71
  -5   6   7   65.62    3.00
  -5   6   7   62.98    3.19
  -5   6   8   67.73    5.90
  -5   6   8   65.14    3.44
  -5   6   8   68.51    3.66
  -5   6   9   22.42    3.48
  -5   6   9   24.20    2.26
  -5   6   9   25.23    2.38
  -5   6  10    5.64    1.96
  -5   6  10    6.95    1.37
  -5   6  10   10.54    1.61
  -5   6  11   49.49    5.61
  -5   6  12   -0.20    0.95
  -5   6  13    4.12    2.10
  -5   7  -4   22.19    3.15
  -5   7  -3   50.01    4.43
  -5   7  -2    3.69    1.19
  -5   7  -1  180.69    9.69
  -5   7  -1  175.18    7.43
  -5   7   0   26.66    3.45
  -5   7   0   18.63    2.02
  -5   7   1   18.24    2.80
  -5   7   1   17.43    1.73
  -5   7   2    8.07    1.81
  -5   7   2    4.35    0.46
  -5   7   2    3.88    0.65
  -5   7   3  133.42    7.70
  -5   7   4    2.21    1.08
  -5   7   5   59.11    5.09
  -5   7   5   62.16    3.14
  -5   7   6   62.29    5.35
  -5   7   6   59.53    3.11
  -5   7   7   67.07    5.78
  -5   7   7   70.21    3.54
  -5   7   8  101.14    7.24
  -5   7   8   84.95    2.66
  -5   7   8   97.68    4.49
  -5   7   9    4.06    1.43
  -5   7   9    4.49    0.98
  -5   7   9    5.71    0.86
  -5   7  10   33.78    4.47
  -5   7  10   30.90    2.87
  -5   7  11    1.95    1.31
  -5   7  12    0.05    1.13
  -5   7  13    3.47    1.94
  -5   7  14    3.77    1.94
  -5   8  -3    0.56    0.45
  -5   8  -2   98.52    6.11
  -5   8  -1  178.50    7.83
  -5   8   0  219.35    8.07
  -5   8   0  203.31   10.56
  -5   8   1  228.80    7.46
  -5   8   1  252.17   11.76
  -5   8   2  102.90    7.08
  -5   8   3   87.56    6.35
  -5   8   4    2.67    1.14
  -5   8   5   12.19    2.45
  -5   8   6    0.95    0.67
  -5   8   6    0.58    0.29
  -5   8   7   47.53    4.88
  -5   8   7   44.50    3.00
  -5   8   8    4.67    1.68
  -5   8   8    6.50    1.19
  -5   8   9  188.42   10.64
  -5   8   9  202.61    7.51
  -5   8  10   47.66    5.37
  -5   8  11   22.75    3.85
  -5   8  12    9.36    2.42
  -5   8  13   20.40    3.93
  -5   8  14    0.71    1.13
  -5   9  -2    3.58    0.90
  -5   9  -1    0.67    0.36
  -5   9   0   28.74    1.59
  -5   9   1    0.52    0.68
  -5   9   2   14.44    2.87
  -5   9   3   18.02    3.01
  -5   9   4   82.59    6.48
  -5   9   5   92.26    6.82
  -5   9   6   22.98    3.42
  -5   9   6   25.30    2.41
  -5   9   7   24.70    3.56
  -5   9   7   18.38    2.06
  -5   9   8   56.54    5.54
  -5   9   8   56.06    3.71
  -5   9   9   17.74    3.16
  -5   9   9   18.02    2.13
  -5   9  10   76.71    6.82
  -5   9  11   38.78    4.95
  -5   9  12   -0.58    0.87
  -5   9  13   29.99    4.67
  -5   9  14    7.33    2.77
  -5  10   2    1.48    0.76
  -5  10   3    0.75    1.06
  -5  10   4   26.43    3.86
  -5  10   5   -1.34    0.85
  -5  10   6   33.29    4.22
  -5  10   7    1.71    1.10
  -5  10   7    0.84    0.55
  -5  10   8    7.53    2.06
  -5  10   8    9.12    1.63
  -5  10   9    8.40    2.23
  -5  10  10   11.10    2.66
  -5  10  11    1.44    1.20
  -5  10  12    3.27    1.71
  -5  10  13   -0.21    1.14
  -5  11   3   21.92    3.69
  -5  11   4    5.72    1.95
  -5  11   5   70.61    6.42
  -5  11   6   24.62    3.83
  -5  11   7   58.18    5.84
  -5  11   7   68.13    4.62
  -5  11   8    0.04    0.99
  -5  11   9    0.74    0.77
  -5  11  10    2.15    1.37
  -5  11  11   24.07    3.99
  -5  11  12   21.62    4.05
  -5  12   4   14.09    2.99
  -5  12   5    0.95    0.82
  -5  12   6   31.79    4.51
  -5  12   7   11.67    2.72
  -5  12   8   12.76    2.91
  -5  12   9   48.08    5.50
  -5  12  10    6.42    2.22
  -5  12  11   10.89    2.68
  -5  13   5   29.03    4.44
  -5  13   6   16.61    3.42
  -5  13   7    3.68    1.71
  -5  13   8   12.21    2.83
  -5  13   9    0.82    0.94
  -5  13  10    6.95    2.20
  -5  14   6    0.21    1.47
  -5  14   7   25.38    4.26
  -5  14   8    1.97    1.57
  -4 -15  -4   12.40    2.76
  -4 -15  -3   10.54    2.79
  -4 -15  -2   12.31    3.15
  -4 -15  -1   18.78    3.73
  -4 -14  -2    3.55    1.76
  -4 -14  -1   17.03    3.51
  -4 -14   0   16.94    3.71
  -4 -13  -5    2.19    1.33
  -4 -13  -4    1.51    0.89
  -4 -13  -3    0.25    0.49
  -4 -13  -2    1.54    1.11
  -4 -13  -1    0.37    0.58
  -4 -13  -1   -0.53    1.03
  -4 -13   0    8.32    2.34
  -4 -13   1   13.64    3.20
  -4 -13   2   20.77    4.12
  -4 -12  -8   87.01    5.98
  -4 -12  -7  140.07    7.73
  -4 -12  -4   24.68    3.12
  -4 -12  -3    8.95    1.99
  -4 -12  -2    5.67    1.51
  -4 -12  -1   -0.33    0.86
  -4 -12   0   15.27    2.84
  -4 -12   0   14.78    2.99
  -4 -12   1  105.48    8.62
  -4 -12   2   45.50    5.86
  -4 -12   3   41.54    5.87
  -4 -11 -10    8.41    1.77
  -4 -11  -9    1.93    0.79
  -4 -11  -8    0.91    0.71
  -4 -11  -7    1.26    0.69
  -4 -11  -6    8.10    0.94
  -4 -11  -5   11.95    1.49
  -4 -11  -4  244.70    8.80
  -4 -11  -3  296.74   10.69
  -4 -11  -3  275.48   11.32
  -4 -11  -2  179.85    8.60
  -4 -11  -2  163.55    8.76
  -4 -11  -1   60.03    5.26
  -4 -11   0   -0.06    0.56
  -4 -11   1    4.23    1.61
  -4 -11   1    1.72    1.21
  -4 -11   2   21.78    3.90
  -4 -11   3   24.94    4.41
  -4 -11   4   31.28    5.00
  -4 -10 -11    2.86    1.04
  -4 -10 -10    9.03    1.87
  -4 -10  -9    5.43    1.37
  -4 -10  -8   88.68    5.72
  -4 -10  -7   46.15    4.06
  -4 -10  -6    2.11    0.34
  -4 -10  -5   78.18    3.59
  -4 -10  -4   41.84    3.06
  -4 -10  -3   39.73    3.36
  -4 -10  -2   13.18    2.28
  -4 -10  -1    5.34    1.54
  -4 -10   0    2.98    1.19
  -4 -10   1    2.08    1.22
  -4 -10   2    1.84    1.27
  -4 -10   3   -0.17    1.25
  -4 -10   4    1.67    1.02
  -4 -10   5   15.64    3.56
  -4  -9 -11  132.63    7.49
  -4  -9 -10   95.85    6.24
  -4  -9  -9    2.39    0.88
  -4  -9  -8   13.38    2.11
  -4  -9  -7   52.79    4.21
  -4  -9  -6   83.45    5.37
  -4  -9  -5  117.06    3.94
  -4  -9  -4  276.23    8.27
  -4  -9  -1   58.71    4.83
  -4  -9   0   28.52    3.48
  -4  -9   1   46.03    4.60
  -4  -9   2  128.98    8.23
  -4  -9   2  134.40    8.85
  -4  -9   3   36.83    4.78
  -4  -9   4    4.27    1.86
  -4  -9   5    4.26    2.24
  -4  -9   6   46.92    6.13
  -4  -8 -11   25.75    3.24
  -4  -8 -10    0.86    0.64
  -4  -8  -9   36.71    3.57
  -4  -8  -8  275.34   10.40
  -4  -8  -7   79.00    5.09
  -4  -8  -6    3.90    1.27
  -4  -8  -6    4.58    1.20
  -4  -8  -5    0.33    0.13
  -4  -8  -5    1.00    0.86
  -4  -8  -4    9.59    1.16
  -4  -8  -4    9.68    1.92
  -4  -8  -3    2.45    1.00
  -4  -8  -2   85.34    5.87
  -4  -8  -1  101.14    6.21
  -4  -8   0  224.27   10.00
  -4  -8   1  112.52    7.10
  -4  -8   2   15.85    2.66
  -4  -8   3    4.10    1.60
  -4  -8   3    2.46    1.17
  -4  -8   4    4.03    1.69
  -4  -8   5    0.07    0.86
  -4  -8   6   17.05    3.57
  -4  -8   7   26.41    4.53
  -4  -7 -10  100.61    6.25
  -4  -7  -9  395.55   13.40
  -4  -7  -8   81.16    5.16
  -4  -7  -7   47.45    4.42
  -4  -7  -7   45.05    3.74
  -4  -7  -6   37.88    3.78
  -4  -7  -6   36.74    3.28
  -4  -7  -5   20.07    2.70
  -4  -7  -4    6.10    1.50
  -4  -7  -3   66.75    4.88
  -4  -7  -2   18.55    2.51
  -4  -7  -1   13.93    2.18
  -4  -7   0   24.98    2.98
  -4  -7   0   30.19    3.34
  -4  -7   1   87.91    6.04
  -4  -7   1   96.59    6.27
  -4  -7   2  193.00    9.58
  -4  -7   3  189.84    9.84
  -4  -7   4  105.75    7.86
  -4  -7   5    4.47    1.72
  -4  -7   6    9.09    2.52
  -4  -7   7   -3.68    1.76
  -4  -7   8    3.14    1.43
  -4  -6 -12    1.31    0.34
  -4  -6 -10  151.10    7.93
  -4  -6  -9   68.98    5.00
  -4  -6  -8  300.61   10.79
  -4  -6  -7  215.65    8.60
  -4  -6  -6  297.89   11.10
  -4  -6  -6  276.98    9.90
  -4  -6  -5  113.93    6.29
  -4  -6  -5  113.88    5.79
  -4  -6  -4    4.69    1.24
  -4  -6  -3    5.92    1.42
  -4  -6  -2  101.42    5.67
  -4  -6  -1   56.06    4.20
  -4  -6   0  141.95    7.11
  -4  -6   0  130.27    6.76
  -4  -6   1  505.96   15.96
  -4  -6   1  544.61   15.88
  -4  -6   2  254.38   10.92
  -4  -6   2  282.67   10.92
  -4  -6   3  263.17   11.39
  -4  -6   3  278.52   11.23
  -4  -6   4   47.41    4.84
  -4  -6   4   50.67    5.10
  -4  -6   5   -0.87    0.77
  -4  -6   6    1.21    0.86
  -4  -6   7    6.00    2.08
  -4  -6   8   37.36    5.26
  -4  -6   9   21.00    4.16
  -4  -5 -12    3.92    0.76
  -4  -5 -11   58.20    2.55
  -4  -5 -10    4.70    1.49
  -4  -5  -9   14.13    2.24
  -4  -5  -8    3.25    1.06
  -4  -5  -7   31.56    3.00
  -4  -5  -6  180.30    7.50
  -4  -5  -5  797.55   19.91
  -4  -5  -5  778.61   18.94
  -4  -5  -4  529.62   10.06
  -4  -5  -4  527.26   14.64
  -4  -5  -3   51.39    3.72
  -4  -5  -2  437.80   12.63
  -4  -5  -1    7.18    1.37
  -4  -5   0   40.31    3.32
  -4  -5   1    0.17    0.41
  -4  -5   1    0.46    0.48
  -4  -5   2  271.08   10.84
  -4  -5   2  270.37   10.10
  -4  -5   3   83.35    5.93
  -4  -5   3   95.79    5.81
  -4  -5   4   54.68    5.00
  -4  -5   4   60.63    4.75
  -4  -5   5  228.43   11.44
  -4  -5   6   92.13    7.42
  -4  -5   7   43.96    5.26
  -4  -5   8   48.96    5.89
  -4  -5   9    6.72    2.24
  -4  -4 -12    0.15    0.45
  -4  -4 -11   44.91    2.68
  -4  -4 -10   50.16    2.50
  -4  -4 -10   57.72    4.90
  -4  -4  -9   38.12    3.75
  -4  -4  -8   45.74    3.90
  -4  -4  -7  368.46   11.98
  -4  -4  -6  146.16    6.58
  -4  -4  -5    3.37    0.94
  -4  -4  -4   79.55    4.58
  -4  -4  -4   78.99    4.46
  -4  -4  -4   86.33    2.66
  -4  -4  -3  287.02    6.98
  -4  -4  -3  307.86    9.49
  -4  -4  -2  137.24    5.83
  -4  -4  -1   36.18    2.85
  -4  -4   0    7.37    1.26
  -4  -4   1   85.32    5.19
  -4  -4   1   82.14    4.57
  -4  -4   2   24.69    2.87
  -4  -4   2   26.03    2.62
  -4  -4   3   13.49    1.99
  -4  -4   3   16.65    2.44
  -4  -4   4   58.48    4.96
  -4  -4   4   61.53    4.49
  -4  -4   5    1.04    0.68
  -4  -4   5   -0.81    0.86
  -4  -4   6   46.67    5.02
  -4  -4   7   10.77    2.48
  -4  -4   8    9.10    2.39
  -4  -4   9    7.41    2.55
  -4  -4  10    0.23    0.78
  -4  -3 -12   84.18    4.65
  -4  -3 -11    6.85    1.19
  -4  -3 -10   87.12    3.99
  -4  -3  -9   90.61    3.65
  -4  -3  -9   99.90    6.30
  -4  -3  -8   -0.57    0.83
  -4  -3  -7   40.27    3.55
  -4  -3  -6   89.64    5.02
  -4  -3  -5   33.49    2.87
  -4  -3  -4  367.44   10.85
  -4  -3  -4  382.34    8.51
  -4  -3  -3 1466.39   26.84
  -4  -3  -3 1482.27   29.44
  -4  -3  -2  308.58    7.91
  -4  -3  -2  307.04    8.96
  -4  -3  -1  788.29   17.34
  -4  -3   0  215.96    7.09
  -4  -3   1    2.49    0.69
  -4  -3   2  183.68    8.05
  -4  -3   2  197.99    7.17
  -4  -3   3  337.21   12.00
  -4  -3   3  345.37   10.56
  -4  -3   4  333.15   12.47
  -4  -3   4  369.97   11.48
  -4  -3   5  483.26   16.14
  -4  -3   5  494.94   14.54
  -4  -3   5  454.15   15.79
  -4  -3   6  243.40   11.38
  -4  -3   6  240.52    9.89
  -4  -3   7  145.34    9.13
  -4  -3   8   72.74    6.58
  -4  -3   9    6.17    2.16
  -4  -3  10   -0.18    0.97
  -4  -3  11   17.96    3.89
  -4  -2 -12    0.10    0.43
  -4  -2 -11   24.27    2.47
  -4  -2 -10   32.16    2.59
  -4  -2  -9   24.89    2.11
  -4  -2  -9   32.88    3.62
  -4  -2  -8   82.53    5.51
  -4  -2  -7    0.91    0.60
  -4  -2  -6   30.13    2.92
  -4  -2  -5   89.37    4.75
  -4  -2  -4  140.51    6.06
  -4  -2  -4  164.42    5.23
  -4  -2  -3   12.53    1.58
  -4  -2  -3   19.67    1.53
  -4  -2  -2  271.94    7.41
  -4  -2  -2  280.19    7.90
  -4  -2  -1  395.17    9.81
  -4  -2   0 1188.21   23.18
  -4  -2   1 1107.56   22.13
  -4  -2   2  746.66   18.29
  -4  -2   2  698.52   15.87
  -4  -2   3  426.77   13.47
  -4  -2   3  444.39   11.64
  -4  -2   4   40.70    3.79
  -4  -2   4   44.65    3.23
  -4  -2   5  191.14    9.18
  -4  -2   5  200.31    7.88
  -4  -2   5  206.76    9.33
  -4  -2   6  110.38    7.10
  -4  -2   7  175.26    9.60
  -4  -2   8   98.84    7.36
  -4  -2   9   66.30    6.32
  -4  -2  10    7.29    2.28
  -4  -2  11    8.04    2.44
  -4  -2  12    2.50    1.45
  -4  -1 -12   37.69    3.56
  -4  -1 -11   79.74    4.96
  -4  -1 -10   69.55    4.32
  -4  -1  -9  158.91    6.36
  -4  -1  -8   16.87    2.49
  -4  -1  -7    5.96    1.35
  -4  -1  -6   16.59    2.20
  -4  -1  -5  225.07    8.42
  -4  -1  -4  179.09    6.72
  -4  -1  -4  164.28    5.88
  -4  -1  -3  260.88    8.23
  -4  -1  -3  253.77    7.29
  -4  -1  -2  577.03   14.04
  -4  -1  -2  606.90   13.39
  -4  -1  -1  571.44   13.31
  -4  -1  -1  580.01   12.34
  -4  -1   0   40.28    2.75
  -4  -1   0   38.72    2.05
  -4  -1   1    8.53    0.95
  -4  -1   2   37.37    3.11
  -4  -1   2   42.33    2.36
  -4  -1   3  219.99    8.51
  -4  -1   3  201.76    6.45
  -4  -1   4   -0.42    0.46
  -4  -1   4   -0.22    0.39
  -4  -1   5    1.60    0.81
  -4  -1   6   11.04    2.06
  -4  -1   7    8.63    2.03
  -4  -1   8  111.08    7.49
  -4  -1   9   13.73    2.69
  -4  -1  10   19.94    3.49
  -4  -1  11   24.73    4.07
  -4  -1  12    0.45    1.38
  -4   0 -11  108.17    6.30
  -4   0 -10  251.98    9.54
  -4   0  -9   61.66    4.13
  -4   0  -8  272.80   11.19
  -4   0  -7   62.66    4.80
  -4   0  -6  209.68    8.71
  -4   0  -5  248.30    8.95
  -4   0  -4    3.51    0.89
  -4   0  -4    1.76    0.76
  -4   0  -3   26.81    2.29
  -4   0  -3   27.16    2.31
  -4   0  -2   65.75    3.48
  -4   0  -2   73.43    3.72
  -4   0  -1  387.68   10.28
  -4   0  -1  388.37   10.11
  -4   0   0  229.04    7.49
  -4   0   1  690.81   16.49
  -4   0   1  696.76   13.08
  -4   0   2  129.23    5.72
  -4   0   2  139.83    3.98
  -4   0   3  133.71    6.11
  -4   0   3  113.55    4.00
  -4   0   4  163.91    7.30
  -4   0   5  246.80    9.80
  -4   0   6   11.92    2.06
  -4   0   7   29.57    3.46
  -4   0   8   11.14    2.18
  -4   0   9  131.98    8.26
  -4   0  10  136.41    8.76
  -4   0  11   60.47    6.07
  -4   0  12   52.63    5.95
  -4   0  13    2.88    1.65
  -4   1 -10   69.37    5.04
  -4   1  -9  147.22    7.13
  -4   1  -7   36.54    3.75
  -4   1  -6  158.01    7.57
  -4   1  -5  306.52   10.48
  -4   1  -4  336.50   10.47
  -4   1  -3   12.95    1.74
  -4   1  -3   16.18    1.88
  -4   1  -2    1.42    0.52
  -4   1  -2    0.66    0.30
  -4   1  -1    2.97    0.82
  -4   1  -1    2.77    0.63
  -4   1   0  787.37   17.77
  -4   1   0  776.18   16.52
  -4   1   1    1.87    0.58
  -4   1   2   13.34    1.79
  -4   1   3  329.11   10.29
  -4   1   3  351.56    7.45
  -4   1   4  252.97    9.06
  -4   1   5  504.50   14.71
  -4   1   6  183.97    8.02
  -4   1   7   10.81    1.98
  -4   1   8   44.65    4.26
  -4   1   9   61.53    5.26
  -4   1  10   46.67    4.81
  -4   1  11   58.71    5.71
  -4   1  12    7.69    2.28
  -4   1  13   27.23    4.22
  -4   1  14    8.26    2.46
  -4   2  -7   94.85    6.33
  -4   2  -6  278.77   10.83
  -4   2  -5 1534.73   33.00
  -4   2  -4  645.01   16.64
  -4   2  -3  301.12   10.10
  -4   2  -3  307.08    9.57
  -4   2  -2    5.07    1.15
  -4   2  -2    8.80    1.32
  -4   2  -1  270.00    8.62
  -4   2  -1  226.70    6.97
  -4   2   0   22.54    2.26
  -4   2   0   23.00    1.79
  -4   2   1  225.79    8.03
  -4   2   2  641.39   16.26
  -4   2   3  170.36    7.31
  -4   2   3  188.51    6.75
  -4   2   4  731.86   17.62
  -4   2   5   10.73    1.76
  -4   2   5   12.35    1.66
  -4   2   6   85.50    4.94
  -4   2   7   62.61    4.49
  -4   2   8   25.51    3.00
  -4   2   9   18.69    2.73
  -4   2  10   28.07    3.58
  -4   2  11    0.18    0.67
  -4   2  12   16.19    3.01
  -4   2  13    5.36    1.99
  -4   2  14    7.78    2.64
  -4   3  -6  122.41    7.08
  -4   3  -5  296.28   11.04
  -4   3  -4  244.77    9.26
  -4   3  -3  362.44   10.99
  -4   3  -2  659.73   17.41
  -4   3  -2  655.11   15.67
  -4   3  -1  328.68   10.32
  -4   3  -1  292.98    8.45
  -4   3   0   10.53    1.62
  -4   3   0    7.75    1.03
  -4   3   1   28.51    1.84
  -4   3   1   25.98    2.54
  -4   3   2  293.38    7.37
  -4   3   2  298.62    9.98
  -4   3   3  896.24   18.94
  -4   3   3  855.96   20.98
  -4   3   4  447.88    9.02
  -4   3   4  427.37   11.72
  -4   3   4  442.38   13.46
  -4   3   5  545.58   11.90
  -4   3   5  566.84   16.42
  -4   3   5  568.21   13.62
  -4   3   6   83.32    4.50
  -4   3   7   36.46    3.14
  -4   3   8    3.97    1.15
  -4   3   9  168.35    8.09
  -4   3  10    2.71    1.02
  -4   3  11    9.82    2.04
  -4   3  12   15.62    2.82
  -4   3  13   27.12    4.01
  -4   3  14   47.49    5.49
  -4   4  -6   44.43    4.32
  -4   4  -5   55.91    4.57
  -4   4  -4   94.28    5.61
  -4   4  -3   42.57    3.41
  -4   4  -2  252.90    9.75
  -4   4  -2  228.78    8.04
  -4   4  -1  135.24    6.62
  -4   4  -1  134.85    5.37
  -4   4   0  291.55   10.05
  -4   4   0  289.89    7.99
  -4   4   1  184.21    7.57
  -4   4   1  166.40    5.12
  -4   4   2    0.56    0.46
  -4   4   2    0.30    0.22
  -4   4   3    2.54    0.40
  -4   4   3    4.23    1.12
  -4   4   3    1.40    0.54
  -4   4   3    3.02    0.51
  -4   4   4  200.04    8.62
  -4   4   4  220.12    7.09
  -4   4   4  217.21    5.35
  -4   4   5  238.34    9.55
  -4   4   5  229.77    6.79
  -4   4   5  227.84    6.14
  -4   4   6  137.05    4.91
  -4   4   6  139.49    5.41
  -4   4   6  134.96    7.29
  -4   4   7  129.28    5.25
  -4   4   7  130.43    7.53
  -4   4   7  125.48    5.57
  -4   4   8    0.35    0.28
  -4   4   8    1.17    0.64
  -4   4   9   64.05    4.34
  -4   4   9   71.76    4.78
  -4   4  10   89.14    5.74
  -4   4  11   35.59    3.80
  -4   4  12    5.17    1.55
  -4   4  13   -0.53    0.76
  -4   5  -5   76.65    5.68
  -4   5  -4  218.31    9.39
  -4   5  -3  345.85   11.60
  -4   5  -2   86.59    4.82
  -4   5  -1  282.11   10.52
  -4   5  -1  238.70    8.05
  -4   5   0    9.58    1.83
  -4   5   0   11.11    1.34
  -4   5   1   81.74    5.08
  -4   5   1   78.66    3.27
  -4   5   2    0.27    0.35
  -4   5   2    0.72    0.26
  -4   5   2    0.71    0.29
  -4   5   3  170.05    7.60
  -4   5   3  157.97    4.81
  -4   5   3  158.07    3.90
  -4   5   3  156.77    4.76
  -4   5   4   18.62    2.45
  -4   5   4   11.10    0.80
  -4   5   4   13.12    0.91
  -4   5   4   13.03    1.17
  -4   5   5   46.39    4.10
  -4   5   5   52.02    2.26
  -4   5   5   51.67    2.60
  -4   5   6  296.25   11.40
  -4   5   6  278.55    7.44
  -4   5   6  289.09    7.93
  -4   5   7    3.61    1.19
  -4   5   7    2.48    0.63
  -4   5   7    2.44    0.68
  -4   5   8   18.76    2.04
  -4   5   8   20.08    2.04
  -4   5   8   19.60    2.90
  -4   5   9  106.53    5.48
  -4   5   9   97.95    6.98
  -4   5   9  106.12    5.42
  -4   5  10   14.09    2.65
  -4   5  10   12.19    1.93
  -4   5  10   12.51    1.94
  -4   5  11    8.87    1.71
  -4   5  11    8.60    1.83
  -4   5  12   -0.80    0.96
  -4   5  12   -0.11    0.65
  -4   5  13    4.84    1.64
  -4   5  13    5.06    1.57
  -4   6  -4    3.82    1.36
  -4   6  -3   34.78    3.49
  -4   6  -2  109.02    5.76
  -4   6  -1   87.61    6.01
  -4   6  -1   86.76    4.68
  -4   6   0  667.49   19.04
  -4   6   0  633.71   14.97
  -4   6   1 1006.57   24.26
  -4   6   1  957.91   19.45
  -4   6   2  278.77   10.59
  -4   6   2  274.02    5.75
  -4   6   2  288.78    6.66
  -4   6   3  189.64    8.48
  -4   6   4   18.49    2.54
  -4   6   4   18.33    1.62
  -4   6   5   40.70    3.87
  -4   6   5   37.67    2.40
  -4   6   6    7.55    1.08
  -4   6   6    9.64    1.93
  -4   6   6    5.74    0.50
  -4   6   7  124.15    7.32
  -4   6   7  123.45    4.00
  -4   6   7  121.91    5.13
  -4   6   8  164.29    8.93
  -4   6   8  175.38    5.85
  -4   6   8  183.19    6.90
  -4   6   9  177.22    7.23
  -4   6   9  169.25    6.42
  -4   6   9  175.52    9.43
  -4   6  10  140.65    6.84
  -4   6  10  148.39    6.43
  -4   6  10  147.48    8.92
  -4   6  11   22.79    2.83
  -4   6  11   23.29    2.63
  -4   6  11   23.40    3.58
  -4   6  12   31.48    4.47
  -4   6  12   31.17    3.48
  -4   6  13    8.31    2.42
  -4   6  14    0.84    0.91
  -4   7  -4   20.64    3.02
  -4   7  -3   12.25    2.20
  -4   7  -2    7.75    1.61
  -4   7  -1    4.85    1.15
  -4   7   0  125.65    7.44
  -4   7   0  122.07    5.43
  -4   7   1  223.46    9.96
  -4   7   1  220.65    6.83
  -4   7   2  150.86    7.87
  -4   7   3  109.25    6.51
  -4   7   4   18.95    2.64
  -4   7   4   16.25    1.77
  -4   7   5   60.27    4.84
  -4   7   5   63.67    3.49
  -4   7   6    2.74    1.00
  -4   7   6    2.05    0.67
  -4   7   7    0.33    0.77
  -4   7   7    0.12    0.41
  -4   7   8   38.81    4.18
  -4   7   8   41.05    1.60
  -4   7   8   39.92    3.08
  -4   7   9   31.72    3.95
  -4   7   9   33.24    2.02
  -4   7   9   34.25    3.01
  -4   7  10   48.00    5.05
  -4   7  10   48.54    3.05
  -4   7  10   53.02    4.01
  -4   7  11  148.24    7.38
  -4   7  11  137.27    8.95
  -4   7  12    7.12    1.60
  -4   7  12    8.32    2.23
  -4   7  13   10.54    2.74
  -4   7  14    0.46    1.01
  -4   7  15   -0.27    1.00
  -4   8  -5   21.90    3.02
  -4   8  -4    2.52    0.84
  -4   8  -3    0.91    0.41
  -4   8  -3    0.17    0.49
  -4   8  -2   -0.15    0.49
  -4   8  -2    0.50    0.51
  -4   8  -1  152.97    5.56
  -4   8   0   26.17    1.66
  -4   8   1  119.72    7.42
  -4   8   2  275.12   11.50
  -4   8   3  175.52    8.82
  -4   8   4  160.45    8.34
  -4   8   4  158.37    6.41
  -4   8   5    0.29    0.48
  -4   8   5    0.17    0.28
  -4   8   6   -0.50    0.69
  -4   8   6   -0.22    0.37
  -4   8   7  124.70    7.56
  -4   8   7  131.95    5.87
  -4   8   8   97.03    6.80
  -4   8   8   87.58    4.87
  -4   8   9   53.25    5.12
  -4   8   9   56.14    3.99
  -4   8  10   47.73    4.96
  -4   8  10   41.33    3.55
  -4   8  11   -0.09    0.63
  -4   8  11    1.37    1.24
  -4   8  12   20.79    3.57
  -4   8  13   -0.40    0.89
  -4   8  14    2.55    2.08
  -4   9  -4   47.54    4.20
  -4   9  -3   19.53    2.45
  -4   9  -2   11.91    1.65
  -4   9  -1    8.18    1.23
  -4   9   1    0.75    0.84
  -4   9   2   54.54    5.05
  -4   9   3  168.98    8.98
  -4   9   4  136.33    7.97
  -4   9   5  225.11   10.45
  -4   9   5  233.53    8.63
  -4   9   6  105.40    7.03
  -4   9   6  109.45    5.54
  -4   9   7   70.03    5.70
  -4   9   7   72.31    4.49
  -4   9   8   23.68    3.37
  -4   9   8   21.34    2.43
  -4   9   9    4.96    1.60
  -4   9   9    5.78    1.31
  -4   9  10    1.93    1.06
  -4   9  10    1.30    0.75
  -4   9  11   45.92    5.12
  -4   9  11   45.54    3.97
  -4   9  12   30.31    4.35
  -4   9  13    6.74    1.97
  -4   9  14   47.71    5.78
  -4  10   2    4.50    1.51
  -4  10   3    6.96    1.88
  -4  10   4    7.58    1.97
  -4  10   5    6.22    1.79
  -4  10   5    6.29    1.38
  -4  10   6    6.50    1.76
  -4  10   6    4.79    1.24
  -4  10   7   26.36    3.55
  -4  10   7   29.72    3.02
  -4  10   8   20.39    3.23
  -4  10   8   21.89    2.65
  -4  10   9   44.23    4.86
  -4  10   9   47.48    3.97
  -4  10  10   -0.36    0.77
  -4  10  10    0.05    0.39
  -4  10  11   11.08    2.50
  -4  10  12    6.55    1.99
  -4  10  13   25.55    4.10
  -4  11   3  109.61    7.85
  -4  11   4  112.60    7.89
  -4  11   5   26.25    3.72
  -4  11   6   25.40    3.68
  -4  11   6   25.25    2.98
  -4  11   7    1.31    1.01
  -4  11   7    4.25    1.15
  -4  11   8   34.44    4.23
  -4  11   8   38.60    3.66
  -4  11   9   -0.33    0.80
  -4  11   9    0.55    0.55
  -4  11  10    0.66    0.75
  -4  11  11    2.60    1.41
  -4  11  12    3.82    1.66
  -4  12   4    0.03    0.65
  -4  12   5   33.87    4.40
  -4  12   6   61.76    6.08
  -4  12   7  163.70    9.80
  -4  12   7  156.06    8.13
  -4  12   8   24.02    3.65
  -4  12   8   29.42    3.56
  -4  12   9   59.99    5.88
  -4  12  10   17.54    3.21
  -4  12  11    1.85    1.27
  -4  13   6   11.84    2.70
  -4  13   7    1.72    1.36
  -4  13   8   19.47    3.44
  -4  13   9   13.08    2.85
  -4  13  10   10.41    2.60
  -4  14   7   30.79    4.49
  -4  14   8   19.53    3.56
  -3 -15  -3    1.72    0.82
  -3 -15  -2    8.22    2.27
  -3 -15  -1    5.12    2.16
  -3 -15   0   12.04    3.08
  -3 -14  -3    5.46    1.83
  -3 -14  -2    0.39    0.92
  -3 -14  -1   22.04    3.88
  -3 -14   0   13.11    3.15
  -3 -14   1   23.97    4.27
  -3 -13  -6   86.39    5.41
  -3 -13  -5   74.54    5.13
  -3 -13  -4   57.62    4.62
  -3 -13  -3   43.83    4.07
  -3 -13  -2   19.25    2.87
  -3 -13  -2   20.13    3.28
  -3 -13  -1    4.28    1.75
  -3 -13   0    2.95    1.36
  -3 -13   1    2.21    0.80
  -3 -13   2   28.08    4.56
  -3 -12  -9   46.16    3.50
  -3 -12  -8    1.70    0.64
  -3 -12  -8    0.85    0.69
  -3 -12  -7   55.70    4.42
  -3 -12  -5   78.69    4.63
  -3 -12  -5   82.89    5.26
  -3 -12  -4   78.18    5.02
  -3 -12  -4   75.96    5.18
  -3 -12  -3   46.83    4.63
  -3 -12  -3   35.96    3.65
  -3 -12  -2   34.44    3.83
  -3 -12  -2   29.02    3.33
  -3 -12  -1    4.44    1.23
  -3 -12  -1    7.13    1.92
  -3 -12   0    1.43    1.09
  -3 -12   1   16.33    3.33
  -3 -12   2   13.88    3.14
  -3 -12   3    8.66    2.66
  -3 -12   4    6.01    2.22
  -3 -11 -10   24.63    2.15
  -3 -11 -10   23.81    2.89
  -3 -11  -9    3.18    0.89
  -3 -11  -9    4.46    1.35
  -3 -11  -8   37.52    3.02
  -3 -11  -8   40.50    3.60
  -3 -11  -7   43.76    3.44
  -3 -11  -7   39.98    3.59
  -3 -11  -6   82.65    3.73
  -3 -11  -5    3.22    0.89
  -3 -11  -4    0.61    0.46
  -3 -11  -4    3.63    1.20
  -3 -11  -3  143.33    7.06
  -3 -11  -3  139.06    7.19
  -3 -11  -2   96.72    6.21
  -3 -11  -2  103.88    6.33
  -3 -11  -1  193.05    9.61
  -3 -11  -1  202.78    9.33
  -3 -11   0  141.19    8.03
  -3 -11   0  124.26    8.36
  -3 -11   1   13.64    2.92
  -3 -11   2    5.95    1.95
  -3 -11   3    1.19    0.89
  -3 -11   4   20.57    3.94
  -3 -11   5   16.71    3.75
  -3 -10 -11   75.00    3.31
  -3 -10 -11   67.83    4.97
  -3 -10 -10  112.72    4.41
  -3 -10 -10  107.11    6.19
  -3 -10  -9   37.59    2.54
  -3 -10  -9   40.05    3.49
  -3 -10  -8    0.13    0.31
  -3 -10  -8    0.91    0.71
  -3 -10  -7   18.60    1.99
  -3 -10  -7   13.51    2.03
  -3 -10  -6   44.17    2.25
  -3 -10  -6   44.13    3.67
  -3 -10  -5   85.68    4.00
  -3 -10  -4    7.79    1.34
  -3 -10  -3    0.98    0.69
  -3 -10  -3    0.70    0.56
  -3 -10  -2   65.76    4.72
  -3 -10  -2   63.52    4.74
  -3 -10  -1   71.96    5.24
  -3 -10   0   83.73    5.88
  -3 -10   1  148.67    9.10
  -3 -10   1  148.75    8.37
  -3 -10   2   33.85    4.38
  -3 -10   3   14.09    2.97
  -3 -10   4    1.56    1.35
  -3 -10   5   13.26    3.08
  -3 -10   6   12.74    3.22
  -3  -9 -12    0.49    0.82
  -3  -9 -11   52.94    2.48
  -3  -9 -11   48.47    4.24
  -3  -9 -10   37.64    2.12
  -3  -9 -10   37.75    3.54
  -3  -9  -9  119.80    4.32
  -3  -9  -9  110.62    6.09
  -3  -9  -8    4.10    0.79
  -3  -9  -8    4.33    1.16
  -3  -9  -7   54.15    3.16
  -3  -9  -7   59.63    4.13
  -3  -9  -6   44.55    3.00
  -3  -9  -6   38.42    3.30
  -3  -9  -5  118.49    4.24
  -3  -9  -4   10.13    1.33
  -3  -9  -3   85.48    4.63
  -3  -9  -2  212.39    8.75
  -3  -9  -1  113.46    6.41
  -3  -9   0  170.15    8.33
  -3  -9   1   13.40    2.35
  -3  -9   2    0.96    0.67
  -3  -9   3   10.62    2.52
  -3  -9   4    1.90    1.52
  -3  -9   5    8.77    2.47
  -3  -9   6   11.73    2.97
  -3  -9   7    1.53    1.06
  -3  -8 -12   48.98    4.53
  -3  -8 -11   65.97    4.99
  -3  -8 -10  219.68    9.16
  -3  -8  -9   23.65    1.53
  -3  -8  -9   22.53    2.70
  -3  -8  -8  511.09   10.96
  -3  -8  -8  478.62   13.95
  -3  -8  -7  719.33   20.40
  -3  -8  -7  703.36   14.70
  -3  -8  -7  669.09   17.42
  -3  -8  -6  277.63    7.87
  -3  -8  -6  281.04   11.28
  -3  -8  -6  276.18    9.52
  -3  -8  -5  585.07   11.67
  -3  -8  -5  595.25   17.59
  -3  -8  -4    3.73    0.77
  -3  -8  -4    5.17    1.40
  -3  -8  -3   56.04    3.37
  -3  -8  -3   54.90    4.50
  -3  -8  -2  159.27    8.03
  -3  -8  -1  564.65   16.23
  -3  -8  -1  612.15   17.97
  -3  -8   0  199.60    8.83
  -3  -8   1  263.74   10.73
  -3  -8   2  300.64   12.05
  -3  -8   2  289.75   12.50
  -3  -8   3  170.18    9.83
  -3  -8   4   69.64    6.43
  -3  -8   5    4.08    1.80
  -3  -8   6   22.78    4.00
  -3  -8   7   65.99    7.04
  -3  -7 -11    2.30    1.02
  -3  -7 -10   53.45    4.34
  -3  -7  -9   -0.05    0.59
  -3  -7  -8  136.62    3.75
  -3  -7  -8  125.28    6.23
  -3  -7  -7  206.25    9.36
  -3  -7  -7  201.44    5.23
  -3  -7  -7  202.57    7.87
  -3  -7  -6  571.03   16.90
  -3  -7  -6  590.95   12.30
  -3  -7  -6  555.93   14.93
  -3  -7  -5  206.30    8.81
  -3  -7  -5  195.01    7.51
  -3  -7  -4  306.50    7.36
  -3  -7  -4  326.21   11.36
  -3  -7  -3    1.58    0.79
  -3  -7  -2   80.10    5.21
  -3  -7  -1   23.52    2.58
  -3  -7  -1   22.33    2.76
  -3  -7   0   82.46    5.26
  -3  -7   0   95.52    5.92
  -3  -7   1    1.52    0.77
  -3  -7   1    1.60    0.75
  -3  -7   2    0.42    0.60
  -3  -7   3  100.84    7.05
  -3  -7   4   81.76    6.67
  -3  -7   5  124.53    8.72
  -3  -7   6   21.04    3.65
  -3  -7   7    3.03    1.57
  -3  -7   8    7.25    2.38
  -3  -6 -11    6.88    1.65
  -3  -6 -10    0.08    0.57
  -3  -6  -9  165.18    7.57
  -3  -6  -8   53.76    4.01
  -3  -6  -7  474.08    8.97
  -3  -6  -7  493.25   13.38
  -3  -6  -6  921.72   22.48
  -3  -6  -6  877.90   20.42
  -3  -6  -5  852.17   21.28
  -3  -6  -5  871.55   19.75
  -3  -6  -4  444.60    8.62
  -3  -6  -4  441.93   13.33
  -3  -6  -3    9.82    1.67
  -3  -6  -2  171.54    7.36
  -3  -6  -1  215.34    8.54
  -3  -6   0    0.33    0.49
  -3  -6   0    0.36    0.44
  -3  -6   1   92.25    5.59
  -3  -6   1  103.98    5.92
  -3  -6   2   59.84    4.61
  -3  -6   2   61.78    4.75
  -3  -6   3   14.77    2.38
  -3  -6   3   11.62    2.20
  -3  -6   3   10.98    2.17
  -3  -6   4  130.39    8.14
  -3  -6   5    4.66    1.48
  -3  -6   6    9.29    2.32
  -3  -6   7   35.32    4.79
  -3  -6   8   -0.03    1.00
  -3  -6   9    1.07    1.03
  -3  -5 -12  128.55    5.46
  -3  -5 -11   17.34    1.68
  -3  -5 -11   20.53    2.91
  -3  -5 -10   33.52    3.45
  -3  -5  -9   59.86    4.52
  -3  -5  -8  129.53    6.36
  -3  -5  -7    1.16    0.45
  -3  -5  -6   23.44    2.35
  -3  -5  -5   68.93    4.41
  -3  -5  -5   69.93    4.00
  -3  -5  -4   16.91    2.07
  -3  -5  -3  225.82    8.15
  -3  -5  -2  563.57   14.64
  -3  -5  -1  882.22   20.37
  -3  -5   0   56.79    3.87
  -3  -5   1   62.31    4.32
  -3  -5   1   67.13    4.37
  -3  -5   2  256.41    9.93
  -3  -5   2  248.81    9.44
  -3  -5   3  382.80   13.14
  -3  -5   3  383.63   12.69
  -3  -5   4  213.12   10.14
  -3  -5   4  219.41    9.47
  -3  -5   5  207.56   10.49
  -3  -5   6  239.35   11.90
  -3  -5   7   35.20    4.54
  -3  -5   8   37.77    5.02
  -3  -5   9   -0.79    1.04
  -3  -5  10    6.27    2.22
  -3  -4 -12    2.45    0.79
  -3  -4 -11   28.62    2.40
  -3  -4 -10   38.72    2.54
  -3  -4 -10   40.10    3.93
  -3  -4  -9   15.69    1.38
  -3  -4  -9   15.33    2.22
  -3  -4  -8   91.20    3.08
  -3  -4  -8   96.39    5.49
  -3  -4  -7   53.69    1.71
  -3  -4  -7   58.82    4.01
  -3  -4  -6  101.83    4.99
  -3  -4  -5  196.24    7.06
  -3  -4  -4  306.59    9.55
  -3  -4  -4  294.98    8.90
  -3  -4  -3  208.25    7.36
  -3  -4  -2 1273.43   26.09
  -3  -4  -1 1009.05   21.58
  -3  -4   0  581.52   14.41
  -3  -4   1  811.53   19.35
  -3  -4   1  791.90   18.60
  -3  -4   2   39.95    3.46
  -3  -4   2   42.32    3.28
  -3  -4   3   24.75    2.86
  -3  -4   3   22.75    2.54
  -3  -4   4   34.45    3.58
  -3  -4   4   30.50    3.42
  -3  -4   4   35.71    3.35
  -3  -4   5   79.33    6.00
  -3  -4   5   87.41    5.63
  -3  -4   6   24.63    3.44
  -3  -4   7   80.15    6.65
  -3  -4   8   26.77    4.01
  -3  -4   9   25.69    4.09
  -3  -4  10   13.27    3.07
  -3  -4  11    9.75    2.68
  -3  -3 -13   19.76    2.56
  -3  -3 -12   98.00    5.39
  -3  -3 -11  242.25    8.45
  -3  -3 -10   32.26    2.53
  -3  -3 -10   29.43    3.48
  -3  -3  -9  531.28   12.63
  -3  -3  -9  571.33   16.65
  -3  -3  -8  223.66    6.26
  -3  -3  -8  223.52    9.03
  -3  -3  -7   21.70    1.36
  -3  -3  -7   22.22    2.46
  -3  -3  -6   15.31    1.95
  -3  -3  -5  181.67    6.67
  -3  -3  -4   52.21    3.17
  -3  -3  -3  568.04   13.68
  -3  -3  -3  572.28   13.56
  -3  -3  -3  576.56   10.78
  -3  -3  -2  308.97    8.65
  -3  -3  -1  348.14    9.28
  -3  -3   0  976.96   20.29
  -3  -3   1  237.62    8.20
  -3  -3   1  219.94    7.24
  -3  -3   2  182.80    7.54
  -3  -3   2  202.13    7.03
  -3  -3   3  387.84   12.42
  -3  -3   3  397.90   11.47
  -3  -3   4  238.63    9.72
  -3  -3   4  243.52    8.87
  -3  -3   5  228.24   10.09
  -3  -3   6  264.67   11.63
  -3  -3   7   21.42    3.24
  -3  -3   8   22.30    3.55
  -3  -3   9   11.41    2.77
  -3  -3  10    2.69    1.36
  -3  -3  11    2.72    1.68
  -3  -2 -13    2.79    1.14
  -3  -2 -12   10.04    1.77
  -3  -2 -11    5.35    1.28
  -3  -2 -10  359.99   10.80
  -3  -2  -9  123.54    5.30
  -3  -2  -9  140.61    7.53
  -3  -2  -8  296.20    8.28
  -3  -2  -8  286.81   10.85
  -3  -2  -7  231.77    6.46
  -3  -2  -7  235.85    9.01
  -3  -2  -6    7.86    0.84
  -3  -2  -6    8.09    1.44
  -3  -2  -5  109.07    5.15
  -3  -2  -4    4.24    0.88
  -3  -2  -3   49.16    2.91
  -3  -2  -3   48.66    2.07
  -3  -2  -2  239.19    5.85
  -3  -2  -2  237.88    6.84
  -3  -2  -1  883.31   17.73
  -3  -2   0 2215.17   39.69
  -3  -2   1  302.82    8.04
  -3  -2   2  159.51    6.67
  -3  -2   2  170.29    5.79
  -3  -2   3  419.27   12.55
  -3  -2   3  420.70   11.12
  -3  -2   4   10.29    1.76
  -3  -2   5    6.56    1.62
  -3  -2   6   -0.40    0.65
  -3  -2   7   59.05    5.22
  -3  -2   8  124.45    8.05
  -3  -2   9  116.94    8.19
  -3  -2  10   68.97    6.53
  -3  -2  11    4.68    2.03
  -3  -2  12   11.81    2.99
  -3  -1 -12   10.54    2.11
  -3  -1 -11  201.39    8.56
  -3  -1 -10   81.43    4.91
  -3  -1  -9  290.65    9.49
  -3  -1  -9  293.68   11.87
  -3  -1  -8   28.93    2.40
  -3  -1  -8   27.41    3.11
  -3  -1  -7    7.31    1.06
  -3  -1  -7    7.55    1.54
  -3  -1  -6  336.59    8.46
  -3  -1  -6  328.38   10.78
  -3  -1  -5  213.45    7.60
  -3  -1  -4   43.51    2.94
  -3  -1  -3    3.00    0.64
  -3  -1  -3    1.09    0.42
  -3  -1  -2  113.78    4.43
  -3  -1  -2  121.81    3.98
  -3  -1  -1    8.44    0.98
  -3  -1  -1    8.99    0.93
  -3  -1   0  132.97    3.96
  -3  -1   1  718.66   14.24
  -3  -1   2  220.73    7.54
  -3  -1   2  206.08    5.92
  -3  -1   3  331.92   10.39
  -3  -1   4   25.47    2.69
  -3  -1   5    0.16    0.48
  -3  -1   6   43.52    3.99
  -3  -1   7   21.38    2.94
  -3  -1   8    1.34    0.91
  -3  -1   9   47.97    4.99
  -3  -1  10   22.25    3.50
  -3  -1  11   87.34    7.47
  -3  -1  12   37.72    5.08
  -3  -1  13   21.07    4.05
  -3   0 -11    0.27    0.51
  -3   0 -10   57.74    4.39
  -3   0  -9  126.40    6.22
  -3   0  -8  288.69    9.41
  -3   0  -8  277.17   11.22
  -3   0  -7  391.12   10.90
  -3   0  -7  398.98   13.08
  -3   0  -6   56.40    3.22
  -3   0  -6   64.71    4.42
  -3   0  -5  973.09   22.06
  -3   0  -4   89.89    4.46
  -3   0  -3   12.73    1.49
  -3   0  -3   25.81    1.98
  -3   0  -2  206.90    6.52
  -3   0  -2  255.63    6.77
  -3   0  -1  757.29   15.96
  -3   0  -1  802.72   16.16
  -3   0   0  625.14   13.93
  -3   0   0  646.28   11.92
  -3   0   1  591.51   11.06
  -3   0   2  881.04   18.10
  -3   0   2  785.74   15.28
  -3   0   3   20.77    2.14
  -3   0   4   77.77    4.55
  -3   0   5  218.10    8.45
  -3   0   6   11.78    1.93
  -3   0   7   -0.24    0.44
  -3   0   8    3.30    1.11
  -3   0   9   16.85    2.78
  -3   0  10    3.63    1.51
  -3   0  11    8.17    2.28
  -3   0  12    0.15    0.79
  -3   0  13    8.48    2.54
  -3   1 -10   26.86    3.10
  -3   1  -9    8.78    1.76
  -3   1  -8   65.09    4.38
  -3   1  -8   67.99    5.32
  -3   1  -7  416.53   12.19
  -3   1  -7  449.32   14.52
  -3   1  -6 2099.41   40.32
  -3   1  -6 2129.83   42.83
  -3   1  -5 1093.60   24.55
  -3   1  -4 1057.13   23.02
  -3   1  -3  756.70   16.95
  -3   1  -2    5.11    0.97
  -3   1  -2   10.47    1.31
  -3   1  -1    9.80    1.22
  -3   1  -1    3.28    0.68
  -3   1   0    0.49    0.29
  -3   1   0    1.12    0.42
  -3   1   1   29.49    2.24
  -3   1   2  303.16    8.40
  -3   1   3  128.97    5.32
  -3   1   4  465.05   12.68
  -3   1   5  481.73   13.19
  -3   1   6  196.19    8.01
  -3   1   7   56.93    4.35
  -3   1   8   35.13    3.58
  -3   1   9   12.56    2.30
  -3   1  10   23.27    3.29
  -3   1  11  179.54   10.08
  -3   1  12  107.76    8.06
  -3   1  13    8.96    2.52
  -3   1  14   15.61    3.34
  -3   2  -9   13.26    2.25
  -3   2  -8   13.28    2.08
  -3   2  -7   17.10    2.26
  -3   2  -7   18.18    2.78
  -3   2  -6  142.41    6.43
  -3   2  -6  153.04    7.58
  -3   2  -5  102.21    5.65
  -3   2  -4 1705.65   34.40
  -3   2  -3  447.20   11.90
  -3   2  -2  244.87    7.62
  -3   2  -2  282.31    8.73
  -3   2  -1   48.12    2.60
  -3   2  -1   46.32    3.00
  -3   2   0  205.91    5.65
  -3   2   0  227.20    7.16
  -3   2   1  112.57    3.63
  -3   2   1  127.29    5.11
  -3   2   2   81.01    3.45
  -3   2   2   85.05    4.26
  -3   2   3   11.54    0.85
  -3   2   3   11.54    1.60
  -3   2   3   13.10    1.43
  -3   2   4  156.01    6.04
  -3   2   5  114.03    5.04
  -3   2   6  450.10   12.60
  -3   2   7  107.97    5.74
  -3   2   8   16.45    2.33
  -3   2   9   36.31    3.76
  -3   2  10    3.81    1.32
  -3   2  11   -0.95    0.96
  -3   2  12   34.03    4.30
  -3   2  13    1.30    1.27
  -3   2  14    1.88    1.21
  -3   2  15    8.91    2.58
  -3   3  -8   22.99    2.98
  -3   3  -7   13.22    2.11
  -3   3  -7   12.73    2.32
  -3   3  -6   29.97    3.06
  -3   3  -6   28.92    3.37
  -3   3  -5  973.06   23.75
  -3   3  -4 1011.45   23.34
  -3   3  -3 2077.70   40.17
  -3   3  -2  495.51   13.50
  -3   3  -2  477.81   12.18
  -3   3  -1  408.65   11.34
  -3   3  -1  377.22    9.66
  -3   3   0    0.59    0.48
  -3   3   0    1.93    0.45
  -3   3   1   79.74    4.15
  -3   3   1   73.24    2.62
  -3   3   2   -0.08    0.15
  -3   3   2   -0.26    0.64
  -3   3   2    0.12    0.15
  -3   3   2    0.48    0.21
  -3   3   3  396.15   11.28
  -3   3   3  358.18    9.17
  -3   3   3  385.79    7.88
  -3   3   4  112.98    3.66
  -3   3   4  103.41    3.90
  -3   3   4  110.47    5.51
  -3   3   5  281.05    7.62
  -3   3   5  284.39    8.08
  -3   3   6  359.12   10.15
  -3   3   7  245.69    8.57
  -3   3   8  100.73    5.55
  -3   3   9    2.88    1.01
  -3   3  10   89.76    5.96
  -3   3  11    5.12    1.53
  -3   3  12    0.61    0.83
  -3   3  13   -1.07    0.83
  -3   3  14   -0.50    1.40
  -3   3  15    2.92    1.81
  -3   4  -6    3.26    1.15
  -3   4  -5    8.91    1.78
  -3   4  -4   26.58    2.92
  -3   4  -3   48.84    3.63
  -3   4  -2  953.60   21.01
  -3   4  -1   56.69    3.96
  -3   4  -1   55.38    3.13
  -3   4   0   96.05    5.06
  -3   4   0  103.96    3.92
  -3   4   1  103.26    5.04
  -3   4   1   91.43    3.15
  -3   4   2   63.15    3.97
  -3   4   2   73.61    2.58
  -3   4   2   72.02    2.24
  -3   4   2   75.23    2.88
  -3   4   3  593.71   15.52
  -3   4   3  612.99   11.28
  -3   4   3  642.39   12.83
  -3   4   3  609.19   12.46
  -3   4   4  205.73    7.91
  -3   4   4  197.51    4.97
  -3   4   4  191.16    5.47
  -3   4   5   23.09    1.76
  -3   4   5   22.39    1.61
  -3   4   5   22.14    2.50
  -3   4   6   30.57    2.31
  -3   4   6   31.79    2.25
  -3   4   6   36.23    3.41
  -3   4   7  603.93   14.83
  -3   4   7  599.60   14.50
  -3   4   8  321.43   10.34
  -3   4   8  315.92   10.03
  -3   4   9    6.11    1.33
  -3   4  10  125.55    6.76
  -3   4  11   36.34    3.76
  -3   4  12   14.75    2.57
  -3   4  13   -0.73    0.66
  -3   4  14    1.64    1.28
  -3   5  -5    9.88    2.01
  -3   5  -4    0.28    0.64
  -3   5  -3    0.76    0.66
  -3   5  -2   14.08    1.87
  -3   5  -1  395.85   12.76
  -3   5  -1  397.89   10.90
  -3   5   0  386.80   12.13
  -3   5   0  368.87    9.57
  -3   5   1  125.12    6.01
  -3   5   1  123.85    4.07
  -3   5   2  363.97   11.45
  -3   5   2  380.65    7.64
  -3   5   2  389.85    9.51
  -3   5   3   85.74    4.82
  -3   5   3   72.51    3.23
  -3   5   4  174.69    7.43
  -3   5   4  183.91    5.69
  -3   5   5    2.30    0.98
  -3   5   5    0.95    0.38
  -3   5   5    1.97    0.33
  -3   5   6   53.45    3.15
  -3   5   6   56.03    2.54
  -3   5   6   53.25    4.21
  -3   5   7   28.97    2.48
  -3   5   7   32.41    2.23
  -3   5   7   26.84    3.09
  -3   5   8   36.76    3.01
  -3   5   8   33.07    2.58
  -3   5   8   37.74    3.85
  -3   5   9   70.01    4.56
  -3   5   9   70.47    4.28
  -3   5  10   46.35    3.93
  -3   5  10   41.56    3.53
  -3   5  11   38.52    3.88
  -3   5  11   40.03    3.75
  -3   5  12   11.01    2.11
  -3   5  12   10.33    2.06
  -3   5  13   36.30    4.23
  -3   5  13   37.30    4.11
  -3   5  14    0.90    0.67
  -3   5  14    1.02    0.81
  -3   6  -5   29.40    3.60
  -3   6  -4   16.29    2.53
  -3   6  -3    8.07    1.64
  -3   6  -2   -0.21    0.44
  -3   6  -1  289.55    9.36
  -3   6   0  297.85   10.81
  -3   6   0  284.25    8.47
  -3   6   1 1209.58   27.02
  -3   6   1 1169.99   22.73
  -3   6   2  588.13   16.03
  -3   6   3   61.76    4.29
  -3   6   3   69.46    3.54
  -3   6   4   46.06    3.70
  -3   6   4   45.53    2.82
  -3   6   5  324.79   11.13
  -3   6   5  309.17    8.87
  -3   6   6   52.41    4.19
  -3   6   6   49.80    3.17
  -3   6   7   22.78    2.90
  -3   6   7   26.48    1.59
  -3   6   7   29.21    2.56
  -3   6   8   44.31    3.38
  -3   6   8   52.63    2.84
  -3   6   8   45.19    4.17
  -3   6   9   74.95    4.73
  -3   6   9   72.95    3.91
  -3   6   9   67.20    5.34
  -3   6  10  112.41    6.28
  -3   6  10  118.50    5.65
  -3   6  10  108.33    7.22
  -3   6  11   41.04    3.91
  -3   6  11   39.83    3.48
  -3   6  11   40.19    4.52
  -3   6  12   37.87    3.98
  -3   6  12   40.53    4.74
  -3   6  12   40.31    3.78
  -3   6  13   15.22    2.63
  -3   6  13   15.60    2.53
  -3   6  14   -0.03    0.97
  -3   7  -5   67.68    5.18
  -3   7  -4    4.14    1.23
  -3   7  -4    6.19    1.75
  -3   7  -3   85.89    5.71
  -3   7  -3   79.76    4.82
  -3   7  -2    2.65    0.71
  -3   7  -2    5.19    1.32
  -3   7  -1  116.00    4.65
  -3   7  -1  118.63    5.81
  -3   7   0   93.02    3.42
  -3   7   1  322.77   11.74
  -3   7   2  413.79   13.32
  -3   7   3  462.36   14.19
  -3   7   3  473.71   12.51
  -3   7   4  344.58   11.83
  -3   7   4  354.67   10.14
  -3   7   5  340.82   11.76
  -3   7   5  335.77    9.92
  -3   7   6   30.75    3.25
  -3   7   6   31.39    2.61
  -3   7   7   12.97    2.15
  -3   7   7   14.81    1.91
  -3   7   8   54.15    4.64
  -3   7   8   59.81    2.19
  -3   7   8   61.97    4.09
  -3   7   9    0.58    0.61
  -3   7   9    0.76    0.45
  -3   7   9    0.36    0.28
  -3   7  10    3.78    1.40
  -3   7  10    5.87    1.40
  -3   7  10    5.31    0.97
  -3   7  11   40.77    3.94
  -3   7  11   43.17    3.16
  -3   7  11   40.82    4.49
  -3   7  12   85.13    6.06
  -3   7  12   85.15    6.86
  -3   7  13   13.57    2.45
  -3   7  13   13.70    2.98
  -3   7  14   34.03    4.66
  -3   7  15   -0.74    0.86
  -3   8  -5   33.12    3.69
  -3   8  -4   23.66    2.94
  -3   8  -3   49.96    3.87
  -3   8  -2   12.99    1.79
  -3   8  -1    0.21    0.28
  -3   8   0    0.29    0.19
  -3   8   1   15.03    2.48
  -3   8   2   36.32    3.74
  -3   8   3   34.08    3.50
  -3   8   3   24.00    2.50
  -3   8   4   15.08    2.31
  -3   8   4   16.73    2.02
  -3   8   5    2.51    0.94
  -3   8   5    4.37    1.00
  -3   8   6   10.45    1.96
  -3   8   6   11.08    1.66
  -3   8   7   35.60    3.64
  -3   8   7   35.90    3.07
  -3   8   8    4.28    1.19
  -3   8   8    3.86    1.06
  -3   8   9   28.08    3.48
  -3   8   9   29.00    3.01
  -3   8  10    0.58    0.83
  -3   8  10    0.08    0.44
  -3   8  10    0.84    0.31
  -3   8  11   43.12    4.67
  -3   8  11   39.53    3.82
  -3   8  12    5.31    1.62
  -3   8  12    3.02    1.54
  -3   8  13   39.59    4.26
  -3   8  13   43.87    5.15
  -3   8  14    1.72    1.15
  -3   8  15   11.96    2.96
  -3   9  -4   48.75    4.40
  -3   9  -3  185.34    8.20
  -3   9  -2   27.73    2.68
  -3   9  -1    0.12    0.43
  -3   9   2   68.83    5.47
  -3   9   3  115.43    7.03
  -3   9   4   42.50    4.09
  -3   9   4   44.45    3.65
  -3   9   5    8.10    1.82
  -3   9   5   11.80    1.77
  -3   9   6  152.22    7.89
  -3   9   6  138.43    6.66
  -3   9   7    0.13    0.49
  -3   9   7    1.43    0.52
  -3   9   8   20.01    2.87
  -3   9   8   18.13    2.33
  -3   9   9    0.16    0.66
  -3   9   9    1.52    0.82
  -3   9  10    7.81    1.92
  -3   9  10   11.70    2.10
  -3   9  11    3.83    1.32
  -3   9  11    3.68    1.13
  -3   9  12   33.05    4.19
  -3   9  12   30.48    3.57
  -3   9  13   -0.69    0.94
  -3   9  13    0.23    0.50
  -3   9  14    6.41    2.20
  -3  10   3   73.22    5.79
  -3  10   4   36.98    4.05
  -3  10   4   34.42    3.44
  -3  10   5  102.26    6.69
  -3  10   5  105.05    6.07
  -3  10   6    9.20    1.97
  -3  10   6   14.53    2.29
  -3  10   7  105.12    6.74
  -3  10   7  104.27    6.07
  -3  10   8   30.02    3.60
  -3  10   8   31.09    3.28
  -3  10   9   60.76    5.27
  -3  10   9   59.04    4.67
  -3  10  10   43.61    4.61
  -3  10  10   49.44    4.37
  -3  10  11    4.55    1.57
  -3  10  11    5.31    1.44
  -3  10  12   26.14    3.82
  -3  10  12   22.42    3.11
  -3  10  13   -0.39    0.65
  -3  11   4    0.12    0.68
  -3  11   5    2.12    1.19
  -3  11   5    2.63    1.17
  -3  11   6   52.38    4.98
  -3  11   6   54.80    4.59
  -3  11   7   30.61    3.74
  -3  11   7   23.64    2.95
  -3  11   8   47.32    4.68
  -3  11   8   48.24    4.33
  -3  11   9    0.64    0.72
  -3  11   9   -0.62    0.87
  -3  11  10    5.72    1.77
  -3  11  10    5.64    1.45
  -3  11  11   17.56    2.99
  -3  11  11   19.19    2.93
  -3  11  12   12.09    2.71
  -3  12   5    5.46    1.74
  -3  12   5    7.25    1.83
  -3  12   6   24.52    3.48
  -3  12   6   29.33    3.51
  -3  12   7   63.15    5.70
  -3  12   7   50.72    4.70
  -3  12   8  143.72    8.63
  -3  12   8  125.58    7.50
  -3  12   9   39.69    4.42
  -3  12   9   35.34    3.89
  -3  12  10   19.92    3.19
  -3  12  10   18.48    2.83
  -3  12  11    0.77    0.63
  -3  13   6    9.83    2.20
  -3  13   7    7.13    2.06
  -3  13   7    3.74    1.40
  -3  13   8    4.26    1.73
  -3  13   8    5.31    1.66
  -3  13   9   37.40    4.49
  -3  13   9   31.05    3.85
  -3  13  10   11.55    2.36
  -3  14   7   11.54    2.54
  -3  14   8    8.52    2.19
  -3  14   8    8.96    2.19
  -2 -15  -1    1.90    0.99
  -2 -15   0   -1.10    1.52
  -2 -14  -8    6.11    1.49
  -2 -14  -7   34.59    3.89
  -2 -14  -5   30.02    3.46
  -2 -14  -4   48.13    4.64
  -2 -14  -3   24.65    3.52
  -2 -14  -2    6.20    1.98
  -2 -14  -1    0.28    0.98
  -2 -14   0    0.18    0.88
  -2 -14   1    2.70    1.42
  -2 -14   2    5.72    2.32
  -2 -13  -9   43.09    3.86
  -2 -13  -8   -0.13    0.54
  -2 -13  -7    2.03    1.03
  -2 -13  -6    3.11    1.06
  -2 -13  -6    1.98    0.74
  -2 -13  -5   87.94    4.90
  -2 -13  -4   68.66    4.42
  -2 -13  -4   70.37    5.43
  -2 -13  -3  118.96    7.57
  -2 -13  -2   80.17    6.41
  -2 -13  -1   27.45    3.93
  -2 -13   0   18.81    3.38
  -2 -13   1    0.56    1.15
  -2 -13   2    1.70    1.44
  -2 -13   3   16.12    3.53
  -2 -12 -10   71.29    4.58
  -2 -12  -9    3.43    1.02
  -2 -12  -8    1.03    0.97
  -2 -12  -7    4.13    1.22
  -2 -12  -7    3.08    1.04
  -2 -12  -6    9.76    1.86
  -2 -12  -6   11.00    1.56
  -2 -12  -5   -0.36    0.68
  -2 -12  -5    0.21    0.76
  -2 -12  -5    0.00    0.39
  -2 -12  -4    0.24    0.48
  -2 -12  -4   -0.20    0.34
  -2 -12  -3    0.52    0.75
  -2 -12  -3    2.89    0.98
  -2 -12  -2   44.70    4.45
  -2 -12  -2   44.79    3.86
  -2 -12  -2   40.47    4.31
  -2 -12  -1  140.42    8.63
  -2 -12   0   78.25    6.62
  -2 -12   1   54.48    5.72
  -2 -12   2    1.18    1.29
  -2 -12   3    0.28    0.72
  -2 -12   4   -1.36    1.07
  -2 -11 -11  201.72    7.50
  -2 -11 -10   86.59    4.72
  -2 -11  -9   74.48    4.47
  -2 -11  -9   73.01    4.49
  -2 -11  -8   36.59    3.19
  -2 -11  -8   36.82    3.06
  -2 -11  -7   32.23    3.11
  -2 -11  -7   32.23    2.91
  -2 -11  -6  102.48    5.79
  -2 -11  -6  105.15    5.52
  -2 -11  -6  101.93    4.75
  -2 -11  -5  178.58    8.18
  -2 -11  -5  178.01    7.05
  -2 -11  -4   40.92    3.90
  -2 -11  -4   41.89    3.45
  -2 -11  -4   45.08    3.43
  -2 -11  -3   36.40    3.48
  -2 -11  -3   44.85    3.58
  -2 -11  -2   62.23    4.95
  -2 -11  -2   68.22    4.60
  -2 -11  -1    6.03    1.75
  -2 -11  -1    7.54    1.60
  -2 -11  -1    6.97    1.80
  -2 -11   0   14.69    2.74
  -2 -11   1   -0.24    0.64
  -2 -11   2    1.25    1.11
  -2 -11   3   -0.06    1.19
  -2 -11   4    1.29    0.92
  -2 -11   5    0.62    1.11
  -2 -10 -11   16.98    2.30
  -2 -10 -10  189.79    6.96
  -2 -10 -10  195.87    7.91
  -2 -10  -9  305.41    9.32
  -2 -10  -9  283.34    9.75
  -2 -10  -8  193.69    7.25
  -2 -10  -8  191.90    7.37
  -2 -10  -7  133.38    6.02
  -2 -10  -7  121.81    5.76
  -2 -10  -6    3.32    0.73
  -2 -10  -6    4.19    1.14
  -2 -10  -6    2.58    0.78
  -2 -10  -5  151.91    6.91
  -2 -10  -5  146.27    5.82
  -2 -10  -4    0.29    0.59
  -2 -10  -4   -0.27    0.55
  -2 -10  -3  124.27    6.16
  -2 -10  -3  109.02    5.59
  -2 -10  -2   13.45    2.17
  -2 -10  -2   16.56    2.19
  -2 -10  -1   97.13    6.19
  -2 -10  -1   91.97    5.49
  -2 -10   0  104.69    6.86
  -2 -10   0   93.58    6.61
  -2 -10   1   43.73    4.66
  -2 -10   2   76.66    6.57
  -2 -10   3   55.62    5.84
  -2 -10   4   77.57    7.09
  -2 -10   5   41.94    5.54
  -2 -10   6   18.56    3.76
  -2  -9 -12   38.70    3.77
  -2  -9 -11   78.74    5.08
  -2  -9 -10   46.01    3.68
  -2  -9  -9    1.98    0.75
  -2  -9  -8    1.49    0.66
  -2  -9  -8    0.69    0.44
  -2  -9  -7    0.81    0.47
  -2  -9  -7    0.55    0.48
  -2  -9  -6  498.00   12.86
  -2  -9  -6  483.50   15.89
  -2  -9  -6  471.63   12.84
  -2  -9  -6  462.88   10.71
  -2  -9  -5   94.19    4.90
  -2  -9  -5   96.80    6.34
  -2  -9  -5   92.78    4.06
  -2  -9  -4    1.35    0.63
  -2  -9  -4    2.04    0.62
  -2  -9  -4    1.74    0.56
  -2  -9  -3    7.00    1.74
  -2  -9  -3    6.61    1.27
  -2  -9  -3    5.37    1.28
  -2  -9  -2  141.81    6.68
  -2  -9  -2  133.47    6.27
  -2  -9  -1    0.93    0.45
  -2  -9  -1    1.74    0.63
  -2  -9   0   -0.07    0.40
  -2  -9   1   26.05    3.40
  -2  -9   2   12.95    2.51
  -2  -9   3   38.36    4.60
  -2  -9   4   19.17    3.41
  -2  -9   5    1.93    1.26
  -2  -9   6    0.82    0.90
  -2  -9   7    0.48    0.76
  -2  -8 -12   34.51    3.63
  -2  -8 -11    3.33    1.18
  -2  -8 -10   15.47    2.12
  -2  -8  -9   91.44    5.04
  -2  -8  -8  183.52    7.26
  -2  -8  -7  816.22   17.43
  -2  -8  -7  823.97   22.04
  -2  -8  -7  791.59   18.50
  -2  -8  -6  546.60   16.57
  -2  -8  -6  553.98   13.27
  -2  -8  -6  548.20   13.95
  -2  -8  -5  273.27    8.42
  -2  -8  -5  285.65   10.86
  -2  -8  -5  257.46    6.93
  -2  -8  -4  213.47    9.24
  -2  -8  -4  221.79    7.72
  -2  -8  -4  222.66    6.77
  -2  -8  -3    2.20    0.88
  -2  -8  -3    1.59    0.63
  -2  -8  -3    0.70    0.24
  -2  -8  -2    1.16    0.70
  -2  -8  -2    0.63    0.58
  -2  -8  -2    0.15    0.32
  -2  -8  -1  353.60   11.15
  -2  -8  -1  355.18   12.68
  -2  -8   0  106.85    5.78
  -2  -8   0  102.13    6.42
  -2  -8   1   44.96    3.89
  -2  -8   1   39.84    3.98
  -2  -8   2   60.39    5.28
  -2  -8   3   20.10    3.12
  -2  -8   4   71.30    6.26
  -2  -8   5  102.15    7.93
  -2  -8   6   41.98    5.21
  -2  -8   7    9.32    2.65
  -2  -8   8    3.60    1.10
  -2  -7 -12   20.98    2.93
  -2  -7 -11   42.04    3.85
  -2  -7 -10   52.64    4.08
  -2  -7  -9   38.79    3.28
  -2  -7  -8   38.52    3.10
  -2  -7  -7   43.62    3.99
  -2  -7  -7   45.33    3.11
  -2  -7  -6   72.04    4.96
  -2  -7  -6   75.07    3.38
  -2  -7  -6   75.07    4.02
  -2  -7  -5  385.23   12.48
  -2  -7  -5  405.26    9.92
  -2  -7  -5  380.15   10.51
  -2  -7  -5  363.33    8.04
  -2  -7  -4  356.36    8.50
  -2  -7  -4  356.15    9.69
  -2  -7  -4  353.32   11.76
  -2  -7  -3  473.03   11.40
  -2  -7  -3  482.60   12.43
  -2  -7  -3  466.73   14.08
  -2  -7  -2   90.74    4.43
  -2  -7  -2   87.79    5.31
  -2  -7  -1    5.72    1.40
  -2  -7  -1    5.71    1.13
  -2  -7   0   50.42    3.71
  -2  -7   0   53.76    4.29
  -2  -7   1   30.62    3.04
  -2  -7   1   32.59    3.43
  -2  -7   2   32.52    3.60
  -2  -7   2   30.88    3.27
  -2  -7   2   29.81    3.41
  -2  -7   3  232.52   10.80
  -2  -7   4  136.04    8.61
  -2  -7   5   39.89    4.70
  -2  -7   6   55.10    5.82
  -2  -7   7    2.09    1.61
  -2  -7   8   24.26    4.12
  -2  -7   9    3.10    1.42
  -2  -6 -11    6.93    1.52
  -2  -6 -10   11.12    1.83
  -2  -6  -9  223.25    8.67
  -2  -6  -8   24.32    2.46
  -2  -6  -7   26.13    2.42
  -2  -6  -6   34.28    3.29
  -2  -6  -6   33.94    2.58
  -2  -6  -5    6.56    0.85
  -2  -6  -5    6.50    1.33
  -2  -6  -5    3.34    0.77
  -2  -6  -4  197.53    4.84
  -2  -6  -4  191.69    7.78
  -2  -6  -4  195.96    5.94
  -2  -6  -3  383.04    9.01
  -2  -6  -3  397.75   10.04
  -2  -6  -3  384.74   11.71
  -2  -6  -2  792.30   19.18
  -2  -6  -1  395.96   12.07
  -2  -6   0   31.62    2.79
  -2  -6   0   29.19    2.93
  -2  -6   1   58.77    4.07
  -2  -6   1   60.76    4.41
  -2  -6   2   41.37    3.64
  -2  -6   2   43.17    3.90
  -2  -6   2   43.28    3.88
  -2  -6   3    1.28    0.59
  -2  -6   3    0.65    0.67
  -2  -6   4    4.57    1.38
  -2  -6   5   21.34    3.31
  -2  -6   6    2.94    1.42
  -2  -6   7   58.76    6.01
  -2  -6   8   62.23    6.42
  -2  -6   9   34.40    5.05
  -2  -6  10   13.61    3.32
  -2  -5 -11  316.15   12.22
  -2  -5 -10   63.04    4.71
  -2  -5  -9   81.49    5.07
  -2  -5  -8    8.21    1.45
  -2  -5  -7   35.08    2.82
  -2  -5  -6    1.13    0.52
  -2  -5  -5  461.51    9.53
  -2  -5  -5  470.35   13.14
  -2  -5  -5  466.00   11.67
  -2  -5  -4  307.23    9.75
  -2  -5  -4  313.07    7.25
  -2  -5  -4  296.33    8.49
  -2  -5  -3  324.76    7.18
  -2  -5  -3  341.09    8.24
  -2  -5  -3  346.86   10.21
  -2  -5  -2    3.76    0.95
  -2  -5  -1   63.06    3.84
  -2  -5   0  460.07   12.19
  -2  -5   0  450.60   12.69
  -2  -5   1  219.85    8.14
  -2  -5   1  234.62    8.51
  -2  -5   2   12.78    1.95
  -2  -5   2   15.22    2.02
  -2  -5   3    4.98    1.30
  -2  -5   3    4.48    1.30
  -2  -5   4   80.17    5.84
  -2  -5   4   92.04    5.79
  -2  -5   5    7.00    1.77
  -2  -5   5    4.24    1.30
  -2  -5   6   57.80    5.45
  -2  -5   7    6.23    1.84
  -2  -5   8   21.66    3.71
  -2  -5   9   23.80    3.92
  -2  -5  10    6.98    2.32
  -2  -4 -11    0.79    0.64
  -2  -4 -10  153.19    7.82
  -2  -4  -9  152.96    7.31
  -2  -4  -8   24.29    2.61
  -2  -4  -7  676.73   16.66
  -2  -4  -6   11.99    1.97
  -2  -4  -5   25.44    2.09
  -2  -4  -4    4.80    0.49
  -2  -4  -4    4.36    0.99
  -2  -4  -4    5.53    0.92
  -2  -4  -3   59.51    2.25
  -2  -4  -3   53.99    3.30
  -2  -4  -2  481.75   12.11
  -2  -4  -1 1316.30   26.43
  -2  -4   0  419.61   11.24
  -2  -4   1 1260.77   25.73
  -2  -4   1 1180.68   25.33
  -2  -4   2  137.06    6.16
  -2  -4   2  132.21    5.96
  -2  -4   3   90.77    5.31
  -2  -4   3   81.91    5.18
  -2  -4   3   88.76    5.05
  -2  -4   4   23.96    2.87
  -2  -4   4   17.77    2.32
  -2  -4   5   81.32    5.91
  -2  -4   6   44.12    4.46
  -2  -4   7   90.54    6.89
  -2  -4   8  108.50    7.92
  -2  -4   9   49.90    5.58
  -2  -4  10   71.36    7.04
  -2  -4  11   22.91    4.15
  -2  -3 -13   43.76    4.03
  -2  -3 -12    0.67    0.59
  -2  -3 -10   73.32    5.45
  -2  -3  -9   46.18    4.02
  -2  -3  -8 1044.85   24.39
  -2  -3  -7   40.31    3.22
  -2  -3  -6  102.33    4.86
  -2  -3  -5    6.52    1.12
  -2  -3  -4   50.28    2.80
  -2  -3  -3    3.03    0.73
  -2  -3  -3    4.29    0.76
  -2  -3  -2  466.20   11.13
  -2  -3  -1   27.91    2.03
  -2  -3   0  227.37    6.84
  -2  -3   1  395.31   10.71
  -2  -3   1  399.45   10.35
  -2  -3   2  259.36    8.61
  -2  -3   2  254.39    8.08
  -2  -3   3   74.87    4.53
  -2  -3   3   77.03    4.25
  -2  -3   4   78.00    5.09
  -2  -3   5  340.49   12.39
  -2  -3   6   21.86    2.96
  -2  -3   7   20.50    3.18
  -2  -3   8    8.55    2.12
  -2  -3   9   27.57    4.03
  -2  -3  10   13.54    2.98
  -2  -3  11   32.88    4.86
  -2  -3  12    9.12    2.64
  -2  -2 -12   31.40    3.39
  -2  -2 -11   11.19    1.85
  -2  -2 -10   14.19    1.92
  -2  -2 -10   12.50    2.22
  -2  -2  -9  592.23   17.59
  -2  -2  -8  447.90   13.81
  -2  -2  -7 1311.77   28.40
  -2  -2  -6    9.70    1.48
  -2  -2  -5    0.67    0.21
  -2  -2  -5    1.23    0.51
  -2  -2  -4  127.03    4.84
  -2  -2  -3  891.93   17.97
  -2  -2  -2   36.98    2.14
  -2  -2  -1  511.08   11.05
  -2  -2   0    9.27    1.01
  -2  -2   1  893.69   19.16
  -2  -2   1  946.74   18.47
  -2  -2   2  577.12   14.18
  -2  -2   2  586.06   13.26
  -2  -2   3   72.80    4.24
  -2  -2   4    1.17    0.69
  -2  -2   5   64.64    4.69
  -2  -2   6   58.99    4.73
  -2  -2   7   24.37    3.18
  -2  -2   8    2.13    1.11
  -2  -2   9   19.53    3.28
  -2  -2  10   17.26    3.24
  -2  -2  11   17.39    3.41
  -2  -2  12   11.89    2.91
  -2  -1 -11   94.84    5.83
  -2  -1 -10   28.40    2.96
  -2  -1  -9  138.15    6.32
  -2  -1  -9  134.55    7.57
  -2  -1  -8  873.83   19.72
  -2  -1  -8  874.65   22.34
  -2  -1  -7  969.81   20.75
  -2  -1  -7 1020.94   23.50
  -2  -1  -6  378.07    9.49
  -2  -1  -6  375.20   11.38
  -2  -1  -5    3.34    0.59
  -2  -1  -5    4.64    1.05
  -2  -1  -4  131.75    3.78
  -2  -1  -4  145.14    5.29
  -2  -1  -3   95.45    3.84
  -2  -1  -2    5.62    0.58
  -2  -1  -2    2.81    0.58
  -2  -1  -1  693.20   13.06
  -2  -1  -1  688.99   13.38
  -2  -1   0 2518.11   43.14
  -2  -1   1   10.74    0.94
  -2  -1   2    5.68    1.01
  -2  -1   3 1344.72   27.45
  -2  -1   4  297.31    9.71
  -2  -1   5   87.71    5.18
  -2  -1   6  230.50    9.42
  -2  -1   7  126.73    7.13
  -2  -1   8   79.56    5.94
  -2  -1   9    0.69    0.80
  -2  -1  10   14.45    2.75
  -2  -1  11   10.16    2.48
  -2  -1  12   86.00    7.65
  -2  -1  13   59.45    6.70
  -2   0 -11   -0.05    0.83
  -2   0 -10    3.05    1.06
  -2   0  -9   66.58    4.51
  -2   0  -8   77.20    4.55
  -2   0  -8   81.53    5.62
  -2   0  -7  345.05   10.20
  -2   0  -7  349.49   11.98
  -2   0  -6  552.82   13.21
  -2   0  -6  527.98   14.87
  -2   0  -5   19.97    1.70
  -2   0  -5   23.71    2.32
  -2   0  -4   76.55    3.19
  -2   0  -4   91.82    4.32
  -2   0  -3 5514.75   94.36
  -2   0  -2    7.01    0.89
  -2   0  -2   17.08    1.41
  -2   0  -1  471.37   10.21
  -2   0  -1  523.17   10.49
  -2   0   0  717.57   14.16
  -2   0   1  967.75   16.99
  -2   0   2  770.00   16.27
  -2   0   3   59.12    3.35
  -2   0   4  165.44    6.38
  -2   0   5   15.77    2.01
  -2   0   6  105.73    5.76
  -2   0   7  115.30    6.45
  -2   0   8   77.70    5.57
  -2   0   9   38.87    4.12
  -2   0  10    0.79    0.69
  -2   0  11    0.12    0.99
  -2   0  12   -1.66    1.31
  -2   0  13   18.69    3.61
  -2   0  14    3.38    1.68
  -2   1 -10    1.41    0.79
  -2   1  -9    2.96    1.06
  -2   1  -8    6.01    1.38
  -2   1  -8    5.57    1.39
  -2   1  -7   60.74    4.01
  -2   1  -7   58.54    4.66
  -2   1  -6    6.03    1.12
  -2   1  -6    6.48    1.44
  -2   1  -5 1308.32   26.44
  -2   1  -5 1331.79   28.22
  -2   1  -4  247.40    7.21
  -2   1  -4  237.59    8.00
  -2   1  -3 9067.64  152.54
  -2   1  -3 9156.13  153.80
  -2   1  -2 9999.00  167.26
  -2   1  -2 9964.64  166.87
  -2   1  -1  602.63   13.04
  -2   1  -1  636.70   12.67
  -2   1   0   22.48    1.57
  -2   1   0   16.55    1.09
  -2   1   1 1311.97   24.77
  -2   1   2   54.73    2.64
  -2   1   3    1.82    0.52
  -2   1   4  468.09   11.67
  -2   1   5  520.89   13.44
  -2   1   6  276.10    9.39
  -2   1   7  107.79    5.88
  -2   1   8   38.18    3.65
  -2   1   9   17.05    2.62
  -2   1  10   -0.79    0.93
  -2   1  11   26.05    3.67
  -2   1  12   -0.28    0.84
  -2   1  13   -1.29    1.15
  -2   1  14    1.89    1.55
  -2   2  -9   11.36    2.04
  -2   2  -8   12.78    2.15
  -2   2  -7  184.02    7.95
  -2   2  -7  182.47    8.90
  -2   2  -6    2.23    0.93
  -2   2  -6    2.58    1.01
  -2   2  -5  301.90    9.49
  -2   2  -5  301.66   10.46
  -2   2  -4  830.65   18.34
  -2   2  -4  812.81   19.19
  -2   2  -3  712.53   15.84
  -2   2  -3  712.87   16.39
  -2   2  -2  145.78    5.22
  -2   2  -1  124.43    4.83
  -2   2  -1  117.10    4.03
  -2   2   0  124.34    4.55
  -2   2   0  126.20    3.61
  -2   2   1    3.84    0.75
  -2   2   1    2.13    0.29
  -2   2   1    2.45    0.34
  -2   2   2  209.38    6.47
  -2   2   2  216.16    5.51
  -2   2   2  204.33    4.53
  -2   2   3    0.04    0.20
  -2   2   4  132.41    4.69
  -2   2   5  183.28    6.31
  -2   2   6  227.81    7.85
  -2   2   7  205.68    7.98
  -2   2   8  170.94    7.65
  -2   2   9   51.83    4.35
  -2   2  10   64.54    5.21
  -2   2  11   73.53    5.94
  -2   2  12    1.78    1.12
  -2   2  13   27.75    4.10
  -2   2  14    0.26    0.89
  -2   2  15    1.83    1.36
  -2   3  -8   30.00    3.48
  -2   3  -7   17.08    2.41
  -2   3  -7   15.94    2.73
  -2   3  -6   94.84    5.53
  -2   3  -6   87.96    5.96
  -2   3  -5   16.79    2.13
  -2   3  -5   17.01    2.32
  -2   3  -4  629.60   15.84
  -2   3  -4  632.27   16.60
  -2   3  -3  693.59   16.75
  -2   3  -2  383.27   10.25
  -2   3  -1    2.70    0.83
  -2   3  -1    2.89    0.65
  -2   3   0  109.55    4.74
  -2   3   0  113.87    3.64
  -2   3   1   22.98    1.98
  -2   3   1   28.78    1.26
  -2   3   1   28.66    1.59
  -2   3   2  247.71    7.30
  -2   3   2  215.48    5.10
  -2   3   2  234.83    5.53
  -2   3   3  521.88   12.65
  -2   3   3  507.31    9.78
  -2   3   3  504.77   10.56
  -2   3   4   80.57    3.27
  -2   3   4   79.65    2.96
  -2   3   4   76.32    4.11
  -2   3   5  193.86    6.23
  -2   3   5  188.73    5.87
  -2   3   6   30.26    2.35
  -2   3   7  122.27    5.51
  -2   3   8   22.41    2.46
  -2   3   9   97.81    5.76
  -2   3  10    1.99    0.78
  -2   3  11   40.45    4.18
  -2   3  12   45.29    4.73
  -2   3  13   61.86    5.84
  -2   3  14   16.64    3.23
  -2   3  15   -0.07    1.54
  -2   4  -6  108.78    6.33
  -2   4  -6  112.75    7.10
  -2   4  -5    1.36    0.69
  -2   4  -5    1.79    0.79
  -2   4  -4    0.05    0.36
  -2   4  -4    1.55    0.81
  -2   4  -3  347.82   11.10
  -2   4  -2  263.82    8.53
  -2   4  -1  844.21   18.09
  -2   4   0   32.20    2.70
  -2   4   0   32.10    2.00
  -2   4   1  274.67    8.39
  -2   4   1  264.10    6.18
  -2   4   1  269.95    7.17
  -2   4   2   44.28    2.95
  -2   4   2   48.04    2.41
  -2   4   3  431.29   11.55
  -2   4   3  449.89   10.09
  -2   4   4  231.84    7.93
  -2   4   4  240.53    5.13
  -2   4   4  238.80    6.70
  -2   4   5    3.87    1.00
  -2   4   5    3.12    0.74
  -2   4   5    4.16    0.62
  -2   4   6    2.53    0.61
  -2   4   6    2.25    0.56
  -2   4   7    5.41    1.15
  -2   4   7    4.12    0.87
  -2   4   8  130.12    5.81
  -2   4   9   13.01    1.92
  -2   4  10   27.88    3.06
  -2   4  11  167.30    8.38
  -2   4  12   49.06    4.64
  -2   4  13    0.46    0.53
  -2   4  14    9.58    2.41
  -2   4  15    7.11    2.16
  -2   5  -5  126.33    6.97
  -2   5  -5  127.37    7.40
  -2   5  -4   -0.39    0.65
  -2   5  -4    0.72    0.40
  -2   5  -3   61.43    4.36
  -2   5  -2   89.71    4.93
  -2   5  -1    5.03    1.00
  -2   5   0    7.98    1.54
  -2   5   0    5.66    0.69
  -2   5   0    4.88    0.86
  -2   5   1    2.29    0.76
  -2   5   2   96.05    4.75
  -2   5   2  107.81    4.33
  -2   5   3 2045.42   40.00
  -2   5   3 2129.34   38.41
  -2   5   4  481.12   12.86
  -2   5   4  479.97   11.52
  -2   5   5  864.05   20.15
  -2   5   5  869.72   15.50
  -2   5   5  891.02   18.71
  -2   5   6  556.90   13.56
  -2   5   6  535.22   11.38
  -2   5   6  524.21   14.54
  -2   5   7   13.36    1.75
  -2   5   7   14.26    1.43
  -2   5   7   14.80    2.09
  -2   5   8   12.72    1.84
  -2   5   8   15.21    1.69
  -2   5   9    0.69    0.64
  -2   5   9    0.26    0.49
  -2   5  10   91.49    5.83
  -2   5  10   88.47    5.15
  -2   5  11   46.31    4.33
  -2   5  11   47.14    3.98
  -2   5  12  115.85    7.43
  -2   5  12  110.64    6.76
  -2   5  13   17.89    3.12
  -2   5  13   15.01    2.66
  -2   5  14   23.40    3.56
  -2   5  14   20.59    3.26
  -2   5  15    8.72    2.52
  -2   5  15   10.57    2.49
  -2   5  16    0.71    0.75
  -2   6  -6   95.94    6.55
  -2   6  -5    4.19    1.19
  -2   6  -4  164.08    7.55
  -2   6  -4  164.31    8.30
  -2   6  -3   28.98    2.75
  -2   6  -3   33.19    3.38
  -2   6  -2   67.48    3.83
  -2   6  -2   64.72    4.36
  -2   6  -1    1.97    0.62
  -2   6   0   30.05    1.79
  -2   6   1   28.50    2.88
  -2   6   2  131.54    6.14
  -2   6   2  135.23    5.53
  -2   6   3  179.96    7.13
  -2   6   3  186.02    6.54
  -2   6   4   28.14    2.62
  -2   6   4   27.21    2.27
  -2   6   5    4.70    1.07
  -2   6   5    3.78    0.85
  -2   6   6   42.15    3.46
  -2   6   6   46.29    3.20
  -2   6   7   32.26    2.82
  -2   6   7   37.95    3.39
  -2   6   7   35.97    1.92
  -2   6   8    1.08    0.81
  -2   6   8    0.44    0.56
  -2   6   8    0.24    0.22
  -2   6   9    7.88    1.63
  -2   6   9   10.59    1.78
  -2   6   9    7.29    1.16
  -2   6  10   -0.10    0.71
  -2   6  10   -0.29    0.47
  -2   6  10    0.10    0.36
  -2   6  11   26.26    3.22
  -2   6  11   24.74    2.76
  -2   6  12    2.01    1.18
  -2   6  12    2.17    0.87
  -2   6  13   80.98    6.34
  -2   6  13   78.11    5.74
  -2   6  14    4.22    1.41
  -2   6  14    3.92    1.66
  -2   6  15    5.77    2.11
  -2   7  -5   55.25    4.71
  -2   7  -4    0.99    0.44
  -2   7  -3   62.23    4.27
  -2   7  -2   97.27    4.95
  -2   7  -1   18.65    1.83
  -2   7   0    1.90    0.46
  -2   7   2  348.47   11.64
  -2   7   2  359.06   10.80
  -2   7   3  189.85    7.85
  -2   7   3  185.39    7.09
  -2   7   4  424.45   12.59
  -2   7   4  420.58   11.83
  -2   7   5   80.62    4.82
  -2   7   5   76.27    4.34
  -2   7   6  197.64    8.07
  -2   7   6  191.70    7.40
  -2   7   7   59.28    4.35
  -2   7   7   60.25    4.05
  -2   7   8   99.51    5.91
  -2   7   8   98.77    3.40
  -2   7   8  100.37    5.52
  -2   7   9   -0.02    0.67
  -2   7   9    0.80    0.38
  -2   7   9    1.05    0.36
  -2   7  10   52.51    4.37
  -2   7  10   53.40    4.64
  -2   7  10   52.04    3.26
  -2   7  11    7.32    1.79
  -2   7  11    6.91    1.66
  -2   7  11    6.38    1.24
  -2   7  12   42.85    4.37
  -2   7  12   45.71    4.71
  -2   7  12   44.32    3.64
  -2   7  13    8.66    2.19
  -2   7  13    6.74    1.75
  -2   7  13    6.76    1.49
  -2   7  14   10.62    2.43
  -2   7  14   12.10    2.68
  -2   7  15    2.16    1.12
  -2   7  15    0.21    0.91
  -2   8  -5   72.81    5.71
  -2   8  -4  107.51    6.50
  -2   8  -3  122.69    6.43
  -2   8  -2   62.26    4.09
  -2   8  -1  221.53    7.44
  -2   8   2    5.33    1.46
  -2   8   2    6.48    1.49
  -2   8   3    0.92    0.58
  -2   8   3    0.66    0.49
  -2   8   4    4.33    1.20
  -2   8   4    4.24    1.07
  -2   8   5   58.19    4.25
  -2   8   5   63.08    4.16
  -2   8   6   28.02    2.94
  -2   8   6   35.87    3.17
  -2   8   7  141.75    7.01
  -2   8   7  142.12    6.72
  -2   8   8  272.57   10.39
  -2   8   8  249.96    9.63
  -2   8   9  186.73    8.70
  -2   8   9  184.03    8.33
  -2   8  10  214.61    9.76
  -2   8  10  208.51    6.33
  -2   8  10  221.04    9.54
  -2   8  11   26.18    3.27
  -2   8  11   30.21    2.42
  -2   8  11   27.78    3.50
  -2   8  12   12.84    2.38
  -2   8  12   11.82    2.38
  -2   8  13    4.51    1.51
  -2   8  13    4.38    1.60
  -2   8  14   36.00    4.42
  -2   8  14   39.42    4.68
  -2   8  15    5.50    1.86
  -2   8  15    6.17    2.10
  -2   9  -4   56.42    4.79
  -2   9  -3    2.63    0.99
  -2   9  -2   69.58    4.47
  -2   9   3   25.67    3.01
  -2   9   3   25.26    2.85
  -2   9   4   36.90    3.67
  -2   9   4   36.40    3.38
  -2   9   5    0.97    0.67
  -2   9   5    0.93    0.78
  -2   9   6    6.96    1.54
  -2   9   6    8.63    1.59
  -2   9   7   43.86    3.84
  -2   9   7   47.47    3.94
  -2   9   8    3.73    1.15
  -2   9   8   -0.20    0.67
  -2   9   9   17.49    2.55
  -2   9   9   16.62    2.42
  -2   9  10   23.93    3.07
  -2   9  10   25.14    3.10
  -2   9  11   44.94    4.41
  -2   9  11   46.43    4.42
  -2   9  12   15.97    2.72
  -2   9  12   15.42    2.64
  -2   9  13    3.99    1.52
  -2   9  13    2.73    1.18
  -2   9  14   24.02    3.60
  -2   9  14   25.83    3.78
  -2  10   3  114.08    6.67
  -2  10   4    4.69    1.34
  -2  10   4    2.26    0.96
  -2  10   5   56.30    4.71
  -2  10   5   57.26    4.53
  -2  10   6  298.43   11.42
  -2  10   6  296.15   11.17
  -2  10   7  127.52    7.00
  -2  10   7  119.61    6.76
  -2  10   8   18.79    2.61
  -2  10   8   14.90    2.32
  -2  10   9   28.58    3.32
  -2  10   9   30.82    3.44
  -2  10  10   72.62    5.53
  -2  10  10   71.18    5.46
  -2  10  11   14.96    2.58
  -2  10  11   14.01    2.42
  -2  10  12    0.30    0.50
  -2  10  12    2.00    1.34
  -2  10  13   10.89    2.42
  -2  10  13   14.61    2.69
  -2  10  14    6.77    2.02
  -2  11   4    0.14    0.67
  -2  11   5    6.53    1.67
  -2  11   5   13.46    2.42
  -2  11   6   71.88    5.50
  -2  11   6   74.16    5.48
  -2  11   7    2.56    1.17
  -2  11   7    0.18    0.84
  -2  11   8    8.05    1.77
  -2  11   8    7.44    1.81
  -2  11   9   75.96    5.63
  -2  11   9   76.65    5.76
  -2  11  10   65.88    5.39
  -2  11  10   66.38    5.46
  -2  11  11   41.52    4.34
  -2  11  11   48.71    4.77
  -2  11  12   59.02    5.27
  -2  11  12   53.64    5.16
  -2  11  13    1.00    0.69
  -2  12   5   49.60    4.80
  -2  12   6    7.81    1.98
  -2  12   6    8.23    1.91
  -2  12   7   41.85    4.30
  -2  12   7   43.64    4.43
  -2  12   8   10.99    2.24
  -2  12   8   13.33    2.50
  -2  12   9    1.18    0.71
  -2  12   9    0.75    0.96
  -2  12  10    1.32    0.81
  -2  12  10    2.22    1.16
  -2  12  11   18.73    3.05
  -2  12  12    2.92    1.09
  -2  13   5   10.35    2.40
  -2  13   6   63.60    5.69
  -2  13   7    1.00    0.80
  -2  13   8   -0.17    0.74
  -2  13   8    0.02    0.75
  -2  13   9   18.85    2.99
  -2  13   9   15.25    2.78
  -2  13  10   14.10    2.81
  -2  13  11    0.96    0.75
  -2  13  12   17.29    3.08
  -2  14   6    5.93    1.82
  -2  14   7   42.21    4.85
  -2  14   8   48.65    5.23
  -2  14   9    5.33    1.79
  -2  14  10   14.47    2.87
  -2  14  11    0.25    1.05
  -2  15   7   22.64    3.63
  -2  15   8   -0.43    0.82
  -2  15   9    8.00    2.38
  -2  16   8   28.96    4.54
  -1 -16  -7   28.52    4.08
  -1 -15  -8   16.45    2.88
  -1 -15  -7    1.18    1.04
  -1 -15  -6   -1.33    1.18
  -1 -15  -5   25.67    3.78
  -1 -14  -9    8.67    1.98
  -1 -14  -8   11.59    2.28
  -1 -14  -7   -0.44    1.10
  -1 -14  -6   32.70    4.08
  -1 -14  -5    1.81    0.91
  -1 -14  -4    7.90    2.07
  -1 -14  -4   10.35    2.02
  -1 -14  -3   14.15    2.48
  -1 -14  -2    4.74    1.70
  -1 -14  -1   17.16    3.07
  -1 -14   0   10.08    2.51
  -1 -14   1   13.29    2.93
  -1 -14   2    6.02    2.13
  -1 -13 -10  116.93    6.70
  -1 -13  -9   28.37    3.33
  -1 -13  -8   33.46    3.66
  -1 -13  -7   54.00    4.79
  -1 -13  -6   26.79    3.52
  -1 -13  -6   26.39    2.71
  -1 -13  -5   17.61    2.95
  -1 -13  -5   23.96    2.77
  -1 -13  -4   25.48    3.51
  -1 -13  -4   30.08    3.30
  -1 -13  -3    8.16    2.17
  -1 -13  -3    9.78    1.98
  -1 -13  -2   11.93    2.40
  -1 -13  -1   19.64    3.08
  -1 -13   0   50.85    5.30
  -1 -13   1   29.83    4.23
  -1 -13   2    7.03    2.20
  -1 -13   3    0.42    1.06
  -1 -12 -11   26.07    2.87
  -1 -12 -10   27.09    3.00
  -1 -12  -9  116.05    6.44
  -1 -12  -8    9.94    1.82
  -1 -12  -7   53.95    4.42
  -1 -12  -7   48.43    3.57
  -1 -12  -7   56.91    3.48
  -1 -12  -6   -0.08    0.68
  -1 -12  -6    1.24    0.81
  -1 -12  -6    0.74    0.30
  -1 -12  -6    0.57    0.57
  -1 -12  -5   18.28    2.64
  -1 -12  -5   23.45    2.74
  -1 -12  -5   19.79    1.84
  -1 -12  -4    2.10    1.04
  -1 -12  -4    0.42    0.51
  -1 -12  -4    1.18    0.63
  -1 -12  -4    2.25    1.04
  -1 -12  -3    5.08    1.50
  -1 -12  -3    4.06    1.35
  -1 -12  -3    4.50    1.23
  -1 -12  -2   17.61    2.72
  -1 -12  -1    9.77    2.09
  -1 -12   0   48.94    4.97
  -1 -12   1   85.48    6.95
  -1 -12   2  146.99    9.65
  -1 -12   3   45.38    5.47
  -1 -12   4   28.25    4.48
  -1 -12   5    4.32    2.32
  -1 -11  -9    6.45    1.43
  -1 -11  -9    7.43    1.21
  -1 -11  -8   75.08    4.91
  -1 -11  -8   82.80    4.12
  -1 -11  -7   28.47    3.04
  -1 -11  -7   27.27    2.33
  -1 -11  -6    8.98    1.49
  -1 -11  -6    4.65    1.30
  -1 -11  -6    7.24    1.20
  -1 -11  -5    8.14    1.20
  -1 -11  -5    8.31    1.48
  -1 -11  -5    8.98    1.84
  -1 -11  -4    0.35    0.33
  -1 -11  -4   -0.53    0.61
  -1 -11  -4   -0.27    0.58
  -1 -11  -3  141.96    7.82
  -1 -11  -3  136.63    7.17
  -1 -11  -3  135.63    5.74
  -1 -11  -3  142.78    7.04
  -1 -11  -2   12.62    2.30
  -1 -11  -2   12.48    2.27
  -1 -11  -2   16.64    2.48
  -1 -11  -1   13.91    2.50
  -1 -11  -1   14.22    2.38
  -1 -11   0    0.18    0.83
  -1 -11   1    9.20    2.06
  -1 -11   2    1.60    0.95
  -1 -11   3   20.40    3.53
  -1 -11   4   19.24    3.87
  -1 -11   5   12.48    3.06
  -1 -11   6    1.62    1.09
  -1 -10 -10    5.15    1.06
  -1 -10  -9   10.28    1.42
  -1 -10  -8   12.73    1.82
  -1 -10  -8   12.14    1.51
  -1 -10  -7  105.79    5.58
  -1 -10  -7  106.35    4.66
  -1 -10  -6  222.23    8.58
  -1 -10  -6  209.91    7.16
  -1 -10  -6  205.27    7.27
  -1 -10  -5  123.83    6.31
  -1 -10  -5  104.19    5.22
  -1 -10  -4  318.47   11.22
  -1 -10  -4  309.53    8.92
  -1 -10  -4  295.64   10.10
  -1 -10  -3   88.94    5.76
  -1 -10  -3   93.71    4.52
  -1 -10  -3   88.41    5.30
  -1 -10  -2   33.59    3.56
  -1 -10  -2   33.42    3.37
  -1 -10  -2   32.07    3.20
  -1 -10  -2   27.89    2.49
  -1 -10  -1   32.61    3.60
  -1 -10  -1   37.82    3.79
  -1 -10   0  168.84    8.90
  -1 -10   0  175.24    8.87
  -1 -10   1   31.76    3.86
  -1 -10   2   50.37    5.07
  -1 -10   3   41.53    4.82
  -1 -10   4    6.60    2.05
  -1 -10   5    0.72    1.16
  -1 -10   6    2.38    1.80
  -1  -9 -11  104.01    5.54
  -1  -9 -10   18.31    2.07
  -1  -9  -9   48.34    3.24
  -1  -9  -8  136.48    5.44
  -1  -9  -7  122.16    7.18
  -1  -9  -7  116.67    4.79
  -1  -9  -6   84.85    4.69
  -1  -9  -6   86.02    5.85
  -1  -9  -6   91.20    4.21
  -1  -9  -6   85.81    4.07
  -1  -9  -5  611.42   14.82
  -1  -9  -5  630.76   18.26
  -1  -9  -5  629.44   16.17
  -1  -9  -4  111.35    5.23
  -1  -9  -4  111.91    5.79
  -1  -9  -4  110.12    6.60
  -1  -9  -3  240.97    9.22
  -1  -9  -3  222.31    8.35
  -1  -9  -3  238.04    7.57
  -1  -9  -3  243.41   10.24
  -1  -9  -2  238.46    9.64
  -1  -9  -2  251.65    9.40
  -1  -9  -2  240.73    7.97
  -1  -9  -2  239.97   10.38
  -1  -9  -1    1.44    0.64
  -1  -9  -1    1.67    0.71
  -1  -9  -1    4.80    1.09
  -1  -9  -1    2.73    0.84
  -1  -9   0    2.18    0.77
  -1  -9   0    1.61    0.74
  -1  -9   1   73.63    5.68
  -1  -9   1   78.35    5.80
  -1  -9   2   41.97    4.42
  -1  -9   3   15.60    2.90
  -1  -9   4  127.70    8.65
  -1  -9   5   97.99    7.89
  -1  -9   6   80.10    7.36
  -1  -9   7   13.04    3.22
  -1  -8 -12   26.33    2.99
  -1  -8 -11   53.11    4.04
  -1  -8 -10    9.38    1.59
  -1  -8  -9    1.67    0.66
  -1  -8  -8    2.56    0.81
  -1  -8  -7   49.11    4.30
  -1  -8  -7   50.90    3.07
  -1  -8  -6   58.10    4.59
  -1  -8  -6   63.85    3.36
  -1  -8  -5   19.91    2.09
  -1  -8  -5   25.79    2.96
  -1  -8  -5   22.26    1.89
  -1  -8  -5   20.85    1.88
  -1  -8  -4  227.72    7.30
  -1  -8  -4  226.18    8.05
  -1  -8  -4  222.73    9.23
  -1  -8  -3  208.21    7.35
  -1  -8  -3  206.86    7.94
  -1  -8  -3  220.61    9.13
  -1  -8  -2    1.18    0.57
  -1  -8  -2    1.35    0.65
  -1  -8  -2    1.61    0.62
  -1  -8  -2    0.38    0.30
  -1  -8  -1  122.27    6.40
  -1  -8  -1  127.35    6.35
  -1  -8  -1  120.00    5.34
  -1  -8  -1  116.31    6.66
  -1  -8   0    2.03    0.83
  -1  -8   0    1.59    0.86
  -1  -8   0    1.54    0.72
  -1  -8   0    1.04    0.46
  -1  -8   1    1.42    0.69
  -1  -8   2    2.57    1.12
  -1  -8   3   -0.22    0.75
  -1  -8   4   25.06    3.60
  -1  -8   5   40.90    4.88
  -1  -8   6   13.99    2.99
  -1  -8   7   42.76    5.46
  -1  -8   8   13.64    3.27
  -1  -7 -12   24.45    3.06
  -1  -7 -11   68.06    4.78
  -1  -7 -10   60.09    4.18
  -1  -7  -9    4.59    1.05
  -1  -7  -8   41.74    2.96
  -1  -7  -7   49.67    3.03
  -1  -7  -6    3.98    1.09
  -1  -7  -6    2.31    0.59
  -1  -7  -5  129.26    6.41
  -1  -7  -5  129.72    4.78
  -1  -7  -5  118.28    4.29
  -1  -7  -4  650.89   14.21
  -1  -7  -4  638.15   15.15
  -1  -7  -4  663.35   17.25
  -1  -7  -3  453.11   11.49
  -1  -7  -3  466.19   12.39
  -1  -7  -3  491.47   13.95
  -1  -7  -2  665.26   16.52
  -1  -7  -2  681.97   16.03
  -1  -7  -2  671.48   15.03
  -1  -7  -2  687.28   17.80
  -1  -7  -1    0.47    0.36
  -1  -7  -1    1.58    0.73
  -1  -7  -1    0.60    0.30
  -1  -7  -1    0.72    0.36
  -1  -7   0   31.48    2.64
  -1  -7   0   35.35    3.39
  -1  -7   1    3.54    1.21
  -1  -7   1    3.17    0.98
  -1  -7   2    6.09    1.59
  -1  -7   2    5.36    1.37
  -1  -7   3   12.83    2.36
  -1  -7   4   79.43    6.12
  -1  -7   5   14.95    2.86
  -1  -7   6  157.15    9.69
  -1  -7   7   50.00    5.73
  -1  -7   8   10.12    2.87
  -1  -7   9    9.80    2.66
  -1  -6 -12  102.19    6.61
  -1  -6 -11   57.24    4.56
  -1  -6 -10   25.46    2.82
  -1  -6  -9  136.13    6.24
  -1  -6  -8    0.85    0.49
  -1  -6  -7  151.33    5.74
  -1  -6  -6    0.72    0.59
  -1  -6  -6    1.55    0.55
  -1  -6  -5    1.36    0.66
  -1  -6  -5    0.41    0.29
  -1  -6  -4  172.94    5.12
  -1  -6  -4  179.48    7.21
  -1  -6  -4  177.21    5.81
  -1  -6  -3   46.92    2.56
  -1  -6  -3   48.05    2.90
  -1  -6  -3   50.21    3.53
  -1  -6  -2  125.02    4.94
  -1  -6  -2  133.42    5.37
  -1  -6  -2  130.02    5.95
  -1  -6  -1   24.44    2.32
  -1  -6  -1   21.24    1.88
  -1  -6  -1   21.53    2.37
  -1  -6   0   40.34    3.18
  -1  -6   0   33.64    2.60
  -1  -6   0   34.90    3.17
  -1  -6   1 1192.70   25.58
  -1  -6   1 1186.62   26.65
  -1  -6   1 1226.39   27.15
  -1  -6   2  975.78   23.94
  -1  -6   2 1001.97   23.95
  -1  -6   3   55.84    4.65
  -1  -6   3   61.24    4.72
  -1  -6   4   45.98    4.37
  -1  -6   4   52.60    4.63
  -1  -6   5   21.25    3.17
  -1  -6   6  111.87    7.75
  -1  -6   7  102.50    7.79
  -1  -6   8  134.82    9.48
  -1  -6   9   42.87    5.52
  -1  -6  10   20.80    3.98
  -1  -5 -11   76.24    5.47
  -1  -5 -10  215.35    9.00
  -1  -5  -9   19.13    2.29
  -1  -5  -8  205.46    7.62
  -1  -5  -7   51.39    3.25
  -1  -5  -6    7.86    1.13
  -1  -5  -5  135.92    5.98
  -1  -5  -5  126.31    4.54
  -1  -5  -4  189.50    7.04
  -1  -5  -4  203.64    5.82
  -1  -5  -4  189.20    4.92
  -1  -5  -3   10.87    1.01
  -1  -5  -3   12.83    1.67
  -1  -5  -3    9.83    1.12
  -1  -5  -2  632.05   13.23
  -1  -5  -2  606.36   13.66
  -1  -5  -2  587.34   14.70
  -1  -5  -1  181.22    6.29
  -1  -5  -1  186.91    6.89
  -1  -5   0  401.68   10.51
  -1  -5   0  413.49   11.62
  -1  -5   1  121.98    5.29
  -1  -5   1  128.67    5.88
  -1  -5   2   84.94    5.07
  -1  -5   2   86.29    5.03
  -1  -5   3  555.56   16.28
  -1  -5   3  563.45   15.85
  -1  -5   4  126.78    7.15
  -1  -5   4  122.18    6.72
  -1  -5   5   32.51    3.70
  -1  -5   6   79.98    6.23
  -1  -5   7   19.63    3.24
  -1  -5   8    4.37    1.61
  -1  -5   9   24.20    3.95
  -1  -5  10   15.62    3.40
  -1  -5  11    0.88    0.99
  -1  -4 -11  106.91    6.80
  -1  -4 -10   75.21    5.28
  -1  -4  -9  568.64   15.94
  -1  -4  -8   14.35    1.93
  -1  -4  -7  500.13   13.04
  -1  -4  -6 1428.95   28.06
  -1  -4  -5   58.70    3.00
  -1  -4  -4  128.02    5.23
  -1  -4  -4  125.32    4.27
  -1  -4  -3  238.49    5.30
  -1  -4  -3  235.83    7.35
  -1  -4  -2   78.42    2.79
  -1  -4  -2   78.53    3.10
  -1  -4  -2   75.33    3.67
  -1  -4  -1  345.01    8.66
  -1  -4  -1  339.32    9.29
  -1  -4   0  664.09   14.57
  -1  -4   0  678.24   15.46
  -1  -4   1  131.26    5.18
  -1  -4   1  124.91    5.39
  -1  -4   2  255.10    8.46
  -1  -4   2  268.55    9.07
  -1  -4   2  262.37    8.75
  -1  -4   3  177.71    7.75
  -1  -4   3  186.50    7.45
  -1  -4   4  120.16    6.64
  -1  -4   5   23.60    2.99
  -1  -4   6   37.15    3.98
  -1  -4   7   24.69    3.44
  -1  -4   8  182.68   10.26
  -1  -4   9   81.39    7.04
  -1  -4  10   12.52    2.97
  -1  -4  11   29.49    4.67
  -1  -3 -10   42.02    4.09
  -1  -3  -9   36.06    3.48
  -1  -3  -8   42.21    3.47
  -1  -3  -7  451.87   12.53
  -1  -3  -6    4.59    0.93
  -1  -3  -5  358.94    9.37
  -1  -3  -4   25.49    1.78
  -1  -3  -3    1.29    0.48
  -1  -3  -3    1.40    0.39
  -1  -3  -2 2528.55   42.50
  -1  -3  -2 2545.07   43.24
  -1  -3  -2 2503.73   44.94
  -1  -3  -1    3.98    0.63
  -1  -3  -1    7.15    0.98
  -1  -3   0   99.50    3.75
  -1  -3   0  113.96    4.26
  -1  -3   1  483.75   11.63
  -1  -3   1  495.86   11.80
  -1  -3   2  182.98    6.52
  -1  -3   2  181.39    6.73
  -1  -3   2  182.27    6.46
  -1  -3   3  566.04   15.00
  -1  -3   4  204.33    8.41
  -1  -3   5  247.22    9.93
  -1  -3   6  432.05   14.65
  -1  -3   7   34.52    3.92
  -1  -3   8  199.09   10.31
  -1  -3   9    1.49    0.94
  -1  -3  10   47.03    5.37
  -1  -3  11   26.02    4.25
  -1  -3  12   55.72    6.47
  -1  -2 -10    2.22    0.96
  -1  -2  -9  341.88   12.41
  -1  -2  -8  943.12   22.82
  -1  -2  -7   51.76    3.79
  -1  -2  -6  297.78    9.25
  -1  -2  -5  343.00    9.36
  -1  -2  -4    7.91    1.05
  -1  -2  -3    3.30    0.56
  -1  -2  -2  171.19    5.05
  -1  -2  -2  187.96    4.74
  -1  -2  -1 1202.76   22.11
  -1  -2   0  471.77   10.16
  -1  -2   1   87.46    3.52
  -1  -2   1   82.11    3.34
  -1  -2   2  443.95   11.06
  -1  -2   3   11.84    1.60
  -1  -2   4  217.48    8.26
  -1  -2   5  238.08    9.23
  -1  -2   6    5.01    1.41
  -1  -2   7   46.17    4.31
  -1  -2   8   84.81    6.28
  -1  -2   9  102.51    7.31
  -1  -2  10    1.64    1.04
  -1  -2  11   10.81    2.70
  -1  -2  12    1.87    1.17
  -1  -2  13   12.70    3.28
  -1  -1  -9    3.84    1.21
  -1  -1  -8   16.66    2.40
  -1  -1  -7  418.27   12.87
  -1  -1  -6    1.78    0.69
  -1  -1  -5  966.59   20.77
  -1  -1  -4 1104.06   22.09
  -1  -1  -3 1343.19   25.05
  -1  -1  -2  403.74    8.47
  -1  -1  -1  173.35    4.23
  -1  -1   0 2070.45   35.40
  -1  -1   1   27.64    1.67
  -1  -1   2 1567.90   29.36
  -1  -1   3   72.84    3.77
  -1  -1   4  140.53    5.99
  -1  -1   5    1.07    0.64
  -1  -1   6  109.25    6.00
  -1  -1   7  288.09   11.11
  -1  -1   8  121.90    7.31
  -1  -1   9  182.52    9.57
  -1  -1  10   13.09    2.63
  -1  -1  11    0.16    0.72
  -1  -1  12    0.47    0.89
  -1  -1  13    5.33    1.82
  -1   0 -10   13.91    2.25
  -1   0  -9  244.33    9.62
  -1   0  -9  249.92   11.12
  -1   0  -8   14.37    2.32
  -1   0  -7  285.46   10.60
  -1   0  -6   23.89    2.54
  -1   0  -5   13.20    1.76
  -1   0  -4 1702.52   32.69
  -1   0  -3 2535.31   44.46
  -1   0  -3 2611.96   45.70
  -1   0  -2  425.88    8.16
  -1   0  -2  370.85    8.75
  -1   0  -1  792.42   15.98
  -1   0  -1 1031.18   16.34
  -1   0   1  229.28    5.47
  -1   0   2    1.61    0.48
  -1   0   2    0.47    0.18
  -1   0   3   74.45    3.46
  -1   0   4   96.74    4.47
  -1   0   5    7.58    1.36
  -1   0   6  118.05    5.92
  -1   0   7  246.19    9.65
  -1   0   8  334.45   12.26
  -1   0   9   31.95    3.69
  -1   0  10  297.35   12.78
  -1   0  11   15.36    2.89
  -1   0  12    7.47    2.12
  -1   0  13   11.65    2.87
  -1   0  14   73.06    7.40
  -1   1  -9   34.93    3.55
  -1   1  -8   91.36    5.48
  -1   1  -8   80.33    5.93
  -1   1  -7   71.91    4.54
  -1   1  -7   70.40    5.16
  -1   1  -6   64.33    3.95
  -1   1  -6   66.39    4.61
  -1   1  -5   40.68    2.84
  -1   1  -5   40.59    3.26
  -1   1  -4  222.43    6.73
  -1   1  -4  193.45    7.11
  -1   1  -3 3313.87   58.11
  -1   1  -3 3366.09   59.13
  -1   1  -2  991.54   18.70
  -1   1  -2  973.04   19.20
  -1   1  -1  415.19    8.70
  -1   1   0  312.02    6.84
  -1   1   1 2203.97   37.83
  -1   1   1 2171.96   36.99
  -1   1   2  680.40   12.94
  -1   1   3   63.76    2.80
  -1   1   4  346.27    9.08
  -1   1   5   87.86    4.31
  -1   1   6   66.99    4.11
  -1   1   7  111.56    5.86
  -1   1   8   60.82    4.56
  -1   1   9  157.85    8.12
  -1   1  10   -0.30    0.48
  -1   1  11  130.69    8.25
  -1   1  12   19.42    3.21
  -1   1  13   -0.48    0.97
  -1   1  14   40.09    5.38
  -1   1  15   11.65    3.07
  -1   2  -8   44.00    3.95
  -1   2  -7   17.00    2.30
  -1   2  -7   15.34    2.49
  -1   2  -6   14.66    2.02
  -1   2  -6   16.12    2.35
  -1   2  -5   16.75    2.25
  -1   2  -5   13.01    1.74
  -1   2  -4  240.85    7.87
  -1   2  -4  251.21    8.67
  -1   2  -3  414.43   10.70
  -1   2  -3  439.36   11.41
  -1   2  -2  870.33   17.87
  -1   2  -2  887.90   18.25
  -1   2  -1  388.94    8.88
  -1   2   0 2111.03   37.63
  -1   2   0 2120.62   36.30
  -1   2   1  258.99    6.51
  -1   2   1  277.44    5.88
  -1   2   2 7042.91  117.71
  -1   2   2 7146.82  118.74
  -1   2   3  204.46    5.04
  -1   2   4  176.62    5.30
  -1   2   5   49.87    2.89
  -1   2   6  237.39    7.87
  -1   2   7   86.70    4.80
  -1   2   8  309.74   10.76
  -1   2   9  141.59    7.29
  -1   2  10   84.18    5.89
  -1   2  11   21.24    3.09
  -1   2  12    1.18    0.74
  -1   2  13    8.55    2.08
  -1   2  14    2.35    1.25
  -1   2  15    3.06    1.45
  -1   3  -7  339.73   12.16
  -1   3  -7  333.97   13.19
  -1   3  -6   22.18    2.64
  -1   3  -6   22.29    2.91
  -1   3  -5  377.04   11.73
  -1   3  -5  357.33   12.37
  -1   3  -4   59.13    3.83
  -1   3  -4   56.39    4.02
  -1   3  -3   29.06    2.46
  -1   3  -3   31.37    2.68
  -1   3  -2   46.46    2.96
  -1   3  -2   51.68    3.18
  -1   3  -1  451.43   10.70
  -1   3   0    6.21    0.95
  -1   3   0    5.18    0.69
  -1   3   1  162.60    5.12
  -1   3   1  162.80    4.71
  -1   3   2  649.17   13.56
  -1   3   2  638.12   12.95
  -1   3   3 3491.77   59.68
  -1   3   3 3427.25   60.34
  -1   3   4  354.83    8.95
  -1   3   4  360.33    7.95
  -1   3   5  821.05   16.74
  -1   3   6 1004.48   20.87
  -1   3   7   14.25    1.77
  -1   3   8    0.29    0.42
  -1   3   9   52.81    4.10
  -1   3  10  171.16    8.31
  -1   3  11    0.01    0.45
  -1   3  12   90.47    6.65
  -1   3  13  167.10    9.66
  -1   3  14   19.81    3.31
  -1   3  15    2.13    1.03
  -1   3  16    0.42    0.99
  -1   4  -6  561.80   16.89
  -1   4  -6  575.70   17.42
  -1   4  -6  589.48   18.13
  -1   4  -5   63.51    4.56
  -1   4  -5   59.56    4.70
  -1   4  -4   37.00    3.24
  -1   4  -4   37.63    3.46
  -1   4  -3   19.91    2.23
  -1   4  -3   15.96    2.08
  -1   4  -2   14.40    1.77
  -1   4  -2   16.56    1.68
  -1   4  -2   17.31    1.95
  -1   4  -1   25.05    1.78
  -1   4  -1   24.19    2.04
  -1   4   0    1.07    0.33
  -1   4   1   58.72    3.17
  -1   4   1   50.17    2.73
  -1   4   2   37.35    2.39
  -1   4   2   37.56    2.26
  -1   4   3   22.16    1.80
  -1   4   3   21.82    1.70
  -1   4   4 1525.65   29.08
  -1   4   4 1541.35   26.49
  -1   4   4 1505.98   29.35
  -1   4   5 1226.58   24.74
  -1   4   5 1241.23   22.86
  -1   4   5 1226.26   25.05
  -1   4   6  101.44    4.86
  -1   4   6  107.85    4.15
  -1   4   7   29.58    2.71
  -1   4   7   27.06    2.23
  -1   4   8   24.32    2.34
  -1   4   9   35.77    3.16
  -1   4  10   42.10    3.71
  -1   4  11   12.12    2.18
  -1   4  12    6.11    1.53
  -1   4  13   42.10    4.55
  -1   4  14   44.58    5.01
  -1   4  15   14.48    3.04
  -1   4  16   18.84    3.83
  -1   5  -6    1.12    0.72
  -1   5  -5  429.91   14.19
  -1   5  -5  425.44   13.92
  -1   5  -4  316.09   11.22
  -1   5  -4  303.26   10.63
  -1   5  -3  121.25    6.20
  -1   5  -3  119.62    5.68
  -1   5  -2  182.83    7.38
  -1   5  -2  157.06    6.09
  -1   5  -1   11.25    1.28
  -1   5   0    4.80    0.68
  -1   5   1  151.32    6.01
  -1   5   1  148.88    5.65
  -1   5   2   96.66    4.39
  -1   5   2   89.06    4.11
  -1   5   3   80.24    3.89
  -1   5   3   84.07    3.94
  -1   5   4 2643.05   48.27
  -1   5   4 2672.93   48.32
  -1   5   5  564.41   13.73
  -1   5   5  557.77   10.93
  -1   5   5  573.52   13.82
  -1   5   6  756.83   17.60
  -1   5   6  750.26   15.03
  -1   5   6  732.34   17.32
  -1   5   7  114.95    5.60
  -1   5   7  112.90    5.56
  -1   5   7  118.90    4.54
  -1   5   8   -0.15    0.63
  -1   5   8    0.70    0.29
  -1   5   9   10.80    1.85
  -1   5   9   11.47    1.66
  -1   5  10   72.54    5.29
  -1   5  10   75.42    4.83
  -1   5  11   36.84    3.97
  -1   5  11   38.68    3.67
  -1   5  12   79.39    6.22
  -1   5  12   76.73    5.65
  -1   5  13   12.55    2.64
  -1   5  13   16.53    2.75
  -1   5  14   64.27    6.18
  -1   5  14   62.06    5.80
  -1   5  15   45.09    5.46
  -1   5  15   47.82    5.28
  -1   5  16    3.13    1.64
  -1   6  -5   41.35    4.00
  -1   6  -4   31.70    3.41
  -1   6  -4   28.49    3.07
  -1   6  -3  452.41   14.12
  -1   6  -3  425.77   12.87
  -1   6  -2   98.59    4.92
  -1   6  -1  202.96    6.76
  -1   6   1  186.66    7.05
  -1   6   2   78.05    4.30
  -1   6   2   73.31    4.04
  -1   6   3  178.38    6.55
  -1   6   3  163.75    6.35
  -1   6   4  471.76   12.19
  -1   6   4  470.49   12.41
  -1   6   5  538.48   13.65
  -1   6   5  562.08   14.11
  -1   6   6  402.24   11.37
  -1   6   6  398.56   11.57
  -1   6   7  539.04   14.69
  -1   6   7  551.37   11.93
  -1   6   7  535.89   14.44
  -1   6   8  473.01   13.86
  -1   6   8  459.31   11.39
  -1   6   8  469.69   13.52
  -1   6   9   49.69    4.12
  -1   6   9   53.15    3.34
  -1   6   9   53.12    4.10
  -1   6  10  139.81    7.49
  -1   6  10  141.63    6.24
  -1   6  11    0.13    0.85
  -1   6  11    0.35    0.42
  -1   6  12    0.98    0.80
  -1   6  12    0.20    0.52
  -1   6  13    3.06    1.32
  -1   6  13    2.04    0.90
  -1   6  14    6.06    1.97
  -1   6  14    9.20    2.08
  -1   6  15   23.55    3.79
  -1   6  15   21.36    3.18
  -1   6  16   22.78    4.06
  -1   7  -5    4.25    1.40
  -1   7  -4  634.73   18.25
  -1   7  -3  167.59    7.59
  -1   7  -2  187.44    7.48
  -1   7  -1   10.14    1.45
  -1   7   1    0.28    0.36
  -1   7   2   35.13    3.01
  -1   7   3    1.19    0.54
  -1   7   3    2.82    0.82
  -1   7   4   23.47    2.32
  -1   7   4   25.04    2.49
  -1   7   5  105.28    5.11
  -1   7   5  106.64    5.36
  -1   7   6  165.08    6.69
  -1   7   6  170.32    7.12
  -1   7   7   50.55    3.62
  -1   7   7   52.06    3.87
  -1   7   8    4.25    1.01
  -1   7   8    2.52    0.93
  -1   7   8    3.69    0.66
  -1   7   9  140.64    7.21
  -1   7   9  149.59    5.49
  -1   7   9  130.48    6.67
  -1   7  10   15.83    2.47
  -1   7  10   20.73    2.63
  -1   7  10   15.31    1.84
  -1   7  11    1.12    0.51
  -1   7  11    1.19    0.72
  -1   7  11    2.19    0.89
  -1   7  12   -0.02    0.69
  -1   7  12   -0.05    0.71
  -1   7  12    0.79    0.58
  -1   7  13   33.90    4.21
  -1   7  13   39.67    4.36
  -1   7  13   30.32    3.30
  -1   7  14    1.26    0.68
  -1   7  14    0.69    0.66
  -1   7  15    1.47    0.89
  -1   7  16    5.04    1.80
  -1   8  -4   52.00    4.58
  -1   8  -3  128.08    6.81
  -1   8  -2   55.24    3.95
  -1   8   2  179.97    7.82
  -1   8   3    0.18    0.56
  -1   8   3    0.44    0.42
  -1   8   4   15.77    2.12
  -1   8   4   16.50    2.20
  -1   8   5   15.44    2.03
  -1   8   5   20.42    2.43
  -1   8   6    2.37    0.69
  -1   8   6    1.37    0.79
  -1   8   7   44.24    3.46
  -1   8   7   42.03    3.63
  -1   8   8  315.76   10.61
  -1   8   8  316.95   11.35
  -1   8   9   85.42    5.23
  -1   8   9   80.65    5.45
  -1   8  10   81.58    5.72
  -1   8  10   85.76    4.06
  -1   8  10   84.59    5.49
  -1   8  11  103.91    6.81
  -1   8  11  101.42    6.37
  -1   8  11  111.72    5.21
  -1   8  12    9.97    1.99
  -1   8  12   11.33    2.33
  -1   8  12   11.12    1.77
  -1   8  13   24.96    3.56
  -1   8  13   26.77    3.17
  -1   8  13   28.99    3.65
  -1   8  14   15.54    2.98
  -1   8  14   13.42    2.69
  -1   8  15    0.43    0.72
  -1   8  16    2.83    1.68
  -1   9  -4    0.40    0.70
  -1   9   2   41.66    3.81
  -1   9   3   52.79    4.26
  -1   9   4   17.76    2.35
  -1   9   4   20.11    2.57
  -1   9   5   70.39    4.67
  -1   9   5   59.61    4.50
  -1   9   6   23.89    2.60
  -1   9   6   27.70    3.01
  -1   9   7   13.29    1.93
  -1   9   7   10.51    1.88
  -1   9   8   12.48    1.93
  -1   9   8    9.41    1.90
  -1   9   9   40.71    3.58
  -1   9   9   40.61    3.93
  -1   9  10   86.42    5.50
  -1   9  10   83.46    5.92
  -1   9  11   58.53    4.70
  -1   9  11   61.37    5.23
  -1   9  12  149.19    8.08
  -1   9  12  159.36    8.99
  -1   9  13    1.58    0.85
  -1   9  13    1.70    0.84
  -1   9  14   20.54    3.32
  -1   9  15    3.97    1.52
  -1   9  16   -1.77    1.49
  -1  10   3  143.45    7.71
  -1  10   4   27.81    3.27
  -1  10   5  308.23   11.13
  -1  10   5  300.54   11.54
  -1  10   6   25.77    2.87
  -1  10   6   24.65    3.03
  -1  10   7  110.53    6.03
  -1  10   7   99.17    6.29
  -1  10   8   14.24    2.15
  -1  10   8   15.93    2.59
  -1  10   9   91.69    5.57
  -1  10   9   95.91    6.41
  -1  10  10   99.58    5.94
  -1  10  10   83.77    6.14
  -1  10  11   61.62    4.80
  -1  10  11   59.69    5.28
  -1  10  12    2.98    1.02
  -1  10  12    2.22    0.76
  -1  10  13    5.47    1.80
  -1  10  14    1.96    1.13
  -1  10  15    1.10    1.11
  -1  11   3  169.33    8.93
  -1  11   4  278.00   11.68
  -1  11   5   16.71    2.56
  -1  11   6   22.75    2.89
  -1  11   6   19.06    2.82
  -1  11   7    0.28    0.55
  -1  11   7    0.73    0.47
  -1  11   8    2.16    0.91
  -1  11   8    1.18    0.60
  -1  11   9   17.07    2.44
  -1  11   9   12.26    2.38
  -1  11  10  130.14    6.95
  -1  11  10  115.56    7.50
  -1  11  11   58.63    4.74
  -1  11  11   60.83    5.49
  -1  11  12   86.57    6.79
  -1  11  13   23.11    3.51
  -1  11  14    1.66    1.26
  -1  11  15    6.25    1.97
  -1  12   4    9.39    2.17
  -1  12   5   64.03    5.56
  -1  12   6   15.29    2.65
  -1  12   7    6.67    1.84
  -1  12   8   39.78    3.92
  -1  12   8   34.11    4.03
  -1  12   9   24.77    3.09
  -1  12   9   20.43    3.09
  -1  12  10   43.37    4.01
  -1  12  10   37.28    4.40
  -1  12  11   -0.47    0.83
  -1  12  12    1.62    1.08
  -1  12  13    5.37    1.86
  -1  12  14   55.90    5.89
  -1  13   5   35.16    4.31
  -1  13   6   15.19    2.78
  -1  13   7   39.28    4.54
  -1  13   8    2.49    1.35
  -1  13   9   24.55    3.63
  -1  13  10    5.42    1.85
  -1  13  11    1.23    0.87
  -1  13  12    1.23    0.85
  -1  13  13   18.89    3.29
  -1  14   5   15.22    2.93
  -1  14   6   82.55    6.99
  -1  14   7   23.47    3.74
  -1  14   8  106.46    7.90
  -1  14   9    7.36    2.14
  -1  14  10   11.84    2.63
  -1  14  11   16.84    3.25
  -1  14  12   -0.81    1.28
  -1  15   6    7.74    2.37
  -1  15   7   27.75    4.25
  -1  15   8   14.19    3.08
  -1  15   9   11.70    2.73
  -1  15  10   12.55    2.89
  -1  15  11    7.33    2.26
  -1  16   7   11.09    2.95
  -1  16   8   15.20    3.26
  -1  16   9   12.96    3.17
  -1  16  10    6.30    2.45
   0 -16  -8   -0.96    1.17
   0 -16  -7   17.80    3.39
   0 -16  -6   -0.58    1.10
   0 -16  -5    6.58    1.96
   0 -15  -9    0.54    0.84
   0 -15  -8   13.80    2.75
   0 -15  -7   -0.09    1.11
   0 -15  -6    1.65    0.77
   0 -15  -5    1.26    0.93
   0 -15  -4   19.91    3.45
   0 -15  -3   14.16    3.05
   0 -14 -10    8.67    1.99
   0 -14  -9  102.82    7.05
   0 -14  -8   39.76    4.44
   0 -14  -7   32.59    4.05
   0 -14  -6   49.84    5.11
   0 -14  -5   -0.14    0.78
   0 -14  -4    1.53    1.14
   0 -14  -3    7.03    2.14
   0 -14  -2   27.02    3.43
   0 -14  -1   31.24    3.90
   0 -14   0   40.55    4.69
   0 -14   1   16.59    3.18
   0 -14   2   22.82    3.93
   0 -14   3    2.44    1.34
   0 -13 -10   51.34    4.65
   0 -13  -9   19.27    2.86
   0 -13  -8   38.87    4.15
   0 -13  -7   65.09    5.40
   0 -13  -6   -0.27    0.56
   0 -13  -5   25.24    3.43
   0 -13  -5   29.67    2.70
   0 -13  -4   14.07    2.72
   0 -13  -4   13.70    2.02
   0 -13  -3   14.81    2.80
   0 -13  -3   14.59    2.24
   0 -13  -2    0.56    0.91
   0 -13  -2    1.89    1.14
   0 -13  -1    1.48    0.93
   0 -13   0    2.22    1.25
   0 -13   1   51.00    5.37
   0 -13   2   14.73    3.12
   0 -13   3   26.39    4.21
   0 -13   4    6.12    2.10
   0 -12  -9   51.22    4.44
   0 -12  -8  150.60    7.92
   0 -12  -7   35.44    3.73
   0 -12  -7   32.52    2.05
   0 -12  -7   32.75    3.20
   0 -12  -6  147.15    8.01
   0 -12  -6  137.48    7.11
   0 -12  -6  148.64    5.56
   0 -12  -5    2.56    1.09
   0 -12  -5    4.92    1.54
   0 -12  -5    3.50    0.91
   0 -12  -4   -0.73    0.57
   0 -12  -4    0.26    0.59
   0 -12  -4    0.06    0.42
   0 -12  -3   17.01    2.81
   0 -12  -3   15.70    2.53
   0 -12  -3   18.93    2.44
   0 -12  -2   28.73    3.80
   0 -12  -2   25.89    3.03
   0 -12  -1    9.44    2.24
   0 -12  -1   11.73    2.19
   0 -12   0   71.85    5.79
   0 -12   1   25.47    3.62
   0 -12   2   10.88    2.63
   0 -12   3    7.51    2.13
   0 -12   4    7.35    2.31
   0 -12   5   19.85    3.93
   0 -11  -8   37.80    1.91
   0 -11  -7  167.31    8.02
   0 -11  -7  171.90    5.21
   0 -11  -6   35.74    3.63
   0 -11  -6   35.29    2.28
   0 -11  -6   32.35    2.26
   0 -11  -6   33.29    1.60
   0 -11  -6   30.04    3.01
   0 -11  -5   88.54    5.85
   0 -11  -5   92.85    4.43
   0 -11  -5   83.54    5.29
   0 -11  -4   89.50    6.04
   0 -11  -4   94.86    4.90
   0 -11  -4   82.88    5.45
   0 -11  -3  229.45   10.42
   0 -11  -3  244.40    9.05
   0 -11  -3  224.87    9.83
   0 -11  -2  223.80   10.54
   0 -11  -2  232.11   10.34
   0 -11  -2  238.68    9.50
   0 -11  -1    1.08    0.83
   0 -11  -1    1.65    0.96
   0 -11   0    4.37    1.53
   0 -11   0    6.37    1.71
   0 -11   1    5.35    1.63
   0 -11   2  122.84    8.14
   0 -11   3   26.64    3.93
   0 -11   4   34.33    4.64
   0 -11   5   22.50    3.93
   0 -11   6   26.02    4.51
   0 -10 -10   11.30    1.31
   0 -10  -9   45.00    2.47
   0 -10  -8   78.59    3.17
   0 -10  -7    5.82    0.81
   0 -10  -6    9.14    1.51
   0 -10  -6    8.13    1.61
   0 -10  -6    6.01    0.87
   0 -10  -5   56.34    4.83
   0 -10  -5   54.47    4.27
   0 -10  -5   61.04    2.48
   0 -10  -5   57.70    4.11
   0 -10  -4   32.98    3.37
   0 -10  -4   34.61    2.65
   0 -10  -4   32.11    1.80
   0 -10  -4   29.92    2.97
   0 -10  -3  336.48   12.30
   0 -10  -3  348.85   10.76
   0 -10  -3  353.36   12.09
   0 -10  -2   45.33    4.22
   0 -10  -2   46.48    3.68
   0 -10  -2   46.49    4.14
   0 -10  -1   91.30    6.31
   0 -10  -1   89.71    6.15
   0 -10  -1   94.41    5.72
   0 -10   0    1.24    1.02
   0 -10   0    1.77    0.72
   0 -10   1   46.80    4.46
   0 -10   2    0.08    0.56
   0 -10   3  115.80    7.90
   0 -10   4    1.80    1.06
   0 -10   5    2.09    0.93
   0 -10   6    2.78    1.63
   0 -10   7    6.03    2.28
   0  -9 -11   58.84    3.83
   0  -9 -10  181.09    6.54
   0  -9  -9  105.22    4.33
   0  -9  -8  195.00    5.84
   0  -9  -7    1.62    0.84
   0  -9  -7    2.95    0.59
   0  -9  -6  228.21    9.68
   0  -9  -6  209.67    5.96
   0  -9  -6  228.49    7.93
   0  -9  -5  496.37   15.49
   0  -9  -5  501.52   14.21
   0  -9  -5  493.37   13.38
   0  -9  -5  487.71   11.31
   0  -9  -4  846.50   20.80
   0  -9  -4  824.81   19.91
   0  -9  -4  845.90   16.45
   0  -9  -4  859.24   22.11
   0  -9  -3  172.82    7.87
   0  -9  -3  174.05    7.50
   0  -9  -3  186.69    6.77
   0  -9  -3  176.32    5.29
   0  -9  -3  184.55    8.62
   0  -9  -2  627.69   17.74
   0  -9  -2  602.79   16.98
   0  -9  -2  659.54   16.37
   0  -9  -2  647.03   18.56
   0  -9  -1  153.53    7.79
   0  -9  -1  151.14    7.63
   0  -9  -1  152.01    7.08
   0  -9  -1  151.01    8.05
   0  -9   0   29.94    3.45
   0  -9   0   27.69    3.36
   0  -9   0   31.76    3.22
   0  -9   1   15.29    2.54
   0  -9   1   16.27    2.68
   0  -9   1   19.02    2.68
   0  -9   2   87.72    6.24
   0  -9   3   38.76    4.34
   0  -9   4  129.28    8.47
   0  -9   5   33.61    4.52
   0  -9   6   33.20    4.65
   0  -9   7   42.91    5.53
   0  -9   8   30.13    4.83
   0  -8 -12    1.36    0.57
   0  -8 -11   49.76    3.74
   0  -8 -10    0.73    0.54
   0  -8  -9   76.92    3.89
   0  -8  -8   10.07    1.21
   0  -8  -7   19.40    2.62
   0  -8  -7   15.55    1.37
   0  -8  -6   58.20    4.45
   0  -8  -6   64.35    2.83
   0  -8  -5   78.65    5.10
   0  -8  -5   78.64    4.14
   0  -8  -5   80.75    3.26
   0  -8  -4   35.32    2.78
   0  -8  -4   31.67    2.83
   0  -8  -4   35.19    3.35
   0  -8  -3  111.69    5.76
   0  -8  -3  125.00    5.73
   0  -8  -3  119.17    3.96
   0  -8  -3  116.14    6.27
   0  -8  -2    5.47    1.26
   0  -8  -2    5.31    1.31
   0  -8  -2    7.63    1.44
   0  -8  -2    4.11    0.74
   0  -8  -2    5.40    1.09
   0  -8  -1  249.34    9.69
   0  -8  -1  242.16    9.43
   0  -8  -1  266.14    9.09
   0  -8  -1  266.02   10.29
   0  -8   0  277.09   10.69
   0  -8   0  288.50   10.88
   0  -8   0  269.88    9.96
   0  -8   0  280.16   10.93
   0  -8   1   62.44    4.89
   0  -8   1   59.88    4.86
   0  -8   1   67.23    4.84
   0  -8   1   65.55    5.09
   0  -8   2  210.54   10.06
   0  -8   2  208.29    9.47
   0  -8   3   32.20    3.79
   0  -8   4    6.23    1.80
   0  -8   5   84.36    6.78
   0  -8   6   73.98    6.71
   0  -8   7   20.51    3.75
   0  -8   8   21.47    3.99
   0  -8   9    6.25    2.18
   0  -7 -12  157.28    7.87
   0  -7 -11   12.76    1.96
   0  -7 -10  325.55   10.48
   0  -7  -9    7.10    1.23
   0  -7  -8    2.69    0.71
   0  -7  -7    2.86    0.65
   0  -7  -6   15.23    2.12
   0  -7  -6   15.62    1.30
   0  -7  -5    8.09    1.48
   0  -7  -5    9.43    0.97
   0  -7  -5    7.38    1.13
   0  -7  -4  243.84    7.69
   0  -7  -4  246.11    8.98
   0  -7  -3   37.30    2.76
   0  -7  -3   36.73    2.91
   0  -7  -3   39.16    3.24
   0  -7  -2   23.66    2.41
   0  -7  -2   22.92    2.28
   0  -7  -2   24.33    1.66
   0  -7  -2   22.71    2.52
   0  -7  -1  112.83    5.73
   0  -7  -1  112.96    5.62
   0  -7  -1  105.99    5.03
   0  -7  -1  111.77    5.89
   0  -7   0  289.59   10.30
   0  -7   0  291.71   10.42
   0  -7   0  295.24    9.84
   0  -7   0  302.98   10.74
   0  -7   1  691.85   18.69
   0  -7   1  715.12   19.08
   0  -7   1  691.98   18.22
   0  -7   1  681.68   18.79
   0  -7   2  249.07    9.96
   0  -7   2  238.16   10.03
   0  -7   3  218.76    9.78
   0  -7   4   62.30    5.29
   0  -7   5   67.26    5.79
   0  -7   6    0.92    0.94
   0  -7   7    9.17    2.20
   0  -7   8    4.19    1.57
   0  -7   9    2.32    1.21
   0  -6 -12    3.71    1.40
   0  -6 -11  157.40    7.74
   0  -6 -10   28.81    2.92
   0  -6  -9  163.16    6.71
   0  -6  -8  339.51    9.72
   0  -6  -7  202.20    6.38
   0  -6  -6  607.55   12.97
   0  -6  -5  548.83   14.55
   0  -6  -5  561.20   11.64
   0  -6  -4  142.89    6.19
   0  -6  -4  151.66    4.33
   0  -6  -4  138.23    5.09
   0  -6  -3    8.26    1.15
   0  -6  -3    9.60    1.46
   0  -6  -2  324.60    9.49
   0  -6  -2  327.64    9.21
   0  -6  -2  306.88    7.28
   0  -6  -2  317.37    9.85
   0  -6  -1   97.57    4.84
   0  -6  -1   94.83    4.74
   0  -6  -1   92.14    3.55
   0  -6  -1   94.32    4.94
   0  -6   0  170.82    7.02
   0  -6   0  175.57    7.18
   0  -6   0  180.21    6.81
   0  -6   0  179.34    7.34
   0  -6   1    4.76    1.21
   0  -6   1    6.61    1.36
   0  -6   1    6.94    1.38
   0  -6   2  326.36   11.22
   0  -6   2  338.92   11.52
   0  -6   3  119.54    6.67
   0  -6   3  121.06    6.70
   0  -6   4   21.18    2.88
   0  -6   4   20.98    2.89
   0  -6   5  276.42   11.83
   0  -6   6  113.11    7.68
   0  -6   7   43.54    4.98
   0  -6   8   21.51    3.70
   0  -6   9   79.70    7.43
   0  -6  10    5.75    2.04
   0  -5 -12   11.88    2.32
   0  -5 -11   40.32    3.93
   0  -5 -10    4.04    1.12
   0  -5  -9    4.68    1.14
   0  -5  -8    3.60    0.86
   0  -5  -7  271.54    8.10
   0  -5  -6   23.58    1.79
   0  -5  -5  904.87   20.01
   0  -5  -5  876.09   17.14
   0  -5  -4 1352.77   27.12
   0  -5  -4 1347.94   24.07
   0  -5  -4 1315.67   25.31
   0  -5  -3  250.02    6.96
   0  -5  -3  264.98    8.11
   0  -5  -2   14.45    1.44
   0  -5  -2   13.72    1.49
   0  -5  -2   14.64    1.65
   0  -5  -1  162.00    5.97
   0  -5  -1  157.58    5.80
   0  -5  -1  166.41    4.74
   0  -5  -1  170.33    6.29
   0  -5   0   13.82    1.70
   0  -5   0   18.49    2.01
   0  -5   0   10.92    1.18
   0  -5   0   12.30    1.49
   0  -5   0   14.13    1.73
   0  -5   1  616.65   15.47
   0  -5   1  610.39   15.18
   0  -5   1  601.12   15.39
   0  -5   2  251.90    9.14
   0  -5   2  263.98    9.27
   0  -5   3  291.45   10.44
   0  -5   3  278.73   10.17
   0  -5   4  860.16   22.21
   0  -5   5  145.82    7.92
   0  -5   6  299.26   12.57
   0  -5   7   21.39    3.32
   0  -5   8    8.52    2.19
   0  -5   9    4.85    1.62
   0  -5  10   45.51    5.64
   0  -5  11   11.08    3.02
   0  -4 -11   28.13    3.42
   0  -4 -10   20.92    2.72
   0  -4  -9    1.14    0.69
   0  -4  -8  471.81   13.19
   0  -4  -7  110.42    4.94
   0  -4  -6 1865.91   34.77
   0  -4  -5 1484.73   27.42
   0  -4  -4   69.08    3.59
   0  -4  -4   72.99    2.66
   0  -4  -3  953.80   19.56
   0  -4  -3  970.29   18.28
   0  -4  -3  937.24   17.26
   0  -4  -2 1304.70   24.14
   0  -4  -2 1278.59   25.07
   0  -4  -1   42.00    2.48
   0  -4  -1   42.92    2.44
   0  -4  -1   42.29    1.82
   0  -4  -1   44.21    2.66
   0  -4   0  232.91    7.20
   0  -4   0  246.96    6.33
   0  -4   0  236.82    7.36
   0  -4   0  237.03    6.88
   0  -4   1   23.68    2.11
   0  -4   1   19.18    1.91
   0  -4   1   17.16    1.83
   0  -4   2   46.16    3.28
   0  -4   2   44.09    3.16
   0  -4   3  255.83    9.19
   0  -4   4   63.07    4.54
   0  -4   5  243.84   10.07
   0  -4   6  111.80    6.99
   0  -4   7  126.70    7.87
   0  -4   8    0.55    0.89
   0  -4   9   10.31    2.41
   0  -4  10   -0.31    1.20
   0  -4  11    4.58    2.05
   0  -4  12   11.31    3.08
   0  -3 -10   47.92    4.34
   0  -3  -9   25.13    2.92
   0  -3  -8  194.88    7.95
   0  -3  -7  286.57    9.25
   0  -3  -6  408.69   10.77
   0  -3  -5  476.77   11.10
   0  -3  -4 1696.71   30.43
   0  -3  -3  370.06    9.19
   0  -3  -3  393.72    7.97
   0  -3  -2 1395.43   24.87
   0  -3  -2 1386.61   25.82
   0  -3  -1  800.09   15.49
   0  -3  -1  803.78   15.64
   0  -3  -1  775.84   15.87
   0  -3   0   65.94    3.02
   0  -3   0   75.96    2.64
   0  -3   0   68.73    3.11
   0  -3   1    1.19    0.45
   0  -3   1    2.44    0.64
   0  -3   1    2.44    0.65
   0  -3   2   56.84    3.38
   0  -3   3    0.83    0.65
   0  -3   4  700.77   17.84
   0  -3   5  261.31    9.99
   0  -3   6  196.47    9.08
   0  -3   7  243.06   10.78
   0  -3   8    4.31    1.65
   0  -3   9    1.17    0.91
   0  -3  10    1.89    1.03
   0  -3  11    2.84    1.54
   0  -3  12    0.19    1.23
   0  -2 -10    4.21    1.42
   0  -2  -9  203.55    9.23
   0  -2  -8   -1.23    0.92
   0  -2  -7    5.60    1.25
   0  -2  -6  193.31    7.02
   0  -2  -5  654.87   14.73
   0  -2  -4   18.88    1.51
   0  -2  -3  361.50    7.85
   0  -2  -2  556.26   11.31
   0  -2  -2  559.98   10.25
   0  -2  -1  722.76   13.40
   0  -2  -1  736.87   13.90
   0  -2   0   22.43    1.40
   0  -2   0   28.52    1.27
   0  -2   0   23.49    1.43
   0  -2   1  351.23    8.46
   0  -2   1  367.80    8.61
   0  -2   2 2117.08   38.92
   0  -2   3   51.32    3.26
   0  -2   4    2.26    0.77
   0  -2   5   20.83    2.47
   0  -2   6  375.98   12.66
   0  -2   7   72.61    5.32
   0  -2   8  771.11   22.08
   0  -2   9   86.67    6.63
   0  -2  10   26.27    3.85
   0  -2  11   10.80    2.44
   0  -2  12    5.71    1.93
   0  -2  13    0.69    1.03
   0  -1  -9   13.06    2.35
   0  -1  -8    2.42    0.95
   0  -1  -7    3.23    1.04
   0  -1  -6   14.66    1.88
   0  -1  -5   43.96    2.98
   0  -1  -4  224.86    6.74
   0  -1  -3   52.41    2.43
   0  -1  -2  182.91    4.38
   0  -1   1 1369.95   24.58
   0  -1   2  297.46    7.61
   0  -1   3 1090.90   22.11
   0  -1   4  148.47    5.96
   0  -1   5  501.13   13.79
   0  -1   6   12.13    1.97
   0  -1   7   53.01    4.31
   0  -1   8   15.24    2.42
   0  -1   9  273.80   11.86
   0  -1  10   14.11    2.70
   0  -1  11    1.83    1.08
   0  -1  12   23.57    3.92
   0  -1  13    7.81    2.42
   0  -1  14    0.79    1.39
   0   0  -9   79.75    5.98
   0   0  -8   95.93    6.23
   0   0  -7    9.83    1.84
   0   0  -6  159.22    7.06
   0   0  -5  184.16    7.09
   0   0  -4 1879.48   35.74
   0   0  -3  287.63    7.71
   0   0  -2 1701.22   30.32
   0   0   2 1756.09   31.15
   0   0   3  295.98    7.78
   0   0   4 1776.93   33.79
   0   0   5  176.88    6.76
   0   0   6  156.16    6.81
   0   0   7    9.64    1.78
   0   0   8   82.26    5.55
   0   0   9   90.40    6.22
   0   0  10  190.94    9.87
   0   0  11   39.31    4.58
   0   0  12    0.58    0.69
   0   0  13   16.22    3.27
   0   0  14    2.06    1.20
   0   1  -8   17.56    2.67
   0   1  -7   55.80    4.60
   0   1  -6   11.68    1.97
   0   1  -5  531.78   14.56
   0   1  -4  153.26    6.19
   0   1  -3 1263.66   25.15
   0   1  -2  272.66    7.23
   0   1  -1 1360.14   24.34
   0   1  -1 1378.84   24.62
   0   1   1  670.50   12.10
   0   1   2  194.89    4.58
   0   1   3   59.55    2.59
   0   1   4  253.54    7.22
   0   1   5   45.06    2.96
   0   1   6   15.73    1.92
   0   1   7    1.83    0.90
   0   1   8    0.44    0.70
   0   1   9   10.23    2.03
   0   1  10  200.09    9.76
   0   1  11   90.24    6.78
   0   1  12   33.41    4.28
   0   1  13   -0.27    1.00
   0   1  14    5.02    2.05
   0   1  15   26.70    4.48
   0   2  -8  772.01   21.04
   0   2  -7   72.91    5.02
   0   2  -7   75.56    5.53
   0   2  -7   78.34    5.68
   0   2  -6  403.11   12.54
   0   2  -6  415.44   13.69
   0   2  -6  404.33   13.32
   0   2  -5   21.74    2.35
   0   2  -5   22.23    2.57
   0   2  -4    3.28    0.84
   0   2  -4    3.10    0.88
   0   2  -3   51.77    3.06
   0   2  -3   50.98    3.26
   0   2  -2 2003.57   36.94
   0   2  -2 1999.08   36.91
   0   2  -2 2077.39   37.50
   0   2  -1  342.77    8.19
   0   2  -1  345.41    7.90
   0   2   0   21.48    1.37
   0   2   0   26.87    1.24
   0   2   0   25.79    1.49
   0   2   1  716.21   13.36
   0   2   1  741.87   13.88
   0   2   2  574.40   11.40
   0   2   2  551.02   10.25
   0   2   2  564.19   10.66
   0   2   3  352.55    8.55
   0   2   3  368.94    7.86
   0   2   4   15.40    1.36
   0   2   5  673.03   14.99
   0   2   6  187.33    6.80
   0   2   7    6.95    1.33
   0   2   8    0.52    0.60
   0   2   9  208.23    9.04
   0   2  10    1.74    0.84
   0   2  11  153.67    8.60
   0   2  12   16.63    2.89
   0   2  13    4.66    1.88
   0   2  14   59.80    6.16
   0   2  15    6.53    2.25
   0   3  -7  265.81   10.73
   0   3  -7  260.91   11.20
   0   3  -6  184.49    8.30
   0   3  -6  200.16    9.03
   0   3  -5  260.41    9.55
   0   3  -5  260.14    9.87
   0   3  -4  657.78   16.60
   0   3  -4  670.33   16.89
   0   3  -3    0.35    0.41
   0   3  -3    0.93    0.46
   0   3  -2   58.04    3.30
   0   3  -2   54.64    3.08
   0   3  -1    2.06    0.65
   0   3  -1    2.20    0.53
   0   3   0   65.82    3.00
   0   3   0   66.49    3.08
   0   3   1  839.11   15.81
   0   3   1  774.10   16.08
   0   3   2 1396.56   24.85
   0   3   2 1380.04   25.75
   0   3   3  365.80    9.02
   0   3   3  372.30    7.61
   0   3   3  369.13    8.16
   0   3   4 1705.13   31.24
   0   3   4 1621.36   29.48
   0   3   5  466.00   12.06
   0   3   5  485.58   11.12
   0   3   6  407.82   10.57
   0   3   7  292.80    9.16
   0   3   8  198.05    7.81
   0   3   9   26.72    2.88
   0   3  10   46.60    4.13
   0   3  11   -0.48    0.58
   0   3  12   50.87    4.88
   0   3  13  102.41    7.53
   0   3  14   30.00    4.25
   0   3  15   22.46    3.95
   0   3  16    2.58    1.36
   0   4  -6  116.42    6.70
   0   4  -6  102.87    6.59
   0   4  -5  261.47   10.02
   0   4  -5  242.10    9.89
   0   4  -4   60.96    4.25
   0   4  -4   58.45    4.19
   0   4  -3  252.61    8.83
   0   4  -3  242.61    8.54
   0   4  -2   41.93    3.10
   0   4  -2   44.67    2.98
   0   4  -1   19.34    1.89
   0   4  -1   20.09    1.74
   0   4   0  232.63    7.11
   0   4   0  237.50    7.32
   0   4   1   40.58    2.53
   0   4   2 1360.97   24.94
   0   4   2 1301.53   25.69
   0   4   3  984.63   18.90
   0   4   3 1001.93   20.21
   0   4   4   65.24    3.44
   0   4   4   71.60    2.58
   0   4   4   62.59    2.83
   0   4   5 1475.18   29.36
   0   4   5 1482.45   27.31
   0   4   5 1486.87   28.02
   0   4   6 1896.35   36.33
   0   4   6 1811.10   33.98
   0   4   7  104.42    5.43
   0   4   7  101.91    4.72
   0   4   8  481.37   13.21
   0   4   9    1.21    0.82
   0   4  10   17.03    2.38
   0   4  11   25.82    3.14
   0   4  12    1.98    0.98
   0   4  13   31.76    3.96
   0   4  14   18.60    3.40
   0   4  15    6.43    2.04
   0   4  16   11.71    2.81
   0   5  -6  316.04   12.65
   0   5  -5  156.52    7.91
   0   5  -5  144.57    7.70
   0   5  -4  905.25   22.53
   0   5  -4  883.86   22.16
   0   5  -3  281.54   10.13
   0   5  -3  277.76    9.71
   0   5  -2  256.54    9.05
   0   5  -2  248.29    8.42
   0   5  -1  598.46   14.95
   0   5  -1  569.69   13.64
   0   5   0   13.28    1.62
   0   5   0   13.01    1.64
   0   5   1  167.02    6.22
   0   5   2   16.34    1.58
   0   5   2   13.55    1.59
   0   5   3  266.05    7.17
   0   5   3  251.47    7.92
   0   5   4 1340.44   25.24
   0   5   4 1322.22   26.88
   0   5   5  865.91   19.53
   0   5   5  876.72   17.93
   0   5   6   24.72    2.43
   0   5   6   24.34    1.79
   0   5   6   23.29    1.95
   0   5   7  261.94    9.31
   0   5   7  271.43    7.90
   0   5   8    0.13    0.46
   0   5   8    0.79    0.38
   0   5   9    3.99    1.15
   0   5   9    2.93    0.82
   0   5  10    3.22    1.20
   0   5  10    3.65    1.10
   0   5  11   39.05    4.15
   0   5  11   38.41    3.68
   0   5  12   13.08    2.59
   0   5  12   10.07    1.99
   0   5  13   17.19    3.10
   0   5  13   11.49    2.23
   0   5  14   15.58    3.19
   0   5  14   12.30    2.51
   0   5  15    7.04    2.33
   0   5  15    9.69    2.52
   0   5  16   14.47    3.21
   0   5  16   10.86    2.62
   0   6  -5  274.38   11.39
   0   6  -4   24.66    3.08
   0   6  -4   21.11    2.73
   0   6  -3  126.82    6.75
   0   6  -3  110.55    6.04
   0   6  -2  333.67   11.31
   0   6  -2  332.50   10.51
   0   6  -1    4.78    1.15
   0   6   1   91.39    4.85
   0   6   2  296.72    9.42
   0   6   3    7.95    1.22
   0   6   3   10.71    1.54
   0   6   4  136.14    5.02
   0   6   4  142.36    6.01
   0   6   5  542.78   12.67
   0   6   5  553.78   14.39
   0   6   6  636.27   14.48
   0   6   6  623.00   16.14
   0   6   7  202.50    8.17
   0   6   7  200.35    6.28
   0   6   7  205.59    7.05
   0   6   8  358.85   11.92
   0   6   8  362.00    9.87
   0   6   8  339.75   10.32
   0   6   9  148.42    7.55
   0   6   9  156.18    6.36
   0   6   9  165.83    6.97
   0   6  10   24.63    3.12
   0   6  10   26.82    2.68
   0   6  11  137.06    7.96
   0   6  11  150.84    7.14
   0   6  12    4.27    1.46
   0   6  12    1.01    0.65
   0   6  13    7.05    1.88
   0   6  13    8.00    1.76
   0   6  14    1.85    0.98
   0   6  14    4.68    1.45
   0   6  15   21.47    3.78
   0   6  15   21.79    3.34
   0   6  16   -0.34    1.24
   0   6  16   -0.20    0.96
   0   7  -4   54.20    4.62
   0   7  -3  211.02    8.89
   0   7  -2  238.25    9.74
   0   7  -2  216.98    8.47
   0   7  -1  669.35   18.12
   0   7   1  108.32    5.75
   0   7   2   25.58    2.66
   0   7   3   38.13    3.17
   0   7   4  244.35    7.78
   0   7   4  243.10    8.81
   0   7   5    6.54    1.11
   0   7   5    9.87    1.68
   0   7   6   18.22    1.84
   0   7   6   16.80    2.15
   0   7   7    3.77    0.91
   0   7   7    2.42    0.84
   0   7   8    1.29    0.58
   0   7   8    2.01    0.84
   0   7   9    5.04    1.21
   0   7   9    6.77    1.65
   0   7   9    5.41    1.06
   0   7  10  296.82   11.84
   0   7  10  306.24   10.52
   0   7  10  322.90   10.06
   0   7  11   11.57    1.98
   0   7  11   11.13    2.22
   0   7  11   12.06    1.85
   0   7  12  146.23    8.61
   0   7  12  148.31    7.36
   0   7  12  146.40    7.70
   0   7  13   68.16    6.06
   0   7  13   74.38    5.40
   0   7  14   31.22    4.27
   0   7  14   33.17    3.83
   0   7  15    0.80    0.90
   0   7  15    3.89    1.74
   0   7  16   23.32    3.99
   0   8  -4    4.35    1.22
   0   8   1  249.05    9.82
   0   8   2    5.00    1.24
   0   8   3  109.15    5.96
   0   8   4   29.77    3.01
   0   8   5   82.50    4.33
   0   8   5   80.78    5.08
   0   8   6   60.82    3.59
   0   8   6   62.69    4.47
   0   8   7   19.58    2.03
   0   8   7   17.07    2.36
   0   8   8    9.44    1.47
   0   8   8    8.11    1.73
   0   8   9   74.10    4.38
   0   8   9   73.47    5.35
   0   8  10    1.58    0.69
   0   8  10    1.61    0.77
   0   8  11   48.08    4.67
   0   8  11   46.15    3.87
   0   8  11   44.59    3.41
   0   8  12    1.37    0.55
   0   8  12    1.27    1.21
   0   8  12    0.44    0.41
   0   8  13    2.90    1.43
   0   8  13    4.05    1.39
   0   8  13    3.92    1.17
   0   8  14   15.70    2.72
   0   8  14   18.12    3.28
   0   8  14   14.99    2.42
   0   8  15    0.74    1.00
   0   8  16    7.01    2.22
   0   9   2  601.74   17.59
   0   9   3  176.47    8.28
   0   9   4  851.12   21.91
   0   9   5  478.33   14.86
   0   9   6  259.52    8.70
   0   9   6  228.08    9.73
   0   9   7    1.67    0.68
   0   9   7    2.22    0.94
   0   9   8  197.60    7.39
   0   9   8  194.98    9.09
   0   9   9  113.54    5.55
   0   9   9  101.99    6.56
   0   9  10  183.03    7.53
   0   9  10  168.06    8.92
   0   9  11   64.56    4.50
   0   9  11   62.44    5.43
   0   9  12   70.41    4.97
   0   9  12   73.80    6.17
   0   9  13   21.86    2.90
   0   9  13   22.01    3.53
   0   9  14    0.14    0.87
   0   9  15   27.43    4.21
   0   9  16    3.01    1.44
   0  10   2   42.20    4.24
   0  10   3  333.66   12.67
   0  10   4   31.45    3.51
   0  10   5   52.74    4.58
   0  10   6    6.44    1.62
   0  10   7    5.15    1.14
   0  10   7    4.33    1.33
   0  10   8   68.39    4.25
   0  10   8   74.07    5.58
   0  10   9   37.71    3.11
   0  10   9   37.30    4.02
   0  10  10   13.89    1.94
   0  10  10   12.25    2.38
   0  10  11   18.25    2.27
   0  10  11   23.23    3.41
   0  10  12   76.85    5.04
   0  10  12   77.47    6.44
   0  10  13    7.63    2.07
   0  10  14   35.76    4.63
   0  10  15    0.67    1.04
   0  10  16   10.45    2.90
   0  11   3  227.04   10.67
   0  11   4   86.15    6.32
   0  11   5   81.54    6.02
   0  11   6   33.07    3.84
   0  11   7  162.85    8.80
   0  11   8   38.12    3.30
   0  11   8   38.06    4.12
   0  11   9   18.96    2.30
   0  11   9   14.13    2.57
   0  11  10   -1.46    0.71
   0  11  10   -0.13    0.74
   0  11  11    9.67    1.69
   0  11  11    8.74    1.95
   0  11  12    0.62    0.89
   0  11  13   59.43    5.93
   0  11  14   -0.27    0.71
   0  11  15    8.36    2.32
   0  12   3   18.40    3.12
   0  12   4    2.81    1.32
   0  12   5    2.82    1.31
   0  12   6  145.88    8.63
   0  12   7   38.11    4.36
   0  12   8  144.80    8.72
   0  12   9   56.63    4.18
   0  12   9   50.26    5.09
   0  12  10   -0.29    0.83
   0  12  11    0.62    0.66
   0  12  12   16.50    3.13
   0  12  13   -1.51    1.43
   0  12  14    8.94    2.36
   0  12  15    2.61    1.39
   0  13   4   11.81    2.61
   0  13   5   29.88    4.08
   0  13   6   -0.12    0.87
   0  13   7   68.25    6.12
   0  13   8   34.80    4.37
   0  13   9   21.60    3.47
   0  13  10   48.34    5.27
   0  13  11   -2.32    1.47
   0  13  12    9.93    2.43
   0  13  13    7.25    2.13
   0  13  14    0.88    0.99
   0  14   5    0.69    1.15
   0  14   6   51.32    5.61
   0  14   7   32.99    4.48
   0  14   8   31.34    4.32
   0  14   9   90.50    7.50
   0  14  10    5.52    1.92
   0  14  11    2.29    1.04
   0  14  12    0.45    0.66
   0  14  13    0.26    0.92
   0  15   6    5.52    2.14
   0  15   7    1.07    0.95
   0  15   8   12.96    3.07
   0  15   9    0.58    1.05
   0  15  10   18.43    3.49
   0  15  11   17.07    3.39
   0  15  12   22.12    4.01
   0  16   7   12.19    2.88
   0  16   8   -2.39    1.59
   0  16   9    4.21    1.96
   1 -16  -8   15.78    3.24
   1 -16  -7    5.00    1.95
   1 -16  -6   20.24    3.71
   1 -16  -5    0.65    1.32
   1 -15  -9   12.02    2.63
   1 -15  -8   11.38    2.59
   1 -15  -7   28.62    4.14
   1 -15  -6    7.60    2.29
   1 -15  -5    3.57    1.45
   1 -15  -4    8.21    2.20
   1 -15  -3   29.25    4.50
   1 -15  -2    7.03    2.25
   1 -14 -10   13.28    2.55
   1 -14  -9    8.60    2.01
   1 -14  -8  105.74    7.55
   1 -14  -7   29.66    4.00
   1 -14  -6   90.04    7.13
   1 -14  -5   13.49    2.79
   1 -14  -4   -0.57    0.98
   1 -14  -3   -0.84    1.03
   1 -14  -2   30.24    4.45
   1 -14  -1   27.35    4.34
   1 -14   1    3.82    1.58
   1 -14   2   31.69    4.52
   1 -14   3   14.31    3.19
   1 -13  -9   28.08    3.65
   1 -13  -8    5.90    1.61
   1 -13  -7   40.69    4.40
   1 -13  -6   15.81    2.77
   1 -13  -5   38.90    4.45
   1 -13  -4   84.51    6.77
   1 -13  -3   10.98    2.42
   1 -13  -3   12.95    1.95
   1 -13  -2    7.33    2.08
   1 -13  -2    8.46    1.79
   1 -13  -1    4.34    1.78
   1 -13  -1    3.18    1.20
   1 -13   0    3.03    1.69
   1 -13   0    0.94    0.60
   1 -13   1   -0.75    0.89
   1 -13   2    8.06    2.28
   1 -13   3    9.74    2.70
   1 -13   4   35.52    5.04
   1 -12  -7    4.93    1.56
   1 -12  -7    5.76    1.40
   1 -12  -6   20.47    3.03
   1 -12  -6   19.26    2.69
   1 -12  -5   66.88    5.56
   1 -12  -5   66.61    5.26
   1 -12  -5   65.15    3.06
   1 -12  -4    9.25    2.00
   1 -12  -4    9.96    2.12
   1 -12  -4    7.13    1.18
   1 -12  -3   55.31    5.25
   1 -12  -3   50.71    3.65
   1 -12  -2   31.98    4.03
   1 -12  -2   35.55    3.36
   1 -12  -1   10.03    2.55
   1 -12  -1   12.12    2.17
   1 -12   0    7.56    2.30
   1 -12   0    4.52    1.32
   1 -12   1  149.65    8.73
   1 -12   2    1.99    0.69
   1 -12   3    8.80    2.41
   1 -12   4    1.29    1.20
   1 -12   5    0.76    0.88
   1 -11  -8    2.46    0.37
   1 -11  -6   22.56    2.96
   1 -11  -6   19.45    2.57
   1 -11  -5   17.68    2.66
   1 -11  -5   15.56    1.29
   1 -11  -5   13.52    1.19
   1 -11  -5   18.72    2.61
   1 -11  -4  286.08   11.84
   1 -11  -4  304.60    8.62
   1 -11  -4  296.98   11.62
   1 -11  -3  155.72    8.59
   1 -11  -3  171.68    6.69
   1 -11  -3  151.84    8.26
   1 -11  -2  318.12   12.97
   1 -11  -2  312.78   10.55
   1 -11  -1   78.96    6.21
   1 -11  -1   73.71    5.05
   1 -11   0   31.67    4.11
   1 -11   0   31.97    3.52
   1 -11   1    5.75    1.96
   1 -11   1    3.65    1.37
   1 -11   2  102.07    7.18
   1 -11   3   12.23    2.67
   1 -11   4   12.13    2.73
   1 -11   5   18.17    3.66
   1 -11   6    2.54    1.28
   1 -10 -10   87.64    4.88
   1 -10  -9   95.75    4.55
   1 -10  -8   17.27    1.53
   1 -10  -7  106.56    6.67
   1 -10  -7   96.12    2.94
   1 -10  -6   23.67    3.02
   1 -10  -6   25.40    2.81
   1 -10  -5  302.80   11.37
   1 -10  -5  323.10   12.08
   1 -10  -5  292.63   10.75
   1 -10  -5  298.05    6.89
   1 -10  -5  306.33    7.01
   1 -10  -4   21.56    2.82
   1 -10  -4   20.15    2.58
   1 -10  -4   28.91    2.05
   1 -10  -4   26.96    3.17
   1 -10  -3  137.61    7.53
   1 -10  -3  139.96    7.37
   1 -10  -3  150.02    5.81
   1 -10  -3  143.34    7.87
   1 -10  -2   43.46    4.24
   1 -10  -2   47.02    4.32
   1 -10  -2   45.88    3.39
   1 -10  -1   12.76    2.29
   1 -10  -1    5.40    1.53
   1 -10  -1    9.42    1.67
   1 -10   0  274.28   11.85
   1 -10   0  262.58   10.32
   1 -10   1   30.14    3.88
   1 -10   1   33.18    3.62
   1 -10   2    1.67    0.71
   1 -10   3    0.62    0.75
   1 -10   4    0.49    0.96
   1 -10   5    3.44    1.41
   1 -10   6   10.20    2.76
   1 -10   7   19.34    3.94
   1  -9 -11   63.15    4.76
   1  -9 -10   87.00    5.19
   1  -9  -7   10.35    1.99
   1  -9  -6   24.29    2.89
   1  -9  -6   26.70    1.32
   1  -9  -6   24.71    2.62
   1  -9  -5   68.18    4.88
   1  -9  -5   67.29    4.43
   1  -9  -5   59.14    2.02
   1  -9  -5   65.98    2.17
   1  -9  -4   21.11    2.50
   1  -9  -4   17.80    1.44
   1  -9  -4   20.82    2.72
   1  -9  -3   48.10    4.09
   1  -9  -3   53.36    4.19
   1  -9  -3   51.82    2.97
   1  -9  -3   50.34    4.22
   1  -9  -2   47.93    4.13
   1  -9  -2   46.56    4.02
   1  -9  -2   48.39    3.22
   1  -9  -2   51.61    4.35
   1  -9  -1  299.70   11.61
   1  -9  -1  302.36   11.55
   1  -9  -1  306.48   10.05
   1  -9  -1  315.07   11.95
   1  -9   0   45.86    4.39
   1  -9   0   46.96    3.79
   1  -9   0   52.38    4.64
   1  -9   1  112.46    7.12
   1  -9   1  113.08    6.49
   1  -9   2   45.75    4.71
   1  -9   2   50.57    4.55
   1  -9   3   38.27    4.16
   1  -9   4    0.60    0.66
   1  -9   5   -0.28    0.90
   1  -9   6    2.41    1.39
   1  -9   7    0.15    1.06
   1  -9   8    2.10    1.46
   1  -8 -11  111.31    6.69
   1  -8  -8  331.82    7.69
   1  -8  -7   44.82    3.85
   1  -8  -6    1.87    0.78
   1  -8  -5   17.42    2.07
   1  -8  -5   17.13    2.27
   1  -8  -4   16.99    2.11
   1  -8  -4   15.82    1.16
   1  -8  -4   18.15    2.30
   1  -8  -3    1.08    0.60
   1  -8  -3    1.14    0.68
   1  -8  -3   -0.01    0.47
   1  -8  -3    1.31    0.46
   1  -8  -2  183.81    7.94
   1  -8  -2  187.35    7.90
   1  -8  -2  180.25    6.27
   1  -8  -2  180.56    7.94
   1  -8  -1  124.58    6.66
   1  -8  -1  136.65    6.84
   1  -8  -1  132.94    5.74
   1  -8  -1  129.29    6.82
   1  -8   0  525.88   15.99
   1  -8   0  552.45   16.43
   1  -8   0  523.26   14.50
   1  -8   0  531.38   16.07
   1  -8   1  359.15   12.92
   1  -8   1  366.45   13.37
   1  -8   1  335.52   11.66
   1  -8   1  369.46   13.01
   1  -8   2   53.40    4.76
   1  -8   2   53.25    4.85
   1  -8   2   54.60    4.45
   1  -8   3  121.41    7.25
   1  -8   4   51.81    4.90
   1  -8   5    3.94    1.41
   1  -8   6   11.36    2.66
   1  -8   7   32.67    4.51
   1  -8   8    9.46    2.55
   1  -8   9   34.75    5.24
   1  -7 -11    0.83    0.76
   1  -7 -10   19.07    2.13
   1  -7  -9  149.71    5.75
   1  -7  -8    4.77    0.84
   1  -7  -7   55.74    2.40
   1  -7  -6  179.91    7.45
   1  -7  -6  168.09    3.93
   1  -7  -5  105.54    5.39
   1  -7  -5   99.96    4.96
   1  -7  -4   26.83    2.60
   1  -7  -4   23.86    2.33
   1  -7  -4   24.85    1.20
   1  -7  -4   27.42    1.21
   1  -7  -3    2.41    0.83
   1  -7  -3    4.20    1.05
   1  -7  -3    2.86    0.53
   1  -7  -2   32.98    2.96
   1  -7  -2   34.57    2.98
   1  -7  -2   35.71    2.27
   1  -7  -2   35.95    3.08
   1  -7  -1    0.52    0.41
   1  -7  -1    1.05    0.63
   1  -7  -1    0.05    0.48
   1  -7  -1    0.59    0.42
   1  -7   0    5.16    1.43
   1  -7   0    4.90    1.23
   1  -7   0    7.24    1.46
   1  -7   0    5.68    1.18
   1  -7   1   11.09    2.05
   1  -7   1   11.29    1.90
   1  -7   1   10.95    1.89
   1  -7   1   10.86    1.71
   1  -7   2  188.69    8.72
   1  -7   2  198.14    9.26
   1  -7   2  175.15    7.98
   1  -7   2  198.23    8.82
   1  -7   3  183.88    8.95
   1  -7   3  184.10    9.41
   1  -7   3  190.19    8.79
   1  -7   3  190.51    9.04
   1  -7   4  615.12   18.74
   1  -7   5    2.04    1.10
   1  -7   6   43.05    4.77
   1  -7   7   17.48    3.13
   1  -7   8   17.52    3.28
   1  -7   9   -0.42    0.94
   1  -7  10   11.12    3.10
   1  -6 -10  155.36    6.92
   1  -6  -9   52.34    3.50
   1  -6  -8  481.94   12.04
   1  -6  -7  542.16   12.12
   1  -6  -6  406.29    8.77
   1  -6  -5  557.46   14.36
   1  -6  -5  565.88   10.37
   1  -6  -4  471.67   12.21
   1  -6  -4  482.38   12.66
   1  -6  -3  173.37    6.39
   1  -6  -3  163.13    4.14
   1  -6  -3  166.58    6.41
   1  -6  -2   84.22    4.39
   1  -6  -2   80.85    3.16
   1  -6  -2   79.70    4.28
   1  -6  -1  179.65    7.18
   1  -6  -1  180.75    7.08
   1  -6  -1  195.73    6.13
   1  -6  -1  193.50    7.26
   1  -6   0   43.82    3.41
   1  -6   0   46.46    3.56
   1  -6   0   42.34    2.89
   1  -6   0   42.83    3.30
   1  -6   1  212.58    8.36
   1  -6   1  207.55    8.57
   1  -6   1  210.49    7.72
   1  -6   1  207.39    8.19
   1  -6   2   93.07    5.55
   1  -6   2   94.82    5.84
   1  -6   2   96.95    5.38
   1  -6   2   97.99    5.67
   1  -6   3  439.50   14.04
   1  -6   3  416.50   13.51
   1  -6   3  437.54   13.88
   1  -6   4   30.38    3.40
   1  -6   4   38.96    3.85
   1  -6   5   38.12    4.05
   1  -6   6    5.89    1.77
   1  -6   7   -3.75    1.49
   1  -6   8   18.65    3.28
   1  -6   9   -1.47    1.46
   1  -6  10    1.56    1.66
   1  -5 -10   79.12    5.04
   1  -5  -9   14.66    1.96
   1  -5  -8   -0.30    0.41
   1  -5  -7  123.36    4.86
   1  -5  -6  762.73   15.56
   1  -5  -5  581.41   11.39
   1  -5  -4 2679.54   48.49
   1  -5  -4 2654.19   48.59
   1  -5  -3   81.96    3.91
   1  -5  -3   79.85    3.87
   1  -5  -2   98.40    4.38
   1  -5  -2   87.77    2.85
   1  -5  -2   94.67    4.23
   1  -5  -1  137.47    5.68
   1  -5  -1  147.09    4.64
   1  -5  -1  148.66    5.68
   1  -5   0    5.58    1.13
   1  -5   0    4.08    0.92
   1  -5   0    7.53    1.30
   1  -5   0    5.07    0.93
   1  -5   1   13.21    1.78
   1  -5   1   11.07    1.59
   1  -5   1   10.57    1.71
   1  -5   1   13.92    1.66
   1  -5   2  176.77    7.30
   1  -5   2  173.05    6.97
   1  -5   2  166.44    7.05
   1  -5   3  131.24    6.50
   1  -5   3  119.39    6.15
   1  -5   4  296.32   11.00
   1  -5   5  409.88   14.12
   1  -5   6    1.51    0.81
   1  -5   7   34.57    4.13
   1  -5   8   -0.01    1.20
   1  -5   9    0.79    0.71
   1  -5  10   -1.11    0.93
   1  -5  11   29.47    4.84
   1  -4 -10   49.21    4.57
   1  -4 -10   44.96    3.97
   1  -4  -9   38.58    3.40
   1  -4  -8   22.13    2.33
   1  -4  -7   27.65    2.34
   1  -4  -6  109.30    4.36
   1  -4  -5 1239.01   23.10
   1  -4  -4 1547.12   29.25
   1  -4  -4 1523.14   26.60
   1  -4  -3   22.89    1.82
   1  -4  -3   20.17    1.67
   1  -4  -2   37.19    2.38
   1  -4  -2   38.77    2.30
   1  -4  -1   58.10    3.13
   1  -4  -1   50.82    2.13
   1  -4  -1   51.65    2.78
   1  -4   0    1.24    0.49
   1  -4   0    0.81    0.30
   1  -4   0    0.44    0.35
   1  -4   0    1.29    0.44
   1  -4   1   23.67    2.16
   1  -4   1   20.53    2.13
   1  -4   1   27.71    2.14
   1  -4   1   24.90    2.14
   1  -4   2   16.09    1.88
   1  -4   2   16.53    1.84
   1  -4   3   18.52    2.19
   1  -4   3   17.48    2.11
   1  -4   4   31.35    3.11
   1  -4   5   52.61    4.32
   1  -4   6  540.71   16.97
   1  -4   7    0.58    0.79
   1  -4   8   72.49    6.15
   1  -4   9   88.50    7.19
   1  -4  10    1.29    1.37
   1  -4  11   79.90    7.56
   1  -4  12    0.93    1.48
   1  -3  -9   52.15    4.19
   1  -3  -8   -0.36    0.66
   1  -3  -7   13.85    1.78
   1  -3  -6 1015.28   21.34
   1  -3  -5  884.04   18.02
   1  -3  -4  352.21    7.95
   1  -3  -3 3589.25   61.30
   1  -3  -3 3544.45   59.34
   1  -3  -2  652.50   14.00
   1  -3  -2  688.98   13.53
   1  -3  -1  168.80    5.24
   1  -3  -1  167.46    3.79
   1  -3  -1  164.99    4.79
   1  -3   0    5.98    0.83
   1  -3   0    5.69    0.73
   1  -3   0    7.14    1.02
   1  -3   1  486.31   11.50
   1  -3   1  464.23   10.92
   1  -3   1  484.20   11.92
   1  -3   2   48.29    3.00
   1  -3   2   51.68    3.06
   1  -3   3   32.07    2.61
   1  -3   3   27.38    2.46
   1  -3   4   53.01    3.81
   1  -3   5  363.27   12.08
   1  -3   6   23.36    2.93
   1  -3   7  320.49   12.54
   1  -3   8    0.91    0.63
   1  -3   9    2.78    1.33
   1  -3  10   66.89    6.31
   1  -3  11    2.10    1.22
   1  -3  12    7.13    2.14
   1  -2  -9  159.59    8.46
   1  -2  -8  302.96   10.81
   1  -2  -7   89.76    5.03
   1  -2  -6  260.94    8.55
   1  -2  -5   59.56    3.26
   1  -2  -4  169.45    5.27
   1  -2  -3  202.90    5.06
   1  -2  -2 7137.33  119.62
   1  -2  -2 7251.10  119.38
   1  -2  -1  259.97    6.51
   1  -2  -1  272.59    5.82
   1  -2   0 2205.00   38.16
   1  -2   0 2138.54   36.85
   1  -2   0 2144.75   37.33
   1  -2   1  400.83    9.24
   1  -2   1  392.95    8.95
   1  -2   1  397.01    9.59
   1  -2   2  875.40   17.72
   1  -2   2  847.03   17.78
   1  -2   3  402.69   10.49
   1  -2   3  415.88   10.96
   1  -2   4  232.15    8.15
   1  -2   5   12.18    1.81
   1  -2   6   15.44    2.20
   1  -2   7   13.56    2.25
   1  -2   8   45.11    4.40
   1  -2   9   71.02    5.91
   1  -2  10   60.46    5.80
   1  -2  11  102.48    8.10
   1  -2  12   15.92    3.36
   1  -2  13    2.34    1.37
   1  -1  -8   63.22    4.98
   1  -1  -7  112.71    6.28
   1  -1  -7  118.70    6.15
   1  -1  -6   68.90    4.23
   1  -1  -6   67.88    4.40
   1  -1  -5   93.30    4.52
   1  -1  -4  369.38   10.04
   1  -1  -4  384.32    9.71
   1  -1  -3   70.15    3.18
   1  -1  -2  681.45   13.41
   1  -1   0  324.96    7.02
   1  -1   1  432.01    8.83
   1  -1   1  439.13    8.91
   1  -1   1  403.50    9.14
   1  -1   2 1022.85   19.27
   1  -1   2 1013.53   19.73
   1  -1   3 3314.05   58.71
   1  -1   4  215.78    7.37
   1  -1   5   40.33    3.20
   1  -1   6   68.35    4.56
   1  -1   7   63.70    4.70
   1  -1   8   80.67    5.71
   1  -1   9   28.16    3.62
   1  -1  10   46.32    4.84
   1  -1  11   36.27    4.54
   1  -1  12   23.21    3.88
   1  -1  13   38.72    5.19
   1  -1  14    2.22    1.18
   1   0  -8  378.73   13.72
   1   0  -7  230.52    9.68
   1   0  -6  145.41    6.95
   1   0  -5    5.50    1.16
   1   0  -4   80.16    4.15
   1   0  -3   63.39    3.25
   1   0  -2    0.80    0.36
   1   0  -1  204.06    5.01
   1   0   0  195.27    4.34
   1   0   1 1333.66   22.81
   1   0   1 1268.54   22.60
   1   0   2  430.06    8.34
   1   0   2  396.26    8.97
   1   0   3 2532.94   45.14
   1   0   4 1727.96   33.00
   1   0   5   12.20    1.59
   1   0   6   28.96    2.77
   1   0   7  304.76   10.80
   1   0   8   13.03    2.13
   1   0   9  240.91   10.62
   1   0  10   13.27    2.45
   1   0  11    9.52    2.32
   1   0  12   25.70    3.99
   1   0  13    1.99    1.24
   1   0  14   23.13    4.06
   1   1  -7  311.55   11.87
   1   1  -6  120.99    6.51
   1   1  -5    1.21    0.79
   1   1  -4  126.36    5.63
   1   1  -3   63.03    3.48
   1   1  -2 1653.94   30.87
   1   1  -1   25.51    1.61
   1   1   0 2227.93   37.98
   1   1   1  181.10    4.37
   1   1   2  445.82    9.24
   1   1   3 1451.37   26.84
   1   1   4 1004.79   20.30
   1   1   5 1016.08   21.51
   1   1   6    2.00    0.80
   1   1   7  394.03   12.25
   1   1   8   18.05    2.48
   1   1   9    1.34    0.70
   1   1  10  155.89    8.47
   1   1  11   56.23    5.27
   1   1  12    4.57    1.64
   1   1  13   48.97    5.44
   1   1  14    1.59    0.90
   1   1  15    5.58    2.08
   1   2  -7   53.28    4.74
   1   2  -6    4.52    1.25
   1   2  -5  230.17    9.07
   1   2  -4  240.78    8.69
   1   2  -3   10.66    1.45
   1   2  -2  391.60   10.16
   1   2  -1   89.97    3.60
   1   2   0  472.17   10.12
   1   2   1 1199.20   21.04
   1   2   1 1194.17   22.04
   1   2   2  171.73    4.96
   1   2   3    1.28    0.46
   1   2   3    1.73    0.44
   1   2   4    9.72    1.15
   1   2   5  356.51    9.66
   1   2   6  294.99    9.12
   1   2   7   53.43    3.68
   1   2   8  912.84   21.99
   1   2   9  324.58   11.66
   1   2  10    3.59    1.20
   1   2  11    2.20    0.96
   1   2  12   26.94    3.73
   1   2  13    0.86    0.60
   1   2  14   20.46    3.61
   1   2  15   55.18    6.33
   1   3  -6  473.92   15.63
   1   3  -5  259.85   10.21
   1   3  -4  209.40    8.37
   1   3  -3  539.74   14.24
   1   3  -2  175.71    6.39
   1   3  -2  179.31    6.47
   1   3  -1  525.89   12.34
   1   3   0  114.89    4.08
   1   3   0  107.59    4.18
   1   3   1    3.09    0.60
   1   3   1    4.51    0.79
   1   3   2 2490.38   44.32
   1   3   3    6.49    1.01
   1   3   4   24.56    2.05
   1   3   4   25.09    1.74
   1   3   5  355.43   10.24
   1   3   5  359.76    9.20
   1   3   6    3.38    0.82
   1   3   7  481.31   13.10
   1   3   8   38.97    3.33
   1   3   9   30.80    3.13
   1   3  10   43.13    4.01
   1   3  11   45.42    4.42
   1   3  12   -0.71    0.87
   1   3  13    1.12    0.99
   1   3  14   15.16    2.97
   1   3  15    2.95    1.40
   1   3  16   18.91    3.70
   1   4  -6   41.73    4.01
   1   4  -6   40.80    4.19
   1   4  -5   22.40    2.73
   1   4  -5   25.19    3.01
   1   4  -4  116.52    6.19
   1   4  -4  125.43    6.53
   1   4  -3  171.87    7.26
   1   4  -3  176.03    7.39
   1   4  -2  270.50    8.77
   1   4  -2  244.85    8.35
   1   4  -1  120.75    5.12
   1   4   0  659.04   14.70
   1   4   0  645.84   15.05
   1   4   1  343.76    8.63
   1   4   1  341.72    9.30
   1   4   2   72.25    3.57
   1   4   3  254.31    5.53
   1   4   3  231.88    7.37
   1   4   4  123.11    5.13
   1   4   4  123.52    3.36
   1   4   5   59.63    3.62
   1   4   5   59.78    2.98
   1   4   6 1394.37   29.06
   1   4   6 1391.06   27.31
   1   4   7  501.26   14.12
   1   4   7  478.64   12.53
   1   4   8   15.18    1.91
   1   4   9  581.24   15.96
   1   4  10   69.93    4.97
   1   4  11  108.22    6.69
   1   4  12    4.62    1.52
   1   4  13    7.47    1.98
   1   4  14    0.74    0.92
   1   4  15   26.28    4.03
   1   4  16    4.26    1.98
   1   5  -5   26.53    3.18
   1   5  -5   33.40    3.69
   1   5  -4  126.05    6.76
   1   5  -4  116.98    6.66
   1   5  -3  528.22   15.16
   1   5  -3  521.13   15.05
   1   5  -2   89.00    5.01
   1   5  -2   85.81    4.75
   1   5  -1  139.13    6.07
   1   5   0  400.39   10.95
   1   5   0  397.18   11.31
   1   5   1  185.50    6.32
   1   5   1  185.24    6.80
   1   5   2  567.24   14.05
   1   5   3   10.69    1.47
   1   5   4  185.93    4.87
   1   5   4  196.62    7.06
   1   5   5  134.45    3.98
   1   5   5  126.35    5.71
   1   5   6    6.81    0.89
   1   5   6    4.60    1.04
   1   5   6    8.68    1.16
   1   5   7   49.91    3.80
   1   5   7   52.02    3.21
   1   5   8  183.83    8.15
   1   5   8  199.44    7.33
   1   5   9   21.92    2.82
   1   5   9   22.31    2.42
   1   5  10  220.65   10.02
   1   5  10  207.07    8.58
   1   5  11   68.62    5.66
   1   5  11   72.25    5.08
   1   5  12   75.24    6.25
   1   5  12   74.82    5.53
   1   5  13   42.10    4.92
   1   5  13   43.62    4.39
   1   5  14   -1.33    1.32
   1   5  14   -0.85    0.84
   1   5  15    5.29    1.92
   1   5  15    6.44    1.88
   1   5  16    3.85    1.81
   1   5  16    1.84    1.58
   1   5  17    2.74    1.53
   1   6  -5   16.25    2.67
   1   6  -4   48.03    4.28
   1   6  -3   55.06    4.43
   1   6  -3   62.83    4.58
   1   6  -2  961.53   23.21
   1   6  -1 1177.94   26.15
   1   6   0   37.04    3.01
   1   6   0   35.65    3.12
   1   6   1   20.57    2.10
   1   6   1   20.97    2.29
   1   6   2  124.97    5.84
   1   6   3   47.63    3.45
   1   6   4  173.93    6.99
   1   6   5    0.33    0.27
   1   6   5   -0.30    0.46
   1   6   6    0.72    0.30
   1   6   6    1.62    0.66
   1   6   7  139.63    4.93
   1   6   7  156.56    7.17
   1   6   8    0.78    0.46
   1   6   8    0.01    0.38
   1   6   8    0.01    0.41
   1   6   9  139.65    7.41
   1   6   9  137.45    6.18
   1   6  10   26.86    3.32
   1   6  10   24.12    2.66
   1   6  11   61.68    5.32
   1   6  11   60.11    4.54
   1   6  12   88.98    6.78
   1   6  12   89.21    5.92
   1   6  13   -0.20    0.71
   1   6  13    0.53    0.54
   1   6  14   13.81    2.87
   1   6  14   11.48    2.46
   1   6  15    1.32    1.04
   1   6  15    1.49    1.13
   1   6  16    3.41    1.64
   1   6  16    3.38    1.68
   1   7  -4   85.90    6.05
   1   7  -2    8.37    1.75
   1   7  -1    3.63    1.05
   1   7   0   41.03    3.45
   1   7   1    1.17    0.62
   1   7   2  661.32   17.30
   1   7   3  462.60   13.51
   1   7   4  620.70   16.56
   1   7   5  118.24    4.34
   1   7   5  127.95    6.27
   1   7   6    6.40    0.91
   1   7   6    5.17    1.27
   1   7   7   46.97    2.61
   1   7   7   50.02    4.04
   1   7   8   39.79    2.59
   1   7   8   39.41    3.74
   1   7   9    2.36    0.72
   1   7   9    4.89    1.44
   1   7   9    3.20    0.85
   1   7  10   61.66    5.10
   1   7  10   56.76    3.94
   1   7  10   59.85    3.78
   1   7  11   66.91    5.62
   1   7  11   70.48    4.73
   1   7  11   69.93    4.51
   1   7  12   24.99    3.54
   1   7  12   23.37    2.90
   1   7  13  171.16   10.03
   1   7  13  182.81    8.92
   1   7  14   40.73    4.94
   1   7  14   39.97    4.26
   1   7  15   32.30    4.65
   1   7  15   37.96    4.37
   1   7  16    9.14    2.66
   1   8  -1    1.39    1.03
   1   8   0    2.26    0.90
   1   8   1  113.11    6.44
   1   8   2    0.35    0.40
   1   8   3  210.12    8.81
   1   8   4  220.51    9.03
   1   8   5   18.77    2.43
   1   8   6   55.84    3.02
   1   8   6   63.21    4.64
   1   8   7   50.20    2.81
   1   8   7   43.14    3.92
   1   8   8    3.39    1.20
   1   8   8    2.29    0.62
   1   8   9    0.52    0.68
   1   8   9    2.27    0.64
   1   8  10    9.71    2.07
   1   8  10   12.06    1.59
   1   8  11   48.88    4.82
   1   8  11   48.88    3.74
   1   8  11   48.33    3.56
   1   8  12   23.70    3.46
   1   8  12   25.28    2.72
   1   8  12   24.40    2.79
   1   8  13    6.07    1.40
   1   8  13    8.22    2.08
   1   8  13    6.52    1.45
   1   8  14   72.44    6.68
   1   8  14   81.35    5.92
   1   8  14   76.01    5.50
   1   8  15   12.23    2.71
   1   8  16   -0.48    1.34
   1   9   1    3.76    1.23
   1   9   2  233.77   10.13
   1   9   3  231.52    9.81
   1   9   4  116.41    6.70
   1   9   5  596.25   17.59
   1   9   6   83.96    5.73
   1   9   7  122.67    4.95
   1   9   7  128.66    7.24
   1   9   8  131.17    5.12
   1   9   8  128.21    7.41
   1   9   9   51.94    3.10
   1   9   9   40.95    4.20
   1   9  10   23.57    2.21
   1   9  10   24.46    3.33
   1   9  11  102.08    5.08
   1   9  11   97.98    7.05
   1   9  12   11.42    1.77
   1   9  12   13.69    2.81
   1   9  13   84.59    5.24
   1   9  13   71.82    6.49
   1   9  14    4.51    1.82
   1   9  15   -0.81    0.92
   1   9  16   12.26    3.15
   1  10   2   29.66    3.58
   1  10   3   93.41    6.36
   1  10   4  302.58   12.04
   1  10   5  109.13    6.85
   1  10   6  195.29    9.40
   1  10   7   97.81    6.55
   1  10   8   13.97    1.63
   1  10   8   13.18    2.43
   1  10   9    9.54    1.37
   1  10   9    8.26    1.89
   1  10  10    4.72    0.99
   1  10  10    2.25    0.91
   1  10  11    4.40    0.96
   1  10  11    3.27    1.33
   1  10  12   29.22    3.94
   1  10  13   -0.10    0.73
   1  10  14   11.42    2.83
   1  10  15   54.64    6.15
   1  10  16   -0.96    1.33
   1  11   2   14.88    2.71
   1  11   3  133.14    8.13
   1  11   4    0.56    0.93
   1  11   5   10.02    2.10
   1  11   6    9.60    2.15
   1  11   7   27.10    3.55
   1  11   8   80.03    6.25
   1  11   9    7.06    1.83
   1  11  10   47.83    3.16
   1  11  10   50.29    5.11
   1  11  11   15.05    2.95
   1  11  12   29.00    4.04
   1  11  13   25.21    3.93
   1  11  14    1.73    1.27
   1  11  15    6.49    1.96
   1  12   3    4.39    1.52
   1  12   4    1.54    1.05
   1  12   5   23.29    3.47
   1  12   6    1.49    0.77
   1  12   7   50.06    5.08
   1  12   8    7.49    2.12
   1  12   9  122.66    8.31
   1  12  10   26.73    3.83
   1  12  11   19.68    3.28
   1  12  12   27.68    4.09
   1  12  13    8.84    2.38
   1  12  14    1.05    1.16
   1  12  15    4.68    1.96
   1  13   4   25.38    3.77
   1  13   5   23.39    3.64
   1  13   6   22.34    3.54
   1  13   7   46.23    5.15
   1  13   8   28.98    4.07
   1  13   9   29.72    4.13
   1  13  10  104.55    8.00
   1  13  11  106.00    8.22
   1  13  12    3.16    1.51
   1  13  13   35.75    4.92
   1  13  14    2.46    1.39
   1  14   4    8.41    2.51
   1  14   5    4.64    1.87
   1  14   6   23.60    3.95
   1  14   7    0.20    1.11
   1  14   8   10.56    2.67
   1  14   9   10.20    2.70
   1  14  10   34.84    4.72
   1  14  11    1.84    1.54
   1  14  12    9.49    2.60
   1  14  13    0.91    0.72
   1  15   5   25.10    4.16
   1  15   6    1.01    1.36
   1  15   7    0.38    1.03
   1  15   8   19.30    3.69
   1  15   9   27.15    4.39
   1  15  10    0.71    0.67
   1  15  11   12.06    3.16
   2 -16  -8   36.05    5.01
   2 -16  -7   14.51    3.01
   2 -15 -10    8.57    2.42
   2 -15  -9    9.27    2.46
   2 -15  -8   -0.97    1.38
   2 -15  -7   35.21    4.68
   2 -15  -6   53.93    5.90
   2 -15  -5   18.44    3.56
   2 -15  -4   20.28    3.74
   2 -15  -3   -2.30    1.67
   2 -14  -9    4.14    1.52
   2 -14  -8   46.61    5.19
   2 -14  -7   44.58    5.08
   2 -14  -6    5.87    1.87
   2 -14  -5   53.99    5.75
   2 -14  -4    8.35    2.30
   2 -14  -3   -0.49    1.32
   2 -14  -2    1.04    0.76
   2 -14  -1   24.03    4.13
   2 -13  -7    1.03    0.76
   2 -13  -6   61.63    5.74
   2 -13  -5    6.49    1.94
   2 -13  -4   36.78    4.56
   2 -13  -3   31.66    4.32
   2 -13  -2   -1.22    1.07
   2 -13  -1    6.10    1.91
   2 -13  -1    6.74    1.53
   2 -13   0    0.13    1.27
   2 -13   0   -0.11    0.60
   2 -13   1    6.09    2.19
   2 -13   1    5.54    1.69
   2 -13   2   19.55    3.32
   2 -13   3    8.58    2.21
   2 -13   4    0.77    0.97
   2 -12  -6    8.40    2.09
   2 -12  -5   52.57    5.06
   2 -12  -4   20.02    3.13
   2 -12  -4   21.34    1.61
   2 -12  -3    6.90    1.79
   2 -12  -3    9.49    1.41
   2 -12  -2   64.71    5.91
   2 -12  -2   66.16    4.33
   2 -12  -1   28.42    3.11
   2 -12  -1   31.32    4.23
   2 -12   0   87.46    7.23
   2 -12   0   85.06    5.89
   2 -12   1   29.88    4.34
   2 -12   1   22.13    3.19
   2 -12   2   28.68    4.44
   2 -12   2   29.31    3.91
   2 -12   3    8.55    2.35
   2 -12   4    3.55    1.65
   2 -12   5    4.58    1.91
   2 -11  -6   70.01    5.32
   2 -11  -5    9.14    1.91
   2 -11  -4    0.49    0.71
   2 -11  -4   -0.53    1.04
   2 -11  -4    0.61    0.23
   2 -11  -3   -0.35    0.98
   2 -11  -3    0.09    0.25
   2 -11  -2    0.67    0.82
   2 -11  -2    0.03    0.43
   2 -11  -1  119.12    7.88
   2 -11  -1  109.44    5.93
   2 -11   0   18.00    2.99
   2 -11   0   17.90    2.53
   2 -11   1    0.58    0.76
   2 -11   1    0.27    0.84
   2 -11   2   31.22    4.30
   2 -11   2   25.16    3.47
   2 -11   3    8.04    2.27
   2 -11   4   13.99    3.03
   2 -11   5    2.68    1.51
   2 -11   6    5.41    2.11
   2 -10  -7  122.62    7.03
   2 -10  -6  295.26   11.32
   2 -10  -6  304.22   11.53
   2 -10  -5   64.23    4.94
   2 -10  -5   63.71    4.92
   2 -10  -4    4.13    1.31
   2 -10  -4    2.04    0.86
   2 -10  -4    2.48    0.42
   2 -10  -3  124.63    7.30
   2 -10  -3  128.00    7.32
   2 -10  -3  121.87    4.62
   2 -10  -3  127.95    7.21
   2 -10  -2  571.21   17.93
   2 -10  -2  567.70   14.13
   2 -10  -2  555.58   17.76
   2 -10  -1  336.60   13.48
   2 -10  -1  348.05   10.96
   2 -10   0  144.01    8.52
   2 -10   0  147.21    7.13
   2 -10   1  148.42    8.84
   2 -10   1  150.94    7.78
   2 -10   2   12.30    2.61
   2 -10   2   11.77    2.26
   2 -10   3   55.05    5.69
   2 -10   3   51.87    5.03
   2 -10   4    0.10    0.60
   2 -10   5    1.20    1.05
   2 -10   6    5.93    2.35
   2 -10   7    4.06    2.06
   2  -9 -10   26.68    2.79
   2  -9  -9   16.68    1.94
   2  -9  -8    0.82    0.31
   2  -9  -7   40.87    3.76
   2  -9  -6   10.52    1.85
   2  -9  -5    0.62    0.47
   2  -9  -5    0.97    0.43
   2  -9  -4   40.05    3.71
   2  -9  -4   34.71    3.36
   2  -9  -3   22.58    2.85
   2  -9  -3   21.14    1.57
   2  -9  -3   19.65    2.54
   2  -9  -2   45.21    4.12
   2  -9  -2   43.86    4.05
   2  -9  -2   42.47    2.76
   2  -9  -2   41.89    3.89
   2  -9  -1    0.90    0.78
   2  -9  -1    0.28    0.69
   2  -9  -1    1.32    0.73
   2  -9  -1    0.73    0.57
   2  -9   0   67.88    5.40
   2  -9   0   72.01    5.56
   2  -9   0   66.26    4.38
   2  -9   0   69.63    5.25
   2  -9   1    2.08    1.21
   2  -9   1    1.49    0.82
   2  -9   2   70.15    5.82
   2  -9   2   63.77    5.02
   2  -9   3    3.43    1.29
   2  -9   3    3.26    1.20
   2  -9   4   60.87    5.49
   2  -9   5   90.54    7.13
   2  -9   6   13.99    2.96
   2  -9   7   13.59    3.03
   2  -9   8    5.55    2.19
   2  -8 -11   29.37    3.39
   2  -8 -10  225.04    9.20
   2  -8  -9  182.96    7.49
   2  -8  -8  257.31    8.32
   2  -8  -7  148.27    5.20
   2  -8  -6   31.56    3.02
   2  -8  -5   54.89    4.13
   2  -8  -5   58.20    4.09
   2  -8  -4    2.93    0.93
   2  -8  -4    4.17    1.09
   2  -8  -3    0.10    0.54
   2  -8  -3    0.75    0.61
   2  -8  -3    0.97    0.30
   2  -8  -2    5.55    1.37
   2  -8  -2    7.98    1.61
   2  -8  -2    4.20    1.15
   2  -8  -2    7.08    1.00
   2  -8  -1    3.20    0.99
   2  -8  -1    1.61    0.89
   2  -8  -1    2.85    1.06
   2  -8  -1    2.59    0.66
   2  -8   0    0.94    0.79
   2  -8   0    1.01    0.52
   2  -8   0    1.55    0.79
   2  -8   0    2.21    0.76
   2  -8   1  236.77   10.31
   2  -8   1  231.06   10.35
   2  -8   1  226.30    8.89
   2  -8   1  242.86   10.08
   2  -8   2   64.68    5.27
   2  -8   2   63.26    4.73
   2  -8   3  111.71    7.30
   2  -8   3  120.85    7.07
   2  -8   4  107.18    7.05
   2  -8   5   81.04    6.46
   2  -8   6   43.43    4.98
   2  -8   7    1.20    1.12
   2  -8   8    3.92    1.69
   2  -8   9   -0.37    1.23
   2  -7 -11    5.71    1.40
   2  -7 -10   50.18    4.25
   2  -7  -9    0.05    0.39
   2  -7  -8   99.02    5.08
   2  -7  -7   60.62    3.47
   2  -7  -6  188.91    7.50
   2  -7  -6  186.93    5.69
   2  -7  -5   81.91    4.88
   2  -7  -5   90.14    4.77
   2  -7  -4  437.83   12.85
   2  -7  -4  424.26   12.05
   2  -7  -3  197.24    7.96
   2  -7  -3  192.35    4.20
   2  -7  -3  202.58    7.50
   2  -7  -2  361.68   11.65
   2  -7  -2  358.23    8.44
   2  -7  -2  363.03   11.02
   2  -7  -1  298.37   10.49
   2  -7  -1  303.65   10.73
   2  -7  -1  296.51    8.33
   2  -7  -1  300.93   10.08
   2  -7   0    3.95    1.21
   2  -7   0    3.29    1.11
   2  -7   0    2.72    0.98
   2  -7   0    2.58    0.75
   2  -7   1   17.89    2.47
   2  -7   1   18.71    2.62
   2  -7   1   20.94    2.33
   2  -7   1   22.13    2.62
   2  -7   2   99.64    6.17
   2  -7   2  107.57    6.71
   2  -7   2   90.99    5.43
   2  -7   2  103.33    6.13
   2  -7   3   57.84    4.86
   2  -7   3   61.16    4.73
   2  -7   3   60.48    4.89
   2  -7   4   -0.33    0.53
   2  -7   4    0.88    0.69
   2  -7   5   60.92    5.34
   2  -7   6   12.36    2.59
   2  -7   7   49.46    5.36
   2  -7   8   37.38    4.88
   2  -7   9   -2.08    1.80
   2  -7  10    6.35    2.21
   2  -6 -10   -0.30    0.68
   2  -6  -9    6.47    1.47
   2  -6  -8    0.97    0.51
   2  -6  -7   37.18    2.83
   2  -6  -6   44.85    2.76
   2  -6  -5    3.76    0.86
   2  -6  -5    4.77    0.71
   2  -6  -4   28.27    2.66
   2  -6  -4   31.62    2.47
   2  -6  -3  192.99    7.46
   2  -6  -3  191.91    6.75
   2  -6  -2  133.13    6.10
   2  -6  -2  140.42    3.87
   2  -6  -2  134.99    5.60
   2  -6  -1   27.90    2.75
   2  -6  -1   34.04    2.11
   2  -6  -1   31.57    2.64
   2  -6   0   30.27    2.94
   2  -6   0   34.07    3.20
   2  -6   0   30.46    2.34
   2  -6   0   33.43    2.83
   2  -6   1    1.89    0.80
   2  -6   1    0.76    0.50
   2  -6   1    1.33    0.61
   2  -6   1    0.37    0.34
   2  -6   2   76.93    5.11
   2  -6   2   74.68    5.26
   2  -6   2   67.21    4.35
   2  -6   2   77.05    4.87
   2  -6   3   34.40    3.53
   2  -6   3   36.53    3.82
   2  -6   3   31.73    3.20
   2  -6   3   36.82    3.54
   2  -6   4  160.89    8.29
   2  -6   4  193.68    9.55
   2  -6   4  160.29    8.09
   2  -6   5    2.96    1.30
   2  -6   6   91.65    6.71
   2  -6   7  103.10    7.50
   2  -6   8   18.48    3.34
   2  -6   9  107.16    8.56
   2  -6  10    1.11    1.15
   2  -5 -10   97.38    6.42
   2  -5  -9    0.40    0.42
   2  -5  -8   14.53    2.08
   2  -5  -7   12.93    1.76
   2  -5  -6  507.58   12.72
   2  -5  -5  920.79   18.77
   2  -5  -4  466.57   11.25
   2  -5  -4  448.82    9.65
   2  -5  -3 2099.71   40.39
   2  -5  -3 2128.02   38.87
   2  -5  -2  103.22    4.97
   2  -5  -2  103.10    2.61
   2  -5  -2  105.76    4.34
   2  -5  -1    1.37    0.71
   2  -5  -1    2.69    0.67
   2  -5  -1    5.58    0.73
   2  -5   0    5.48    1.17
   2  -5   0    6.99    1.16
   2  -5   0    6.01    0.93
   2  -5   1    6.07    1.34
   2  -5   1    4.83    1.09
   2  -5   1    4.79    1.05
   2  -5   1    5.35    0.98
   2  -5   2   81.55    4.91
   2  -5   2   82.64    4.57
   2  -5   2   98.92    5.75
   2  -5   3   62.27    4.38
   2  -5   3   65.67    4.90
   2  -5   3   63.14    4.31
   2  -5   4   -0.24    0.51
   2  -5   4    1.32    0.78
   2  -5   4    0.21    0.43
   2  -5   5  122.18    7.05
   2  -5   6    0.18    0.55
   2  -5   7   39.47    4.40
   2  -5   8   79.82    6.72
   2  -5   9    0.32    1.22
   2  -5  10   48.50    5.90
   2  -5  11   -0.67    0.98
   2  -4  -9   12.55    2.14
   2  -4  -8  135.79    6.85
   2  -4  -7    4.52    1.06
   2  -4  -6    3.18    0.88
   2  -4  -5    3.79    0.75
   2  -4  -4  257.57    6.89
   2  -4  -3  442.84   11.68
   2  -4  -3  445.96   10.14
   2  -4  -2   48.91    3.08
   2  -4  -2   46.53    2.41
   2  -4  -1  274.35    8.44
   2  -4  -1  271.54    6.18
   2  -4  -1  284.09    7.43
   2  -4   0   31.57    2.56
   2  -4   0   32.48    1.96
   2  -4   0   33.18    2.25
   2  -4   1  858.60   19.23
   2  -4   1  862.95   19.90
   2  -4   1  873.52   18.25
   2  -4   1  857.94   18.60
   2  -4   2  267.23    8.86
   2  -4   2  264.64    8.48
   2  -4   2  279.40    9.66
   2  -4   3  358.44   11.01
   2  -4   3  350.52   11.67
   2  -4   3  345.63   10.78
   2  -4   4    1.11    0.57
   2  -4   4    1.27    0.54
   2  -4   5    1.44    0.82
   2  -4   6  105.48    6.62
   2  -4   7  117.32    7.42
   2  -4   8   28.36    3.77
   2  -4   9  101.69    7.71
   2  -4  10    4.67    1.85
   2  -4  11   17.03    3.42
   2  -4  12   58.11    6.76
   2  -3  -9  106.16    6.77
   2  -3  -8   26.18    2.99
   2  -3  -7  110.15    5.91
   2  -3  -6   28.24    2.65
   2  -3  -5  192.95    6.84
   2  -3  -4   81.02    3.65
   2  -3  -3  540.70   11.43
   2  -3  -2  242.48    7.27
   2  -3  -2  233.45    5.65
   2  -3  -1   24.07    2.01
   2  -3  -1   28.68    1.25
   2  -3  -1   28.67    1.60
   2  -3   0  114.08    4.74
   2  -3   0  116.39    3.67
   2  -3   0  116.77    3.95
   2  -3   1    2.26    0.69
   2  -3   1    3.53    0.67
   2  -3   2  383.42   10.47
   2  -3   2  399.15   10.42
   2  -3   2  386.98   11.27
   2  -3   3  694.65   16.53
   2  -3   3  704.32   16.67
   2  -3   3  700.03   17.42
   2  -3   4  654.09   16.16
   2  -3   4  613.68   16.24
   2  -3   5   16.69    2.26
   2  -3   6   90.88    5.86
   2  -3   7   14.77    2.44
   2  -3   8   23.16    3.31
   2  -3   9   13.93    2.80
   2  -3  10   63.68    6.16
   2  -3  11  135.95    9.57
   2  -3  12   16.50    3.41
   2  -2  -8  194.89    9.05
   2  -2  -7  205.24    8.68
   2  -2  -6  229.29    8.61
   2  -2  -5  210.54    7.56
   2  -2  -4  138.43    5.36
   2  -2  -3    0.43    0.34
   2  -2  -1    2.69    0.34
   2  -2  -1    3.53    0.69
   2  -2   0  125.58    3.57
   2  -2   0  124.06    4.54
   2  -2   1  119.64    4.02
   2  -2   1  117.53    4.51
   2  -2   2  159.14    5.38
   2  -2   2  160.37    5.46
   2  -2   2  155.36    5.90
   2  -2   3  756.43   16.32
   2  -2   3  727.13   16.64
   2  -2   3  711.22   17.10
   2  -2   4  840.82   18.97
   2  -2   4  890.24   20.01
   2  -2   5  302.39   10.30
   2  -2   6    2.70    0.96
   2  -2   7  187.49    8.85
   2  -2   8    8.45    1.93
   2  -2   9   13.28    2.68
   2  -2  10   15.24    2.86
   2  -2  11    1.44    0.93
   2  -2  12   53.56    6.01
   2  -2  13    1.51    0.85
   2  -1  -8   43.98    4.25
   2  -1  -7  108.41    6.37
   2  -1  -6  251.68    9.54
   2  -1  -5  478.81   13.32
   2  -1  -4  439.28   11.78
   2  -1  -3    1.03    0.51
   2  -1   0   20.53    1.50
   2  -1   1  639.71   12.70
   2  -1   1  615.09   13.20
   2  -1   2 9857.13  164.16
   2  -1   2 9735.43  164.84
   2  -1   2 9975.52  165.07
   2  -1   3 9066.20  154.00
   2  -1   3 9387.39  155.13
   2  -1   3 9177.65  155.26
   2  -1   4  240.46    7.15
   2  -1   4  234.58    7.86
   2  -1   5 1312.80   28.00
   2  -1   6    4.79    1.29
   2  -1   7   59.69    4.57
   2  -1   8    2.84    1.11
   2  -1   9    0.54    0.77
   2  -1  10    1.27    0.95
   2  -1  11   45.99    5.12
   2  -1  12    5.08    1.98
   2  -1  13   66.28    6.86
   2  -1  14   16.82    3.59
   2   0  -7  127.57    7.20
   2   0  -6  118.60    6.50
   2   0  -5   15.41    2.05
   2   0  -4  171.90    6.81
   2   0  -3   58.54    3.36
   2   0   1  549.73   10.95
   2   0   1  505.10   10.71
   2   0   2   16.28    1.34
   2   0   2    6.27    0.87
   2   0   3 5791.74   96.81
   2   0   3 5744.39   98.04
   2   0   3 5765.31   98.56
   2   0   4   90.61    4.31
   2   0   5   21.15    2.20
   2   0   6  576.19   15.39
   2   0   7  341.34   11.56
   2   0   8   76.66    5.31
   2   0   9   66.83    5.28
   2   0  10    1.89    0.80
   2   0  11    0.41    0.56
   2   0  12   60.32    5.92
   2   0  13   11.94    2.94
   2   0  14    5.36    2.20
   2   1  -7  140.62    7.91
   2   1  -6  262.93   10.49
   2   1  -5   86.70    5.32
   2   1  -4  306.62   10.08
   2   1  -3 1621.55   32.17
   2   1   0 2687.16   45.90
   2   1   1  700.00   13.51
   2   1   2    4.99    0.54
   2   1   2    3.72    0.68
   2   1   2    1.96    0.55
   2   1   3   83.12    2.31
   2   1   3   68.60    2.74
   2   1   4  135.87    5.09
   2   1   5    6.26    1.17
   2   1   6  382.38   11.42
   2   1   7 1018.54   23.77
   2   1   8  910.54   22.69
   2   1   9  125.85    7.18
   2   1  10   29.75    3.60
   2   1  11   91.59    6.80
   2   1  12   52.70    5.40
   2   1  13   12.50    2.81
   2   1  14   37.61    5.12
   2   1  15    4.05    1.73
   2   2  -6   66.66    5.13
   2   2  -5   70.63    4.97
   2   2  -4    0.70    0.49
   2   2  -3   76.22    4.38
   2   2   0    9.68    1.04
   2   2   1  512.73   11.08
   2   2   2   40.25    2.27
   2   2   3  860.10   17.98
   2   2   3  873.03   15.50
   2   2   3  894.99   17.75
   2   2   4  125.81    4.77
   2   2   5    1.03    0.44
   2   2   6    7.94    1.34
   2   2   7 1334.71   28.78
   2   2   8  450.63   13.90
   2   2   9  563.79   16.84
   2   2  10   17.90    2.75
   2   2  11    7.95    1.89
   2   2  12   33.28    4.27
   2   2  13    8.45    2.34
   2   2  14    3.15    1.48
   2   2  15   36.24    5.21
   2   3  -6   20.63    2.95
   2   3  -5  373.05   13.13
   2   3  -4   72.64    4.88
   2   3  -3   73.11    4.53
   2   3   0  217.52    6.62
   2   3   1   27.13    2.00
   2   3   2  458.96    9.14
   2   3   2  449.03   10.89
   2   3   3    2.93    0.72
   2   3   4   59.31    3.38
   2   3   4   49.59    2.81
   2   3   5    6.63    1.18
   2   3   5    6.64    1.05
   2   3   6   98.71    4.72
   2   3   7   37.21    3.00
   2   3   8 1030.13   23.59
   2   3   9   38.10    3.55
   2   3  10   78.92    5.56
   2   3  11  175.22    9.08
   2   3  12    0.69    0.71
   2   3  13   45.96    4.99
   2   3  14    0.16    0.81
   2   3  15    1.27    1.51
   2   3  16    1.60    1.09
   2   4  -5   78.71    5.70
   2   4  -4   17.55    2.43
   2   4  -3   91.91    5.34
   2   4   0  438.88   11.00
   2   4   0  419.59   11.29
   2   4   1 1336.15   25.42
   2   4   1 1322.31   26.61
   2   4   2  478.96   10.47
   2   4   2  491.45   12.14
   2   4   3   59.10    3.42
   2   4   4    4.06    0.92
   2   4   5   23.68    2.33
   2   4   5   24.05    2.02
   2   4   6    8.66    1.53
   2   4   6   10.63    1.44
   2   4   7  632.35   17.08
   2   4   7  626.46   15.64
   2   4   8   25.20    2.91
   2   4   8   21.06    2.34
   2   4   9  137.85    6.73
   2   4  10  166.80    7.95
   2   4  11    1.74    0.92
   2   4  12   67.16    5.40
   2   4  13   -0.02    0.62
   2   4  14    2.34    0.62
   2   4  15   -0.53    1.04
   2   4  16   11.49    2.89
   2   5  -5    7.84    1.83
   2   5  -4   88.41    5.82
   2   5  -4   94.53    6.09
   2   5  -3    4.48    1.17
   2   5  -2   12.51    1.87
   2   5  -1  222.02    8.08
   2   5   0  453.17   12.08
   2   5   0  461.72   12.70
   2   5   1   59.06    3.31
   2   5   1   62.11    3.85
   2   5   2    4.08    0.96
   2   5   2    3.10    0.71
   2   5   3  327.37    9.93
   2   5   4  290.78    9.34
   2   5   5  468.44   13.06
   2   5   6    1.77    0.63
   2   5   6    2.11    0.36
   2   5   7   34.66    3.26
   2   5   7   35.43    2.80
   2   5   8   11.52    1.98
   2   5   8   10.18    1.63
   2   5   9   81.56    5.66
   2   5   9   85.85    5.12
   2   5  10   66.67    5.37
   2   5  10   57.15    4.41
   2   5  11  300.78   12.78
   2   5  11  306.78   11.67
   2   5  12   49.18    5.10
   2   5  12   46.03    4.44
   2   5  13  168.32   10.21
   2   5  13  169.78    9.22
   2   5  14   45.28    5.40
   2   5  14   41.92    4.70
   2   5  15    0.71    1.13
   2   5  15    0.14    0.95
   2   5  16   17.14    3.77
   2   5  16   15.67    3.23
   2   5  17    4.48    2.00
   2   6  -3    0.22    0.41
   2   6  -2   40.29    3.60
   2   6  -1   61.58    4.25
   2   6   0   25.86    2.53
   2   6   0   25.89    2.75
   2   6   1  385.38   10.94
   2   6   1  391.47   11.87
   2   6   2  742.54   16.66
   2   6   2  739.31   18.22
   2   6   3  369.89   11.41
   2   6   4  189.55    7.58
   2   6   5    6.22    1.35
   2   6   6   32.56    3.10
   2   6   6   35.94    1.37
   2   6   7   21.57    2.64
   2   6   7   19.05    1.25
   2   6   8   26.51    3.03
   2   6   8   28.56    2.63
   2   6   8   28.02    1.86
   2   6   9  220.27    9.76
   2   6   9  207.65    8.19
   2   6  10   10.43    2.13
   2   6  10    7.05    1.51
   2   6  11    8.35    2.02
   2   6  11    5.08    1.32
   2   6  12  108.74    7.63
   2   6  12  112.48    6.87
   2   6  13   51.39    5.39
   2   6  13   46.26    4.63
   2   6  14   16.70    3.22
   2   6  14   18.22    3.02
   2   6  15   90.11    7.98
   2   6  15   84.51    6.98
   2   6  16    5.37    2.35
   2   6  16    5.01    2.10
   2   6  17    8.23    2.46
   2   7  -2   31.45    3.41
   2   7  -1   34.80    3.41
   2   7   0   48.10    3.77
   2   7   0   50.63    4.13
   2   7   1    5.96    1.26
   2   7   1    4.04    1.18
   2   7   2   90.22    4.64
   2   7   2   79.06    5.08
   2   7   3  442.03   13.49
   2   7   4  338.69   11.35
   2   7   5  370.43   12.11
   2   7   6   71.59    4.88
   2   7   7   40.24    1.73
   2   7   7   41.88    3.81
   2   7   8   36.20    3.64
   2   7   8   35.18    1.90
   2   7   9   38.53    3.96
   2   7   9   36.28    2.26
   2   7  10   43.70    4.38
   2   7  10   46.78    3.80
   2   7  10   53.31    3.15
   2   7  11   44.16    4.59
   2   7  11   42.09    3.11
   2   7  11   42.88    3.79
   2   7  12   17.58    3.05
   2   7  12   18.16    2.60
   2   7  13    1.86    0.98
   2   7  13    2.28    1.06
   2   7  14   85.59    7.35
   2   7  14   79.79    6.22
   2   7  15    2.26    1.40
   2   7  15    0.84    0.62
   2   7  16   10.79    2.91
   2   7  16   13.03    2.75
   2   8  -1   39.25    3.88
   2   8   0  102.57    6.02
   2   8   1  322.82   11.15
   2   8   1  348.47   12.41
   2   8   2    0.16    0.52
   2   8   3    1.61    0.98
   2   8   4  200.68    8.75
   2   8   5  260.06   10.23
   2   8   6  548.99   16.42
   2   8   7  788.50   21.23
   2   8   8  183.15    4.82
   2   8   8  166.44    8.51
   2   8   9   90.82    6.31
   2   8   9  101.35    3.66
   2   8  10   15.10    2.69
   2   8  10   17.63    1.62
   2   8  11    6.69    1.85
   2   8  11    3.65    0.90
   2   8  12   37.41    4.46
   2   8  12   33.62    3.49
   2   8  12   40.59    3.08
   2   8  13   97.16    7.56
   2   8  13  104.68    5.57
   2   8  13   94.78    6.31
   2   8  14    5.29    1.72
   2   8  14    8.61    1.96
   2   8  15   49.17    5.80
   2   8  15   51.03    5.04
   2   8  16    1.10    0.67
   2   9   1    1.24    0.71
   2   9   1    1.72    0.58
   2   9   2  133.16    7.51
   2   9   3    5.21    1.45
   2   9   4    2.70    1.02
   2   9   5   89.81    5.98
   2   9   6  462.66   15.27
   2   9   7    1.45    0.94
   2   9   8    1.20    0.58
   2   9   9    1.59    0.39
   2   9   9   -0.26    0.88
   2   9  10   39.00    2.19
   2   9  10   39.67    4.38
   2   9  11   77.53    3.63
   2   9  11   73.80    6.21
   2   9  12   42.23    2.91
   2   9  12   36.38    4.48
   2   9  13   11.77    2.67
   2   9  14   39.72    5.16
   2   9  15    1.58    0.91
   2   9  16   15.22    3.35
   2  10   1   93.45    6.65
   2  10   2   16.55    2.69
   2  10   3  111.77    7.18
   2  10   4   -0.03    0.75
   2  10   5  149.19    8.28
   2  10   6    3.11    1.30
   2  10   7  116.53    7.34
   2  10   8  198.95   10.01
   2  10   9  279.81   12.26
   2  10  10  182.32    9.96
   2  10  11   17.46    3.06
   2  10  12   19.15    3.21
   2  10  13    7.61    2.06
   2  10  14   -1.77    1.07
   2  10  15   19.99    3.77
   2  11   2   54.44    5.25
   2  11   3   42.79    4.67
   2  11   4   42.93    4.60
   2  11   5  179.84    9.60
   2  11   6  101.92    7.11
   2  11   7   33.60    4.02
   2  11   8   36.38    4.31
   2  11   9   67.27    5.95
   2  11  10   87.11    6.89
   2  11  11  189.93   10.75
   2  11  12   12.48    2.64
   2  11  13   31.29    4.49
   2  11  14    0.11    0.99
   2  11  15    0.72    0.80
   2  12   3    2.34    1.35
   2  12   4   -0.25    0.71
   2  12   5   -1.43    1.03
   2  12   6   10.14    2.42
   2  12   7    3.40    1.44
   2  12   8    0.13    0.79
   2  12   9    5.89    1.83
   2  12  10   55.27    5.66
   2  12  11   13.83    2.89
   2  12  12   51.92    5.69
   2  12  13    5.52    1.90
   2  12  14    6.81    2.52
   2  12  15   16.38    3.57
   2  13   3  107.86    8.23
   2  13   4   61.39    6.07
   2  13   5   81.16    6.95
   2  13   6    2.36    1.31
   2  13   7    1.91    1.17
   2  13   8    3.19    1.53
   2  13   9   41.65    5.13
   2  13  10    6.19    1.97
   2  13  11   54.74    5.98
   2  13  12   39.45    5.15
   2  13  13    4.28    1.71
   2  13  14   23.11    4.03
   2  14   4   43.89    5.38
   2  14   5   34.96    4.81
   2  14   6   47.01    5.52
   2  14   7   34.96    4.85
   2  14   8    7.59    2.11
   2  14   9   37.20    4.98
   2  14  10    0.20    0.79
   2  14  11    2.43    1.61
   2  14  12    4.35    1.83
   2  14  13   17.05    3.52
   2  15   5   21.84    3.92
   2  15   6   21.00    4.08
   2  15   7   18.10    3.67
   2  15   8   22.70    4.07
   2  15   9    8.34    2.39
   2  15  10    0.79    1.25
   2  15  11   -1.51    1.77
   3 -15 -10    6.45    2.04
   3 -15  -9    0.59    1.05
   3 -15  -8    8.12    2.39
   3 -15  -7   -0.83    1.20
   3 -15  -6   21.88    3.86
   3 -15  -5    5.61    1.81
   3 -14  -8    5.78    1.98
   3 -14  -7   10.17    2.46
   3 -14  -6    0.06    0.87
   3 -14  -5    3.76    1.57
   3 -14  -4   16.66    3.31
   3 -14  -3    1.61    1.37
   3 -14  -2   24.38    4.12
   3 -14  -1   23.85    4.15
   3 -13  -6    6.20    1.79
   3 -13  -5   36.02    4.56
   3 -13  -4   17.43    3.17
   3 -13  -3   33.49    4.61
   3 -13  -2   -1.00    1.10
   3 -13  -1    0.63    1.48
   3 -13   0   35.97    4.92
   3 -13   1   15.45    3.31
   3 -13   2    2.42    1.14
   3 -13   3    5.00    1.85
   3 -13   4    6.70    2.23
   3 -12  -5    5.50    1.82
   3 -12  -4    9.80    2.43
   3 -12  -3   12.42    2.55
   3 -12  -2   38.09    4.61
   3 -12  -2   34.00    2.80
   3 -12  -1   75.13    6.68
   3 -12  -1   76.96    4.91
   3 -12   0   37.45    4.77
   3 -12   0   39.11    3.82
   3 -12   1  132.34    9.41
   3 -12   1  137.36    7.93
   3 -12   2    3.49    1.54
   3 -12   2    7.36    2.07
   3 -12   3   14.07    3.20
   3 -12   3    7.72    2.15
   3 -12   4    8.27    2.49
   3 -12   5    2.19    1.71
   3 -12   6    2.05    1.54
   3 -11  -7   26.73    3.28
   3 -11  -6   51.27    4.49
   3 -11  -5    3.11    1.15
   3 -11  -3  118.91    7.73
   3 -11  -3  122.74    4.19
   3 -11  -2  105.01    7.38
   3 -11  -2  106.83    4.92
   3 -11  -1    3.09    1.43
   3 -11  -1    4.85    1.22
   3 -11   0   10.16    2.41
   3 -11   0   11.17    2.03
   3 -11   1   29.25    3.40
   3 -11   1   22.37    3.59
   3 -11   2   33.72    3.96
   3 -11   2   29.68    4.28
   3 -11   3   48.77    5.70
   3 -11   3   39.70    4.61
   3 -11   4   12.84    2.67
   3 -11   5   36.26    4.82
   3 -11   6    0.73    1.07
   3 -10  -7  106.46    6.34
   3 -10  -6   12.01    2.24
   3 -10  -6   12.29    2.02
   3 -10  -5  105.52    6.76
   3 -10  -5  100.47    6.11
   3 -10  -4   42.00    4.26
   3 -10  -4   36.20    3.60
   3 -10  -3   65.90    2.62
   3 -10  -3   68.55    5.08
   3 -10  -2   16.09    2.69
   3 -10  -2   15.89    2.48
   3 -10  -2   14.91    1.59
   3 -10  -1   57.54    5.22
   3 -10  -1   57.52    3.74
   3 -10   0    5.00    1.71
   3 -10   0    7.31    1.44
   3 -10   1  119.90    8.01
   3 -10   1  112.12    6.50
   3 -10   2   75.38    6.51
   3 -10   2   72.57    5.52
   3 -10   3   63.92    6.18
   3 -10   3   62.77    5.52
   3 -10   4   77.80    7.06
   3 -10   4   79.42    6.57
   3 -10   5    8.50    2.30
   3 -10   6    8.33    2.43
   3 -10   7    0.11    0.82
   3  -9  -6  139.02    6.79
   3  -9  -5    8.68    1.83
   3  -9  -5    7.68    1.53
   3  -9  -4   46.20    4.25
   3  -9  -4   41.08    3.57
   3  -9  -3  117.85    7.02
   3  -9  -3  108.81    3.09
   3  -9  -3  113.66    6.19
   3  -9  -2   68.38    5.37
   3  -9  -2   69.38    3.35
   3  -9  -2   74.08    5.05
   3  -9  -1   48.33    4.51
   3  -9  -1   48.56    4.70
   3  -9  -1   49.77    3.24
   3  -9  -1   53.41    4.37
   3  -9   0    1.61    0.90
   3  -9   0   -0.19    0.72
   3  -9   0    1.01    0.34
   3  -9   1   -1.25    1.10
   3  -9   1   -0.44    0.72
   3  -9   2   34.19    4.15
   3  -9   2   31.41    3.40
   3  -9   3  199.71   10.53
   3  -9   3  184.39    9.32
   3  -9   4   45.90    5.13
   3  -9   4   47.06    4.81
   3  -9   5   56.11    5.56
   3  -9   6   32.69    4.52
   3  -9   7    1.53    1.00
   3  -9   8    4.15    1.84
   3  -8 -10    0.37    0.48
   3  -8  -9   30.42    2.87
   3  -8  -6   13.10    1.89
   3  -8  -5    3.44    1.17
   3  -8  -5    2.74    0.84
   3  -8  -4   18.15    2.55
   3  -8  -4   15.43    1.99
   3  -8  -3   28.15    3.22
   3  -8  -3   31.96    2.92
   3  -8  -2   33.69    3.53
   3  -8  -2   31.41    1.93
   3  -8  -2   32.11    3.02
   3  -8  -1   15.53    2.39
   3  -8  -1   15.61    2.20
   3  -8  -1   18.68    2.71
   3  -8  -1   12.14    1.44
   3  -8   0    0.32    0.59
   3  -8   0    0.25    0.61
   3  -8   0    0.01    0.51
   3  -8   0    0.34    0.32
   3  -8   1   -0.70    0.75
   3  -8   1    0.50    0.41
   3  -8   1    0.24    0.57
   3  -8   2   11.68    2.27
   3  -8   2   12.60    2.05
   3  -8   3   50.81    4.89
   3  -8   3   47.63    4.31
   3  -8   4   27.15    3.75
   3  -8   4   24.42    3.28
   3  -8   5   40.34    4.45
   3  -8   6   90.48    7.21
   3  -8   7  168.89   10.53
   3  -8   8   26.82    4.43
   3  -8   9   35.34    5.22
   3  -7 -10    5.15    1.47
   3  -7  -9    0.22    0.48
   3  -7  -8   63.90    4.07
   3  -7  -5  334.71    9.98
   3  -7  -4  340.66   11.70
   3  -7  -4  352.53   10.27
   3  -7  -3  496.75   14.74
   3  -7  -3  467.26   12.66
   3  -7  -2  443.28   13.89
   3  -7  -2  432.93    9.25
   3  -7  -2  430.93   12.14
   3  -7  -1  337.71   11.95
   3  -7  -1  336.58    8.79
   3  -7  -1  329.33   10.52
   3  -7   0   90.24    5.67
   3  -7   0   93.35    5.94
   3  -7   0   96.42    4.55
   3  -7   0  102.59    5.51
   3  -7   1  114.86    6.61
   3  -7   1  117.96    6.91
   3  -7   1  119.15    5.70
   3  -7   1  119.89    6.27
   3  -7   2    3.56    1.20
   3  -7   2    4.31    1.37
   3  -7   2    4.42    1.34
   3  -7   2    2.22    0.83
   3  -7   3   87.55    6.12
   3  -7   3   88.77    5.71
   3  -7   3   85.40    5.82
   3  -7   4    6.37    1.76
   3  -7   4    5.94    1.57
   3  -7   5   64.65    5.66
   3  -7   5   68.09    5.62
   3  -7   6   48.48    5.02
   3  -7   7    1.33    1.22
   3  -7   8   75.60    6.99
   3  -7   9    5.69    1.94
   3  -7  10    5.71    1.95
   3  -6 -10  131.37    7.51
   3  -6  -9   72.65    5.14
   3  -6  -8   40.24    3.43
   3  -6  -7   28.04    2.55
   3  -6  -4   46.92    3.75
   3  -6  -4   44.99    2.84
   3  -6  -3   64.78    4.43
   3  -6  -3   64.02    3.45
   3  -6  -2  579.25   15.97
   3  -6  -2  579.94   11.10
   3  -6  -2  559.10   13.77
   3  -6  -1 1196.89   26.93
   3  -6  -1 1184.58   22.58
   3  -6  -1 1172.44   24.64
   3  -6   0  293.95   10.63
   3  -6   0  286.44    8.26
   3  -6   0  287.85    9.28
   3  -6   1  294.98   10.61
   3  -6   1  297.73   11.08
   3  -6   1  288.68    9.15
   3  -6   1  302.94    9.98
   3  -6   2    0.10    0.78
   3  -6   2    1.56    0.81
   3  -6   2    0.27    0.31
   3  -6   3    8.99    1.85
   3  -6   3   10.11    2.14
   3  -6   3    7.47    1.50
   3  -6   4   21.18    2.85
   3  -6   4   17.84    2.65
   3  -6   5   31.78    3.73
   3  -6   5   27.72    3.42
   3  -6   6    7.57    1.85
   3  -6   7  128.11    8.46
   3  -6   8   22.98    3.69
   3  -6   9   57.96    6.21
   3  -6  10   44.81    5.69
   3  -5  -9   69.90    5.17
   3  -5  -8   34.39    3.35
   3  -5  -7   29.32    2.82
   3  -5  -6   57.53    3.54
   3  -5  -4  171.56    5.57
   3  -5  -3   80.27    4.66
   3  -5  -3   78.76    3.45
   3  -5  -2  382.08   11.60
   3  -5  -2  373.22    9.43
   3  -5  -1  131.01    6.12
   3  -5  -1  124.73    3.96
   3  -5  -1  121.49    4.79
   3  -5   0  385.01   11.93
   3  -5   0  380.64    9.61
   3  -5   0  372.65   10.23
   3  -5   1  391.25   12.45
   3  -5   1  390.94   10.57
   3  -5   1  410.89   11.28
   3  -5   2   17.18    2.26
   3  -5   2   15.57    2.21
   3  -5   2   16.48    1.97
   3  -5   3    0.52    0.54
   3  -5   3    0.36    0.40
   3  -5   3    1.11    0.62
   3  -5   4   -0.01    0.58
   3  -5   4    0.61    0.56
   3  -5   4    0.87    0.70
   3  -5   5    9.89    2.03
   3  -5   5    8.30    1.82
   3  -5   5    8.87    1.83
   3  -5   6    4.61    1.46
   3  -5   7    1.01    1.04
   3  -5   8   58.35    5.67
   3  -5   9   57.52    5.91
   3  -5  10    6.09    2.11
   3  -5  11  104.58    8.92
   3  -4  -9    6.34    1.61
   3  -4  -8  293.79   11.03
   3  -4  -7  699.40   18.18
   3  -4  -6   37.29    3.04
   3  -4  -5   22.62    2.10
   3  -4  -3  614.92   15.53
   3  -4  -3  601.80   12.38
   3  -4  -2   73.35    4.27
   3  -4  -2   76.57    2.97
   3  -4  -1   95.01    4.86
   3  -4  -1   95.43    3.14
   3  -4  -1   93.75    3.58
   3  -4   0   95.75    5.04
   3  -4   0  110.02    3.92
   3  -4   0  106.37    4.19
   3  -4   1   56.66    3.14
   3  -4   1   57.66    3.95
   3  -4   2 1023.56   22.28
   3  -4   2  945.72   21.00
   3  -4   2  977.60   22.99
   3  -4   3   45.69    3.52
   3  -4   3   46.59    3.48
   3  -4   3   42.89    3.70
   3  -4   4   28.49    2.89
   3  -4   4   23.18    2.88
   3  -4   4   27.60    2.87
   3  -4   5    8.98    1.73
   3  -4   5    9.31    2.00
   3  -4   5    8.24    1.72
   3  -4   6    4.95    1.51
   3  -4   6    5.33    1.51
   3  -4   7   89.24    6.44
   3  -4   8   53.03    5.25
   3  -4   9    6.11    1.88
   3  -4  10  113.57    8.66
   3  -4  11    1.17    1.36
   3  -4  12   44.46    5.81
   3  -3  -9    2.67    1.08
   3  -3  -8  109.44    6.62
   3  -3  -7  258.77    9.98
   3  -3  -6  343.06   11.04
   3  -3  -5  288.98    9.14
   3  -3  -2   -0.07    0.27
   3  -3  -2    0.10    0.11
   3  -3  -1   86.33    4.33
   3  -3  -1   79.37    2.68
   3  -3   0    1.44    0.53
   3  -3   0    1.66    0.43
   3  -3   0    0.51    0.29
   3  -3   1  368.82    9.25
   3  -3   1  383.15   10.92
   3  -3   2  481.70   12.11
   3  -3   2  476.04   13.08
   3  -3   3 2112.38   41.24
   3  -3   3 2161.44   41.33
   3  -3   3 2226.76   42.76
   3  -3   4 1006.35   22.85
   3  -3   4 1003.55   23.24
   3  -3   4 1092.36   24.64
   3  -3   5 1006.07   23.34
   3  -3   5 1003.94   24.80
   3  -3   5 1035.65   24.40
   3  -3   6   30.13    3.41
   3  -3   6   32.97    3.50
   3  -3   7   13.13    2.36
   3  -3   8   19.72    3.06
   3  -3   9   27.49    3.83
   3  -3  10   -0.04    0.95
   3  -3  11   42.23    5.32
   3  -3  12   49.50    5.92
   3  -2  -8   21.55    2.94
   3  -2  -7   99.29    6.06
   3  -2  -6  520.43   15.00
   3  -2  -5  116.57    5.67
   3  -2  -1  114.91    4.82
   3  -2   0  216.74    5.78
   3  -2   0  213.19    6.99
   3  -2   1   49.60    2.59
   3  -2   1   47.05    3.05
   3  -2   2  258.62    7.62
   3  -2   2  279.84    8.52
   3  -2   3  451.02   11.62
   3  -2   3  462.16   12.22
   3  -2   3  479.05   12.75
   3  -2   4 1757.97   34.13
   3  -2   4 1824.48   35.90
   3  -2   5   92.22    4.80
   3  -2   5   94.41    5.48
   3  -2   5   98.77    5.42
   3  -2   6  138.02    7.01
   3  -2   7   16.05    2.46
   3  -2   8   15.88    2.60
   3  -2   9   11.82    2.40
   3  -2  10    2.06    1.28
   3  -2  11    9.00    2.45
   3  -2  12    5.42    2.14
   3  -2  13   46.36    5.92
   3  -1  -8   35.04    3.90
   3  -1  -7   68.60    5.21
   3  -1  -6  183.12    8.29
   3  -1  -5  474.86   13.69
   3  -1  -4  452.05   12.46
   3  -1   0    0.77    0.38
   3  -1   1    8.13    1.09
   3  -1   1    2.70    0.61
   3  -1   2    5.07    0.99
   3  -1   2    8.49    1.14
   3  -1   3  719.91   15.17
   3  -1   3  691.31   15.79
   3  -1   3  713.95   16.29
   3  -1   4 1064.44   22.01
   3  -1   4 1093.18   23.66
   3  -1   4 1134.45   23.67
   3  -1   5 1051.12   22.18
   3  -1   5 1062.36   23.76
   3  -1   5 1074.76   23.99
   3  -1   6 2144.04   43.15
   3  -1   7  422.92   13.84
   3  -1   8   58.50    4.85
   3  -1   9   11.96    2.28
   3  -1  10   30.39    3.95
   3  -1  11   20.42    3.45
   3  -1  12   47.06    5.51
   3  -1  13    0.42    0.94
   3  -1  14   58.99    6.87
   3   0  -7   -0.20    0.59
   3   0  -6    8.34    1.75
   3   0  -5  224.52    8.99
   3   0  -4   82.53    4.79
   3   0   0  638.05   11.82
   3   0   1  767.81   15.09
   3   0   1  844.38   16.48
   3   0   2  238.76    6.60
   3   0   2  219.44    6.62
   3   0   3   24.71    1.91
   3   0   3   10.91    1.36
   3   0   4   83.01    3.37
   3   0   4   93.66    4.43
   3   0   4   73.42    3.92
   3   0   5  991.67   19.82
   3   0   5  956.01   21.39
   3   0   5  978.54   21.97
   3   0   6   54.39    4.04
   3   0   7  405.58   13.28
   3   0   8  278.57   11.14
   3   0   9  131.51    7.75
   3   0  10   56.65    5.25
   3   0  11    0.54    0.81
   3   0  12   -0.21    0.98
   3   0  13   50.39    5.87
   3   0  14   -1.92    1.67
   3   1  -6   37.84    3.83
   3   1  -5    0.45    0.55
   3   1  -4   31.60    3.06
   3   1  -1  738.92   14.57
   3   1   0  135.17    3.97
   3   1   1    8.62    0.90
   3   1   2  107.34    3.68
   3   1   2  111.04    3.99
   3   1   3    1.89    0.48
   3   1   3    1.90    0.58
   3   1   4   41.63    1.87
   3   1   4   39.86    2.40
   3   1   4   39.87    2.83
   3   1   5  231.53    7.22
   3   1   5  219.76    7.77
   3   1   6  307.83    9.99
   3   1   7    7.98    1.57
   3   1   8   27.19    3.12
   3   1   9  298.25   11.95
   3   1  10   95.18    6.72
   3   1  11  201.90   10.64
   3   1  12    7.93    2.46
   3   1  13   13.74    3.05
   3   1  14    1.02    1.21
   3   1  15    8.30    2.45
   3   2  -6    0.80    0.68
   3   2  -5    8.45    1.77
   3   2  -4   10.22    1.79
   3   2  -1  305.79    8.05
   3   2   0 2332.14   41.61
   3   2   1  864.56   17.36
   3   2   2  224.08    6.52
   3   2   3   49.18    2.05
   3   2   3   48.51    2.85
   3   2   4    4.18    0.63
   3   2   4    5.06    0.96
   3   2   4    3.84    0.86
   3   2   5  110.98    4.07
   3   2   5  101.00    4.88
   3   2   6    7.28    1.31
   3   2   7  226.67    8.61
   3   2   8  269.53   10.02
   3   2   9  124.22    6.92
   3   2  10  351.71   13.28
   3   2  11    8.38    2.03
   3   2  12   11.07    2.34
   3   2  13    2.40    1.33
   3   2  14   10.94    2.65
   3   2  15    5.69    1.81
   3   3  -5  217.88    9.85
   3   3  -1  226.60    7.28
   3   3   0  919.25   19.26
   3   3   1  363.47    9.53
   3   3   2  312.08    8.66
   3   3   3  590.70   13.98
   3   3   4   58.44    3.49
   3   3   4   53.43    1.80
   3   3   5  189.24    7.24
   3   3   5  194.23    6.91
   3   3   5  187.25    4.86
   3   3   6   15.60    2.05
   3   3   6   18.91    2.13
   3   3   7   23.58    2.48
   3   3   8  205.12    8.46
   3   3   9  527.18   15.77
   3   3  10   31.09    3.51
   3   3  11  238.89   10.76
   3   3  12   92.63    6.75
   3   3  13   21.06    3.45
   3   3  14   55.69    5.78
   3   3  15   -0.16    0.74
   3   3  16    2.78    1.52
   3   4  -1  797.73   18.49
   3   4   0  552.99   13.83
   3   4   1 1018.53   21.72
   3   4   2 1286.47   26.18
   3   4   3  214.44    5.32
   3   4   3  222.04    7.51
   3   4   4  299.66    9.42
   3   4   5  190.06    7.38
   3   4   6  109.21    5.73
   3   4   6  108.06    5.22
   3   4   6  113.24    3.33
   3   4   7   57.93    4.30
   3   4   7   58.57    3.96
   3   4   8   90.88    5.80
   3   4   8   89.80    5.23
   3   4   9   21.85    2.65
   3   4  10   37.38    3.72
   3   4  11   30.40    3.53
   3   4  12    2.31    1.14
   3   4  13   37.54    4.43
   3   4  14    5.95    1.95
   3   4  15   33.83    4.57
   3   4  16    1.10    0.85
   3   5   0   56.21    3.59
   3   5   0   53.16    3.71
   3   5   1  859.40   18.87
   3   5   1  883.42   20.16
   3   5   2  546.24   12.56
   3   5   2  548.07   14.34
   3   5   3  225.79    6.23
   3   5   3  233.48    8.20
   3   5   4   16.25    2.00
   3   5   5   65.60    4.26
   3   5   6   20.38    2.44
   3   5   7    0.98    0.27
   3   5   7    1.02    0.68
   3   5   7    0.88    0.39
   3   5   8  127.90    6.97
   3   5   8  127.58    6.24
   3   5   9   58.66    4.92
   3   5   9   64.80    4.57
   3   5  10   26.61    3.46
   3   5  10   30.37    3.29
   3   5  11   18.27    3.06
   3   5  11   15.91    2.52
   3   5  12  123.54    8.37
   3   5  12  122.61    7.57
   3   5  13    4.78    1.54
   3   5  13    3.16    1.45
   3   5  14   82.31    7.45
   3   5  14   78.25    6.62
   3   5  15   11.61    2.97
   3   5  15    8.63    2.39
   3   5  16    4.36    2.00
   3   5  16    1.93    1.62
   3   5  17    6.97    2.45
   3   6  -3   11.16    2.04
   3   6  -2   62.96    4.69
   3   6  -1   97.06    5.56
   3   6   0    0.55    0.56
   3   6   0    0.03    0.52
   3   6   1  214.21    7.66
   3   6   1  221.12    8.60
   3   6   2  161.59    6.03
   3   6   2  163.69    7.13
   3   6   3    8.59    1.16
   3   6   3   10.75    1.76
   3   6   4  430.53   12.89
   3   6   5  818.80   20.31
   3   6   6  863.65   21.58
   3   6   7  474.11   14.69
   3   6   8   48.29    4.27
   3   6   8   50.79    1.91
   3   6   9  174.95    8.82
   3   6   9  182.08    7.91
   3   6  10    0.81    0.66
   3   6  10    0.68    0.46
   3   6  11    4.83    1.56
   3   6  11    3.75    1.25
   3   6  12    3.25    1.30
   3   6  12    1.39    0.71
   3   6  13  101.81    7.86
   3   6  13  106.06    7.20
   3   6  14    7.38    2.13
   3   6  14    5.86    1.79
   3   6  15   25.95    4.27
   3   6  15   24.42    3.77
   3   6  16   83.95    8.14
   3   6  16   80.00    7.21
   3   6  17    6.85    2.38
   3   7  -2    1.17    0.64
   3   7  -1    2.50    0.93
   3   7   0   93.81    5.43
   3   7   0   87.54    5.61
   3   7   1   22.81    2.47
   3   7   1   21.79    2.66
   3   7   2   85.36    4.54
   3   7   2   79.38    5.16
   3   7   3    0.29    0.34
   3   7   3    1.60    0.76
   3   7   4  308.40   11.02
   3   7   5  196.09    8.52
   3   7   6  534.61   15.97
   3   7   7  198.66    8.97
   3   7   8  120.66    7.04
   3   7   9    1.43    0.75
   3   7   9    0.61    0.22
   3   7  10   52.31    4.91
   3   7  10   50.72    2.54
   3   7  10   58.04    4.43
   3   7  11    5.18    1.78
   3   7  11    3.31    1.20
   3   7  12   24.96    3.68
   3   7  12   22.16    2.93
   3   7  13   15.90    3.02
   3   7  13   14.23    2.54
   3   7  14    0.99    1.10
   3   7  14   -0.44    0.72
   3   7  15    5.72    2.18
   3   7  15    0.94    0.92
   3   7  16    0.79    1.00
   3   7  16    0.81    1.18
   3   7  17   20.77    3.83
   3   8   0  214.99    9.19
   3   8   0  208.65    9.63
   3   8   1  601.51   16.63
   3   8   1  611.98   17.98
   3   8   2  150.66    6.75
   3   8   2  146.34    7.62
   3   8   3   51.94    4.35
   3   8   4    4.64    1.35
   3   8   5  564.49   16.84
   3   8   6  266.28   10.74
   3   8   7  668.36   19.34
   3   8   8  473.33   15.78
   3   8   9   22.22    3.13
   3   8  10  232.64   11.03
   3   8  11   60.31    2.73
   3   8  11   65.33    5.82
   3   8  12   51.07    2.99
   3   8  12   54.82    5.51
   3   8  13   12.19    2.68
   3   8  13   11.42    2.27
   3   8  14   29.71    4.45
   3   8  14   38.65    4.33
   3   8  15   17.08    3.39
   3   8  15   21.17    3.35
   3   8  16   25.68    4.41
   3   8  16   26.10    3.83
   3   9   1  114.35    6.54
   3   9   1  114.48    7.14
   3   9   2  212.16    8.79
   3   9   2  212.52    9.87
   3   9   3   93.49    6.31
   3   9   4   10.28    2.03
   3   9   5  102.52    6.56
   3   9   6   35.88    3.83
   3   9   7   55.96    4.88
   3   9   8    2.10    0.77
   3   9   9  112.73    7.42
   3   9  10   36.27    4.26
   3   9  11   41.99    4.72
   3   9  12    0.83    0.70
   3   9  13   -0.27    0.66
   3   9  14    2.75    1.49
   3   9  15   10.57    2.66
   3  10   1   78.23    6.18
   3  10   2   58.20    5.30
   3  10   3    2.92    1.11
   3  10   4   10.78    2.20
   3  10   5   80.65    6.11
   3  10   6   42.56    4.46
   3  10   7   20.93    3.15
   3  10   8   -0.95    0.94
   3  10   9   38.29    4.36
   3  10  10   98.62    7.31
   3  10  11   65.11    6.09
   3  10  12   71.73    6.59
   3  10  13   45.46    5.46
   3  10  14    2.85    1.36
   3  10  15   18.12    3.67
   3  11   2   98.01    7.22
   3  11   3  134.61    8.55
   3  11   4    1.95    1.19
   3  11   5    0.87    0.86
   3  11   6   78.02    6.32
   3  11   7   37.34    4.36
   3  11   8   38.45    4.49
   3  11   9    3.43    1.38
   3  11  10   16.20    2.99
   3  11  11   67.79    6.43
   3  11  12  117.99    8.70
   3  11  13   37.86    5.01
   3  11  14   57.53    6.40
   3  11  15    2.58    1.52
   3  12   2   35.42    4.57
   3  12   3   31.40    4.28
   3  12   4   73.51    6.45
   3  12   5   83.15    6.86
   3  12   6   37.99    4.64
   3  12   7   56.52    5.67
   3  12   8    2.35    1.28
   3  12   9   42.13    4.99
   3  12  10    0.62    0.89
   3  12  11   32.98    4.49
   3  12  12   14.30    3.03
   3  12  13   76.80    7.40
   3  12  14    8.55    2.59
   3  13   3   42.06    5.17
   3  13   4   54.32    5.87
   3  13   5   65.97    6.36
   3  13   6   84.04    7.29
   3  13   7    9.81    2.47
   3  13   8   23.60    3.90
   3  13   9    3.49    1.69
   3  13  10    6.39    2.10
   3  13  11    1.92    1.39
   3  13  12   49.60    5.92
   3  13  13    1.75    1.34
   3  14   4   14.91    3.16
   3  14   5   64.28    6.66
   3  14   6   89.61    7.78
   3  14   7  112.47    8.78
   3  14   8   18.92    3.49
   3  14   9    3.82    1.95
   3  14  10    0.13    1.06
   3  14  11   20.64    3.88
   3  14  12    0.03    0.93
   3  15   5    9.55    2.82
   3  15   6    9.82    2.83
   3  15   7    9.20    2.62
   3  15   8   24.95    4.30
   3  15   9   41.61    5.57
   4 -14  -7   34.38    4.88
   4 -14  -6    2.14    1.32
   4 -14  -5    6.66    2.16
   4 -14  -4    0.52    0.81
   4 -14  -3    2.83    1.38
   4 -13  -5   11.67    2.81
   4 -13  -4   11.67    2.68
   4 -13  -3    2.88    1.53
   4 -13  -2   31.88    4.65
   4 -13  -1    4.11    1.82
   4 -13   0   43.89    5.62
   4 -12  -4    1.18    0.72
   4 -12  -3    6.16    1.86
   4 -12  -2    3.26    1.45
   4 -12  -1    9.45    2.46
   4 -12   0   -0.60    1.15
   4 -12   0   -0.74    0.70
   4 -12   1   26.41    4.38
   4 -12   1   26.74    3.36
   4 -12   2   35.65    5.01
   4 -12   2   32.78    3.96
   4 -12   3    4.27    1.62
   4 -12   3    4.47    1.69
   4 -12   4   16.28    3.08
   4 -12   5    2.92    1.64
   4 -12   6    2.54    1.30
   4 -11  -6   27.15    3.17
   4 -11  -5   31.95    3.49
   4 -11  -4  119.59    7.01
   4 -11  -3  105.39    7.61
   4 -11  -2    3.40    1.50
   4 -11  -2    4.21    0.86
   4 -11  -1   -1.96    1.33
   4 -11  -1   -0.07    0.39
   4 -11   0  102.44    7.80
   4 -11   0  102.54    5.87
   4 -11   1  184.46   10.90
   4 -11   1  185.79    8.78
   4 -11   2   45.09    5.37
   4 -11   2   46.42    4.50
   4 -11   3   78.69    7.24
   4 -11   3   70.15    5.92
   4 -11   4   11.12    2.82
   4 -11   4   13.00    2.75
   4 -11   5    5.16    1.85
   4 -11   6    7.06    2.35
   4 -10  -6    5.43    1.42
   4 -10  -5    5.67    1.31
   4 -10  -4    6.59    1.51
   4 -10  -3    3.40    1.09
   4 -10  -2    4.38    1.29
   4 -10  -2    3.22    1.25
   4 -10  -2    3.78    0.74
   4 -10  -1   20.73    3.20
   4 -10  -1   19.03    2.01
   4 -10   0   18.55    3.02
   4 -10   0   19.35    2.36
   4 -10   1   33.08    4.22
   4 -10   1   43.15    3.88
   4 -10   2   12.77    2.71
   4 -10   2   15.83    2.53
   4 -10   3    0.40    0.88
   4 -10   3    0.34    0.67
   4 -10   4   27.11    4.19
   4 -10   4   25.66    3.70
   4 -10   5   43.92    5.60
   4 -10   5   40.75    4.93
   4 -10   6    2.54    1.37
   4 -10   7   18.19    3.53
   4  -9  -6  101.37    5.53
   4  -9  -5  225.37    8.58
   4  -9  -4  138.95    6.59
   4  -9  -3  178.98    7.80
   4  -9  -2   61.11    2.89
   4  -9  -2   60.05    4.43
   4  -9  -1    0.35    0.67
   4  -9  -1   -0.42    0.64
   4  -9  -1    0.29    0.24
   4  -9   0    8.51    2.01
   4  -9   0    6.96    1.60
   4  -9   0    6.71    1.37
   4  -9   1    6.52    1.82
   4  -9   1    4.95    1.21
   4  -9   2   12.75    2.61
   4  -9   2    8.49    1.70
   4  -9   3   18.01    3.13
   4  -9   3   20.47    2.93
   4  -9   4   58.88    5.85
   4  -9   4   54.09    5.07
   4  -9   5   29.46    4.29
   4  -9   5   27.70    3.85
   4  -9   6  132.73    9.02
   4  -9   7   34.03    4.74
   4  -9   8    9.09    2.80
   4  -8  -5   -0.70    0.58
   4  -8  -5   -0.55    0.63
   4  -8  -4  179.21    8.77
   4  -8  -4  169.36    6.86
   4  -8  -3  180.16    8.99
   4  -8  -3  176.38    7.15
   4  -8  -2  289.11   11.76
   4  -8  -2  277.56    6.96
   4  -8  -2  277.13    9.61
   4  -8  -1  124.28    7.47
   4  -8  -1  118.68    4.76
   4  -8  -1  127.68    6.32
   4  -8   0   27.88    3.37
   4  -8   0   28.76    2.56
   4  -8   0   26.52    2.92
   4  -8   1  165.30    8.74
   4  -8   1  165.89    7.20
   4  -8   1  151.17    7.62
   4  -8   2    0.61    0.73
   4  -8   2    0.31    0.62
   4  -8   2    0.67    0.71
   4  -8   3   -1.01    1.29
   4  -8   3    0.08    0.56
   4  -8   4    3.75    1.41
   4  -8   4    4.28    1.38
   4  -8   5   24.08    3.64
   4  -8   5   22.63    3.31
   4  -8   6    0.46    0.75
   4  -8   7   18.83    3.42
   4  -8   8   18.00    3.56
   4  -8   9    0.75    0.94
   4  -7  -5   64.97    3.65
   4  -7  -4   17.32    2.57
   4  -7  -4   15.50    1.74
   4  -7  -3  118.81    6.85
   4  -7  -3  120.25    5.20
   4  -7  -2  157.65    8.00
   4  -7  -2  154.62    6.24
   4  -7  -1  241.36   10.22
   4  -7  -1  222.38    6.66
   4  -7  -1  223.36    8.09
   4  -7   0  134.17    7.58
   4  -7   0  125.67    5.23
   4  -7   0  131.09    6.21
   4  -7   1    4.67    1.61
   4  -7   1    5.53    1.28
   4  -7   1    6.80    1.71
   4  -7   1    5.39    1.16
   4  -7   2   11.37    1.98
   4  -7   2   10.52    2.09
   4  -7   2   12.39    1.93
   4  -7   3   12.47    2.36
   4  -7   3   10.75    1.95
   4  -7   3   10.74    1.93
   4  -7   4   22.66    3.17
   4  -7   4   22.17    2.95
   4  -7   5   -0.94    1.23
   4  -7   5   -0.20    0.76
   4  -7   6   35.47    4.32
   4  -7   6   34.88    4.21
   4  -7   7    8.58    2.27
   4  -7   8    5.42    2.22
   4  -7   9   46.36    5.67
   4  -7  10   -0.95    1.17
   4  -6 -10  133.48    7.73
   4  -6  -4   18.33    2.49
   4  -6  -4   15.75    1.53
   4  -6  -3  194.51    8.55
   4  -6  -3  191.94    6.19
   4  -6  -2  298.21   11.04
   4  -6  -2  300.54    8.56
   4  -6  -1 1033.30   24.88
   4  -6  -1 1021.52   19.99
   4  -6  -1  995.21   21.51
   4  -6   0  671.95   18.63
   4  -6   0  630.60   14.63
   4  -6   0  647.06   15.78
   4  -6   1   87.88    5.88
   4  -6   1   95.93    4.78
   4  -6   1   87.73    4.86
   4  -6   2  101.57    6.21
   4  -6   2  111.81    6.90
   4  -6   2  117.30    5.89
   4  -6   2  111.96    5.90
   4  -6   3   30.10    3.36
   4  -6   3   32.99    3.82
   4  -6   3   31.43    3.15
   4  -6   4    7.33    1.70
   4  -6   4    6.63    1.56
   4  -6   5   -0.04    0.70
   4  -6   5    0.90    0.80
   4  -6   6   -1.20    1.26
   4  -6   6   -0.14    0.69
   4  -6   7    3.68    1.33
   4  -6   8   35.85    4.60
   4  -6   9    6.48    2.09
   4  -6  10   53.67    6.19
   4  -5  -9  113.64    6.92
   4  -5  -3  173.05    7.74
   4  -5  -3  163.99    4.96
   4  -5  -2   -0.16    0.37
   4  -5  -2   -0.04    0.33
   4  -5  -1   90.79    5.41
   4  -5  -1   79.59    3.24
   4  -5  -1   77.62    3.58
   4  -5   0   11.88    1.95
   4  -5   0   12.00    1.40
   4  -5   0   10.99    1.40
   4  -5   1  252.02    9.90
   4  -5   1  230.58    7.57
   4  -5   1  244.80    8.05
   4  -5   2   90.49    5.38
   4  -5   2   85.62    4.77
   4  -5   2   94.17    5.88
   4  -5   3  371.26   12.37
   4  -5   3  366.80   11.83
   4  -5   3  354.60   13.03
   4  -5   4  215.08    9.33
   4  -5   4  216.00    9.11
   4  -5   4  221.76   10.22
   4  -5   5   71.61    5.26
   4  -5   5   71.51    5.27
   4  -5   6   31.63    3.64
   4  -5   6   36.41    3.92
   4  -5   7    4.46    1.43
   4  -5   8    0.99    0.71
   4  -5   9   80.22    7.05
   4  -5  10    8.00    2.39
   4  -5  11    9.23    2.64
   4  -4  -9   77.26    5.87
   4  -4  -8    1.11    0.72
   4  -4  -2    2.35    0.78
   4  -4  -2    0.91    0.28
   4  -4  -1  188.74    7.69
   4  -4  -1  170.91    5.00
   4  -4   0  290.43   10.08
   4  -4   0  287.36    7.86
   4  -4   0  297.64    7.84
   4  -4   1  137.65    5.31
   4  -4   1  135.27    6.63
   4  -4   2  226.78    7.84
   4  -4   2  247.63    9.47
   4  -4   3   38.25    3.30
   4  -4   3   50.53    3.71
   4  -4   3   41.97    3.84
   4  -4   4  104.84    5.86
   4  -4   4  105.91    5.91
   4  -4   4  117.16    6.83
   4  -4   5   49.52    4.09
   4  -4   5   51.15    4.30
   4  -4   5   53.25    4.67
   4  -4   6   44.37    4.04
   4  -4   6   40.97    4.06
   4  -4   7   10.13    2.16
   4  -4   8   55.88    5.36
   4  -4   9   -1.04    1.32
   4  -4  10    0.74    1.12
   4  -4  11   30.90    4.68
   4  -4  12   -0.86    0.96
   4  -3  -8    5.22    1.64
   4  -3  -7   46.84    4.07
   4  -3  -2  323.19   10.48
   4  -3  -1   30.86    2.77
   4  -3  -1   28.45    1.34
   4  -3   0   10.05    1.60
   4  -3   0    7.75    1.04
   4  -3   1  318.14    8.81
   4  -3   1  327.83   10.45
   4  -3   2  625.63   14.95
   4  -3   2  641.45   16.61
   4  -3   3  381.25   11.27
   4  -3   3  373.08   11.08
   4  -3   3  393.55   12.18
   4  -3   4  252.37    8.98
   4  -3   4  265.64    9.54
   4  -3   4  245.41    9.84
   4  -3   5  305.41   10.45
   4  -3   5  310.45   11.22
   4  -3   5  298.42   11.33
   4  -3   6  128.13    6.58
   4  -3   6  120.59    7.30
   4  -3   6  127.49    7.16
   4  -3   7   20.71    3.04
   4  -3   7   16.16    2.56
   4  -3   8   25.63    3.52
   4  -3   9    1.81    1.16
   4  -3  10    8.18    2.38
   4  -3  11    0.57    1.25
   4  -3  12   29.36    4.70
   4  -2  -7   58.88    4.76
   4  -2  -1  239.55    8.27
   4  -2   0   23.44    2.28
   4  -2   1  282.17    8.91
   4  -2   1  255.67    7.60
   4  -2   2    4.76    1.07
   4  -2   2    8.30    1.30
   4  -2   3  284.45    8.99
   4  -2   3  295.44    9.71
   4  -2   4  685.38   16.39
   4  -2   4  666.82   16.95
   4  -2   4  710.70   17.90
   4  -2   5 1577.76   31.72
   4  -2   5 1528.42   32.99
   4  -2   5 1525.24   33.15
   4  -2   6  287.47    9.82
   4  -2   6  288.55   11.19
   4  -2   6  283.13   11.08
   4  -2   7   92.54    6.21
   4  -2   7   81.70    5.82
   4  -2   8   55.53    4.99
   4  -2   8   55.11    5.10
   4  -2   9    1.58    1.35
   4  -2  10    1.69    1.23
   4  -2  11    0.89    0.71
   4  -2  12    4.11    1.93
   4  -2  13   13.23    3.21
   4  -1  -7    9.63    2.01
   4  -1   0  789.17   18.15
   4  -1   0  822.87   14.73
   4  -1   1    2.47    0.68
   4  -1   2    1.43    0.56
   4  -1   2    0.77    0.45
   4  -1   3   21.14    2.07
   4  -1   3   12.62    1.75
   4  -1   4  365.03    9.77
   4  -1   4  349.04   10.64
   4  -1   4  359.03   10.77
   4  -1   5  330.01    9.48
   4  -1   5  311.18   10.38
   4  -1   5  319.17   10.51
   4  -1   6  160.80    6.41
   4  -1   6  151.55    7.28
   4  -1   6  163.16    7.54
   4  -1   7   35.43    3.62
   4  -1   7   36.78    3.74
   4  -1   8    1.42    0.84
   4  -1   8    1.26    0.82
   4  -1   9  150.23    8.49
   4  -1   9  148.07    8.72
   4  -1  10   70.29    6.27
   4  -1  11   34.78    4.57
   4  -1  12    3.03    1.54
   4  -1  13    1.52    0.94
   4  -1  14    3.17    1.39
   4   0  -1  708.14   13.24
   4   0   0  228.53    5.33
   4   0   1  416.99    9.03
   4   0   1  396.34   10.46
   4   0   2   64.22    3.40
   4   0   3   26.08    2.17
   4   0   3   26.38    2.30
   4   0   4    2.38    0.66
   4   0   4    2.00    0.55
   4   0   4    0.78    0.53
   4   0   5  248.01    7.23
   4   0   5  231.87    8.61
   4   0   5  244.44    8.36
   4   0   6  210.08    6.92
   4   0   6  219.85    8.40
   4   0   6  203.49    8.37
   4   0   7   57.37    4.27
   4   0   7   65.95    4.68
   4   0   8  271.29   10.59
   4   0   8  264.08   10.93
   4   0   9   62.93    5.36
   4   0  10  253.93   11.90
   4   0  11  103.87    7.67
   4   0  12   14.16    3.01
   4   0  13    1.55    1.24
   4   0  14   33.84    4.98
   4   1  -1    7.64    0.91
   4   1   0   41.06    2.11
   4   1   1  598.32   12.62
   4   1   2  596.25   13.00
   4   1   2  580.15   13.11
   4   1   3  253.07    7.61
   4   1   3  250.28    8.02
   4   1   3  243.09    7.13
   4   1   4  169.67    6.60
   4   1   4  160.62    5.63
   4   1   5  214.52    5.90
   4   1   5  216.27    7.99
   4   1   5  207.30    6.98
   4   1   6   13.25    1.33
   4   1   6   11.88    1.68
   4   1   6   18.61    2.31
   4   1   7    4.40    1.10
   4   1   7    3.41    0.92
   4   1   8   19.69    2.47
   4   1   8   19.67    2.64
   4   1   9  143.55    7.79
   4   1  10   67.29    5.52
   4   1  11   82.17    6.50
   4   1  12   31.82    4.24
   4   1  13    0.64    0.64
   4   1  14   60.98    6.44
   4   1  15    1.47    1.12
   4   2  -1 1098.28   21.87
   4   2   0 1213.13   23.57
   4   2   1  390.90    9.67
   4   2   2  270.02    7.71
   4   2   3   18.37    1.80
   4   2   3   18.71    1.48
   4   2   4  155.57    6.11
   4   2   4  151.63    6.15
   4   2   4  145.55    4.78
   4   2   5   91.57    2.84
   4   2   5   87.05    3.77
   4   2   5  108.76    5.26
   4   2   6   25.79    2.15
   4   2   6   29.15    2.82
   4   2   7    0.98    0.54
   4   2   7   -0.45    0.74
   4   2   8   86.63    4.84
   4   2   8   76.33    5.21
   4   2   9   24.61    3.01
   4   2  10   37.62    3.97
   4   2  11   25.68    3.57
   4   2  12    1.41    1.12
   4   2  13   43.39    5.16
   4   2  14    2.22    0.85
   4   2  15    8.41    2.51
   4   3  -1    3.59    0.85
   4   3   0  214.89    7.03
   4   3   1  815.53   17.78
   4   3   2  326.77    9.23
   4   3   3 1485.81   29.52
   4   3   4  354.50   10.46
   4   3   4  357.78    8.00
   4   3   5   33.13    2.89
   4   3   5   34.62    2.91
   4   3   5   33.12    1.84
   4   3   6   94.21    5.38
   4   3   6   89.33    3.56
   4   3   6   91.00    5.05
   4   3   7   44.47    2.72
   4   3   7   37.17    3.36
   4   3   8    0.16    0.34
   4   3   8    0.84    0.61
   4   3   9   86.16    5.76
   4   3  10   81.31    5.85
   4   3  11    5.94    1.78
   4   3  12   80.34    6.48
   4   3  13   13.22    2.72
   4   3  14    7.82    2.27
   4   3  15   20.91    3.79
   4   4  -1   87.89    4.68
   4   4   0    8.08    1.34
   4   4   1   35.67    2.82
   4   4   2  141.10    5.88
   4   4   3  307.59    9.59
   4   4   4   77.16    4.43
   4   4   4   80.59    2.45
   4   4   5    2.55    0.81
   4   4   6  134.94    6.61
   4   4   6  136.63    3.77
   4   4   7  351.63   11.94
   4   4   7  350.15   11.33
   4   4   7  329.50    8.02
   4   4   8   42.54    4.02
   4   4   8   41.12    3.63
   4   4   8   37.17    2.49
   4   4   9   36.85    3.90
   4   4   9   35.89    2.73
   4   4   9   34.32    3.47
   4   4  10   55.26    4.72
   4   4  11   37.15    4.10
   4   4  12   -0.10    0.76
   4   4  13   36.71    4.47
   4   4  14   65.01    6.41
   4   4  15    6.99    2.24
   4   4  16   54.78    6.33
   4   5   0   37.91    3.21
   4   5   1    5.51    1.22
   4   5   2  420.08   12.31
   4   5   3   47.50    2.56
   4   5   3   45.19    3.45
   4   5   4  525.44   10.82
   4   5   4  517.63   14.42
   4   5   5  737.83   18.71
   4   5   6  179.41    7.96
   4   5   7   28.56    3.11
   4   5   8    2.95    0.52
   4   5   8    3.76    1.17
   4   5   8    2.22    1.03
   4   5   9   13.39    1.41
   4   5   9   11.15    2.16
   4   5   9   17.78    2.52
   4   5  10    3.21    0.78
   4   5  10    2.25    1.12
   4   5  10    1.61    0.84
   4   5  11   56.82    5.43
   4   5  11   58.41    5.02
   4   5  12    2.04    0.93
   4   5  12    0.82    0.90
   4   5  13   -1.19    1.33
   4   5  13    0.57    0.89
   4   5  14   -0.95    1.28
   4   5  14    0.02    0.97
   4   5  15   46.40    5.93
   4   5  15   43.61    5.27
   4   5  16   -1.14    1.35
   4   6   0  116.68    6.00
   4   6   0  130.31    6.62
   4   6   1   51.12    3.56
   4   6   1   54.80    4.09
   4   6   2   96.51    4.60
   4   6   2   99.95    5.58
   4   6   3    5.29    0.96
   4   6   3    6.46    1.42
   4   6   4    2.59    0.81
   4   6   4    3.15    0.63
   4   6   5  115.30    6.23
   4   6   6  276.24   10.50
   4   6   7  208.50    9.18
   4   6   8  293.91   11.59
   4   6   9   61.33    5.12
   4   6   9   64.21    4.70
   4   6   9   54.14    2.11
   4   6  10  152.05    8.66
   4   6  10  147.05    4.97
   4   6  10  152.79    7.85
   4   6  11    5.29    1.01
   4   6  11    4.67    1.55
   4   6  11    7.30    1.76
   4   6  12    1.09    0.94
   4   6  12    0.75    0.80
   4   6  13    9.55    2.51
   4   6  13    6.72    1.83
   4   6  14    3.62    1.49
   4   6  14    7.30    2.05
   4   6  15    0.09    1.08
   4   6  15    0.30    0.77
   4   6  16   22.91    3.89
   4   6  17    8.13    2.64
   4   7  -1   82.63    5.57
   4   7   0   30.40    3.09
   4   7   0   23.84    2.92
   4   7   1    9.84    1.66
   4   7   1   17.05    2.41
   4   7   2   14.03    1.83
   4   7   2   14.61    2.21
   4   7   3   62.97    3.63
   4   7   3   55.25    4.38
   4   7   4    3.95    1.20
   4   7   4    4.91    0.93
   4   7   5   18.50    2.51
   4   7   6   34.35    3.55
   4   7   7   42.67    4.05
   4   7   8   81.01    5.82
   4   7   9  381.67   14.32
   4   7  10   84.54    6.46
   4   7  11   34.99    4.28
   4   7  11   39.97    2.21
   4   7  11   26.28    3.22
   4   7  12   22.24    1.97
   4   7  12   23.42    3.62
   4   7  12   19.53    2.91
   4   7  13    6.50    1.90
   4   7  13    5.00    1.61
   4   7  14   -1.06    1.09
   4   7  14    0.32    0.71
   4   7  15   25.60    4.21
   4   7  15   17.37    3.17
   4   7  16    4.21    1.86
   4   7  17    0.82    1.21
   4   8   0  220.98    9.48
   4   8   0  216.22    9.94
   4   8   1  115.18    6.24
   4   8   1  109.16    6.70
   4   8   2   75.75    4.67
   4   8   2   67.99    5.21
   4   8   3    4.22    0.99
   4   8   3    2.43    0.88
   4   8   4    8.87    1.82
   4   8   5    0.41    0.76
   4   8   6    4.77    1.45
   4   8   7   82.70    5.97
   4   8   8  263.56   11.40
   4   8   9   36.34    4.10
   4   8  10    0.80    1.14
   4   8  11   30.28    3.99
   4   8  12   14.85    3.01
   4   8  13   54.10    5.85
   4   8  14   15.92    3.26
   4   8  14   16.66    2.92
   4   8  15   18.31    3.68
   4   8  15   21.54    3.56
   4   8  16    1.57    1.36
   4   8  17    4.59    1.97
   4   9   1   57.42    4.61
   4   9   1   60.15    5.18
   4   9   2   99.81    5.83
   4   9   2   96.65    6.57
   4   9   3  330.29   10.96
   4   9   3  326.03   12.82
   4   9   4  269.95   11.48
   4   9   5   96.06    6.56
   4   9   6   78.18    5.94
   4   9   7   49.52    4.72
   4   9   8   10.87    2.29
   4   9   9    3.18    1.36
   4   9  10   89.09    6.93
   4   9  11  129.01    8.71
   4   9  12  167.31   10.28
   4   9  13   24.45    4.06
   4   9  14   29.15    4.45
   4   9  15    0.60    1.06
   4  10   1    4.75    1.25
   4  10   2   20.67    2.77
   4  10   2   16.58    2.86
   4  10   3   35.53    4.09
   4  10   4   43.34    4.48
   4  10   5   73.39    5.92
   4  10   6    0.81    0.58
   4  10   7   46.26    4.74
   4  10   8   81.86    6.46
   4  10   9    4.72    1.55
   4  10  10    9.10    2.30
   4  10  11    3.33    1.24
   4  10  12    1.37    0.70
   4  10  13   82.29    7.45
   4  10  14   27.67    4.43
   4  10  15   18.02    3.76
   4  11   2  161.94    9.70
   4  11   3  281.94   12.95
   4  11   4  227.58   11.34
   4  11   5   10.03    2.35
   4  11   6    8.29    2.19
   4  11   7    1.18    0.90
   4  11   8    0.19    1.08
   4  11   9    3.39    1.48
   4  11  10   10.49    2.56
   4  11  11    5.58    1.87
   4  11  12   15.87    3.26
   4  11  13   12.20    2.96
   4  11  14   17.55    3.66
   4  12   2    5.81    2.08
   4  12   3    9.36    2.35
   4  12   4   25.11    3.87
   4  12   5   91.96    7.38
   4  12   6   60.02    5.92
   4  12   7  145.57    9.43
   4  12   8   78.32    6.86
   4  12   9   25.99    4.05
   4  12  10    9.01    2.38
   4  12  11   10.47    2.66
   4  12  12    3.83    1.46
   4  12  13    3.05    1.48
   4  12  14   23.07    4.04
   4  13   3   -0.28    1.25
   4  13   4    2.18    0.88
   4  13   5    1.24    1.18
   4  13   6   10.00    2.54
   4  13   7   33.01    4.64
   4  13   8   44.69    5.34
   4  13   9   76.34    7.20
   4  13  10   15.42    3.24
   4  13  11   10.75    2.79
   4  13  12    5.69    2.15
   4  13  13    1.11    1.35
   4  14   4    2.01    1.54
   4  14   5   -0.19    0.78
   4  14   6   12.98    3.07
   4  14   7    7.79    2.57
   4  14   8   16.06    3.42
   4  14   9   29.50    4.58
   4  14  10   43.17    5.64
   4  14  11    1.49    1.31
   5 -13  -4    1.45    1.49
   5 -13  -3   13.47    3.22
   5 -13  -2    1.79    1.10
   5 -13  -1   -5.15    1.99
   5 -12  -3    5.28    2.26
   5 -12  -2    2.33    1.46
   5 -12  -1   -0.83    1.20
   5 -12   0   48.20    5.69
   5 -12   1    2.47    1.46
   5 -12   2   15.57    3.44
   5 -12   4    2.28    1.46
   5 -12   5    4.53    1.91
   5 -11  -4    6.60    1.70
   5 -11  -2   49.37    5.44
   5 -11  -1   20.13    3.46
   5 -11  -1   20.68    2.15
   5 -11   0   89.60    7.46
   5 -11   0   91.10    5.26
   5 -11   1   -3.63    1.63
   5 -11   1    0.44    0.59
   5 -11   2    2.57    1.31
   5 -11   2    2.94    1.31
   5 -11   3   29.39    4.55
   5 -11   3   25.35    3.58
   5 -11   4   76.21    7.49
   5 -11   4   82.76    6.97
   5 -11   5   18.09    3.51
   5 -11   6   15.70    3.39
   5 -10  -6   34.53    3.21
   5 -10  -5    0.39    0.54
   5 -10  -4   30.49    3.09
   5 -10  -3    1.79    1.00
   5 -10  -2    3.11    1.14
   5 -10  -1   28.98    3.92
   5 -10  -1   31.19    2.56
   5 -10  -1   28.64    3.33
   5 -10   0   -0.89    0.82
   5 -10   0    0.03    0.39
   5 -10   1   51.06    5.41
   5 -10   1   45.19    3.83
   5 -10   2   27.15    4.06
   5 -10   2   26.64    3.24
   5 -10   3    0.93    1.28
   5 -10   3    1.29    1.06
   5 -10   4    3.44    1.36
   5 -10   4    3.03    1.40
   5 -10   5   29.90    4.57
   5 -10   5   26.86    4.01
   5 -10   6   15.60    3.24
   5 -10   7    1.08    1.06
   5  -9  -5   89.27    4.84
   5  -9  -4   82.81    4.80
   5  -9  -3   19.44    2.36
   5  -9  -2   13.24    2.05
   5  -9  -1    0.15    0.49
   5  -9  -1    0.66    0.45
   5  -9   0   31.25    3.94
   5  -9   0   31.03    2.79
   5  -9   0   27.43    3.12
   5  -9   1    1.12    1.10
   5  -9   1    0.62    0.64
   5  -9   2    3.01    1.43
   5  -9   2    5.30    1.29
   5  -9   3    8.60    2.21
   5  -9   3   11.97    2.18
   5  -9   4   25.51    3.93
   5  -9   4   28.18    3.78
   5  -9   5    2.11    1.31
   5  -9   5    1.37    1.18
   5  -9   6    0.26    1.02
   5  -9   6    0.76    0.88
   5  -9   7   12.16    2.93
   5  -9   8    1.65    1.02
   5  -8  -5   11.37    1.56
   5  -8  -4    2.11    0.72
   5  -8  -3   89.70    4.68
   5  -8  -2  101.75    5.23
   5  -8  -1  233.82    7.23
   5  -8  -1  227.61    8.72
   5  -8   0  220.05    7.80
   5  -8   0  220.91    8.94
   5  -8   1  198.85    9.86
   5  -8   1  187.25    7.68
   5  -8   1  187.01    8.49
   5  -8   2   89.95    6.67
   5  -8   2   97.06    5.82
   5  -8   2   95.64    6.14
   5  -8   3   -0.67    0.97
   5  -8   3    0.69    0.59
   5  -8   4    4.93    1.61
   5  -8   4    4.09    1.31
   5  -8   5    2.44    1.10
   5  -8   5    3.86    1.56
   5  -8   6    5.91    2.04
   5  -8   6    5.28    1.64
   5  -8   7    1.74    1.35
   5  -8   8   14.00    3.26
   5  -8   9    4.26    2.01
   5  -7  -4    1.04    0.60
   5  -7  -4    1.57    0.48
   5  -7  -3  148.97    8.14
   5  -7  -3  144.73    5.51
   5  -7  -2    4.93    1.53
   5  -7  -2    4.22    0.97
   5  -7  -1   20.52    2.97
   5  -7  -1   18.04    1.69
   5  -7  -1   18.77    2.09
   5  -7   0   23.39    2.20
   5  -7   0   23.28    2.45
   5  -7   1  175.68    7.09
   5  -7   1  175.11    7.62
   5  -7   2    6.10    1.69
   5  -7   2    3.86    1.22
   5  -7   2    4.32    1.21
   5  -7   3   52.71    4.86
   5  -7   3   43.17    3.99
   5  -7   3   45.99    4.14
   5  -7   4   21.10    3.17
   5  -7   4   23.17    3.13
   5  -7   5   10.71    2.29
   5  -7   5    8.08    1.99
   5  -7   6    4.01    1.60
   5  -7   6    3.88    1.53
   5  -7   7    1.23    1.24
   5  -7   7    1.66    1.10
   5  -7   8   -0.47    0.70
   5  -7   9    9.38    2.67
   5  -7  10    6.68    2.10
   5  -6  -3   60.78    4.89
   5  -6  -3   54.96    2.75
   5  -6  -2   41.15    4.06
   5  -6  -2   38.83    2.47
   5  -6  -1  108.20    6.65
   5  -6  -1   97.31    4.42
   5  -6   0  249.55   10.73
   5  -6   0  256.40    7.96
   5  -6   0  239.92    8.08
   5  -6   1   15.85    2.58
   5  -6   1   13.17    1.80
   5  -6   1   10.93    1.59
   5  -6   2   81.47    5.64
   5  -6   2   75.88    4.64
   5  -6   2   79.43    4.86
   5  -6   3   13.66    2.29
   5  -6   3   16.17    2.24
   5  -6   4   21.73    3.07
   5  -6   4   21.78    2.84
   5  -6   5   38.36    4.21
   5  -6   5   44.10    4.42
   5  -6   6    0.02    0.61
   5  -6   6   -0.88    1.11
   5  -6   7   22.22    3.40
   5  -6   7   15.82    2.91
   5  -6   8    0.04    0.99
   5  -6   9    0.96    1.03
   5  -6  10   -0.85    1.57
   5  -5  -3  136.08    7.32
   5  -5  -2    0.90    0.58
   5  -5  -2    0.55    0.33
   5  -5  -1  172.64    8.19
   5  -5  -1  162.77    5.31
   5  -5   0  104.61    6.29
   5  -5   0  107.21    4.62
   5  -5   0  101.86    4.40
   5  -5   1   26.95    3.16
   5  -5   1   27.82    2.46
   5  -5   1   28.54    2.41
   5  -5   2    0.32    0.39
   5  -5   2    1.14    0.63
   5  -5   3    5.41    1.43
   5  -5   3    5.65    1.38
   5  -5   3    3.28    1.03
   5  -5   4   29.08    3.27
   5  -5   4   31.06    3.27
   5  -5   5   78.50    5.64
   5  -5   5   68.30    5.30
   5  -5   6  178.03    9.05
   5  -5   6  177.52    9.39
   5  -5   7   27.51    3.57
   5  -5   7   28.27    3.88
   5  -5   8   46.08    5.17
   5  -5   9    0.64    0.87
   5  -5  10   40.69    5.40
   5  -5  11    2.68    1.69
   5  -4  -2   71.33    4.89
   5  -4  -2   60.59    1.86
   5  -4  -1  299.51   10.87
   5  -4  -1  290.73    6.87
   5  -4   0   39.31    3.62
   5  -4   0   34.37    2.14
   5  -4   1   -0.06    0.65
   5  -4   1   -0.11    0.34
   5  -4   2    0.79    0.79
   5  -4   2   -0.04    0.39
   5  -4   3   15.79    2.42
   5  -4   3   13.88    1.90
   5  -4   4   35.84    3.39
   5  -4   4   35.12    3.26
   5  -4   4   37.97    3.89
   5  -4   5   94.82    5.88
   5  -4   5   91.29    5.93
   5  -4   5  100.55    6.75
   5  -4   6  199.59    9.09
   5  -4   6  193.90    9.51
   5  -4   7  342.64   12.97
   5  -4   7  339.69   13.82
   5  -4   8   66.55    6.06
   5  -4   9    5.31    1.85
   5  -4  10   40.57    5.19
   5  -4  11    3.73    1.67
   5  -4  12    2.12    1.28
   5  -3  -1    0.58    0.42
   5  -3   0  177.53    7.70
   5  -3   1   31.83    3.07
   5  -3   1   32.96    2.54
   5  -3   2    6.52    1.47
   5  -3   2    6.88    1.26
   5  -3   3    6.66    1.48
   5  -3   3    8.42    1.49
   5  -3   4  144.06    6.67
   5  -3   4  138.47    6.67
   5  -3   4  159.84    7.73
   5  -3   5  104.64    5.78
   5  -3   5   98.68    5.85
   5  -3   5  106.49    6.59
   5  -3   6  114.76    6.28
   5  -3   6  115.77    7.13
   5  -3   6   97.71    6.33
   5  -3   7    5.14    1.46
   5  -3   7    6.10    1.69
   5  -3   8   70.11    5.93
   5  -3   9    1.51    1.12
   5  -3  10    4.57    1.78
   5  -3  11    4.69    1.55
   5  -3  12   -0.33    0.72
   5  -2  -1  230.58    8.74
   5  -2   0   28.40    2.76
   5  -2   1  831.84   20.01
   5  -2   2  255.98    9.20
   5  -2   2  257.57    8.45
   5  -2   3   44.68    3.60
   5  -2   3   42.69    3.26
   5  -2   4    0.18    0.36
   5  -2   4   -0.36    0.65
   5  -2   5  187.03    7.43
   5  -2   5  182.86    8.10
   5  -2   5  191.23    8.40
   5  -2   6  173.32    7.39
   5  -2   6  166.90    8.07
   5  -2   6  178.33    8.52
   5  -2   7   30.94    3.09
   5  -2   7   30.79    3.59
   5  -2   7   26.94    3.31
   5  -2   8  422.54   15.28
   5  -2   9  242.45   11.79
   5  -2  10   84.34    7.02
   5  -2  11   49.09    5.55
   5  -2  12    1.57    1.59
   5  -2  13    0.51    0.94
   5  -1   0  115.25    5.53
   5  -1   0   97.40    2.85
   5  -1   1  186.65    7.27
   5  -1   2  174.74    7.00
   5  -1   3  495.81   13.56
   5  -1   3  492.32   13.35
   5  -1   4    4.75    1.19
   5  -1   4   12.49    1.86
   5  -1   5   -0.30    0.58
   5  -1   5   -0.47    0.51
   5  -1   5    0.61    0.42
   5  -1   6   63.76    3.94
   5  -1   6   57.96    4.38
   5  -1   6   67.90    4.82
   5  -1   7   -0.08    0.51
   5  -1   7    1.25    0.77
   5  -1   7   -0.74    0.94
   5  -1   8    3.22    1.32
   5  -1   8    2.73    0.99
   5  -1   9    2.70    1.31
   5  -1  10   36.62    4.41
   5  -1  11   45.84    5.19
   5  -1  12  113.65    8.67
   5  -1  13    7.56    2.32
   5   0  -1  214.73    5.19
   5   0   0  522.56   10.65
   5   0   1    0.84    0.34
   5   0   1    1.41    0.60
   5   0   2  143.43    5.04
   5   0   2  147.76    6.03
   5   0   3   76.91    4.34
   5   0   3   72.84    4.11
   5   0   4   16.66    2.06
   5   0   4   14.88    1.85
   5   0   5  143.84    5.39
   5   0   5  142.30    6.29
   5   0   5  134.72    6.57
   5   0   6    5.47    1.24
   5   0   6    4.30    0.94
   5   0   6    3.44    1.12
   5   0   7   20.26    2.08
   5   0   7   25.20    2.82
   5   0   7   23.08    2.88
   5   0   8    3.46    1.23
   5   0   8    2.15    1.06
   5   0   9   28.74    3.44
   5   0   9   25.75    3.39
   5   0  10   14.66    2.78
   5   0  11   42.48    4.81
   5   0  12   39.34    4.87
   5   0  13   69.75    6.81
   5   0  14   13.86    3.22
   5   1  -1   58.41    2.75
   5   1   0    0.66    0.39
   5   1   1  126.13    4.42
   5   1   2    2.06    0.58
   5   1   2    1.71    0.58
   5   1   3  505.03   12.52
   5   1   3  503.27   12.60
   5   1   4  425.23   12.27
   5   1   4  412.75   11.08
   5   1   5  184.37    5.72
   5   1   5  184.43    7.72
   5   1   5  190.84    6.91
   5   1   6  302.25    8.02
   5   1   6  277.35    9.17
   5   1   6  279.82   10.32
   5   1   7    1.46    0.43
   5   1   7    0.91    0.56
   5   1   7    2.98    0.99
   5   1   8    0.20    0.40
   5   1   8   -0.97    1.03
   5   1   9    0.20    0.64
   5   1   9    0.01    0.52
   5   1  10   76.87    5.62
   5   1  10   70.43    5.80
   5   1  11   49.09    5.08
   5   1  12   41.15    4.92
   5   1  13   17.57    3.36
   5   1  14    5.50    2.02
   5   2  -1   74.73    3.61
   5   2   0    8.41    1.13
   5   2   1  215.42    6.69
   5   2   2  667.83   15.09
   5   2   3    6.94    1.16
   5   2   3    2.58    0.62
   5   2   4   70.08    4.07
   5   2   4   75.83    3.63
   5   2   5  201.91    7.91
   5   2   5  203.13    8.06
   5   2   5  198.34    6.58
   5   2   6   33.91    1.88
   5   2   6   31.05    2.48
   5   2   6   34.23    3.22
   5   2   7   30.98    2.60
   5   2   7   29.15    3.15
   5   2   8   94.10    5.17
   5   2   8  112.70    6.60
   5   2   9    4.26    1.18
   5   2   9    4.75    1.36
   5   2  10    3.35    1.21
   5   2  10    2.40    1.13
   5   2  11   41.48    4.10
   5   2  11   46.82    4.85
   5   2  12   16.53    3.06
   5   2  13    1.21    1.09
   5   2  14   75.95    7.18
   5   2  15    9.70    2.75
   5   3  -1    5.29    1.08
   5   3   0   17.70    1.86
   5   3   1  264.13    8.24
   5   3   2  487.92   12.52
   5   3   3  367.70   10.59
   5   3   4  249.32    8.64
   5   3   5  138.40    6.46
   5   3   5  144.49    4.89
   5   3   6  106.93    2.79
   5   3   6  109.18    5.94
   5   3   6  108.46    5.92
   5   3   6  104.89    4.21
   5   3   7  237.39    9.72
   5   3   7  223.34    7.16
   5   3   7  234.44    9.40
   5   3   8   73.45    4.01
   5   3   8   74.98    5.28
   5   3   9   98.46    5.11
   5   3   9  103.92    6.57
   5   3  10    0.97    0.64
   5   3  10    0.95    0.67
   5   3  11    2.79    1.10
   5   3  11    1.12    0.77
   5   3  12   -0.15    0.50
   5   3  12   -0.39    1.03
   5   3  13   15.12    2.97
   5   3  14    2.47    1.64
   5   3  15   21.28    4.05
   5   4  -1  337.89   10.61
   5   4   0  135.65    5.99
   5   4   1  127.68    5.75
   5   4   2  163.13    6.61
   5   4   3    8.98    1.51
   5   4   4    6.54    1.33
   5   4   5   18.74    2.27
   5   4   6   38.73    3.49
   5   4   6   41.58    2.11
   5   4   7  153.61    7.64
   5   4   7  161.54    7.57
   5   4   7  153.31    4.92
   5   4   8  192.33    9.07
   5   4   8  191.58    8.73
   5   4   8  184.05    6.05
   5   4   9   27.12    3.44
   5   4   9   28.24    3.31
   5   4   9   25.09    2.21
   5   4  10  145.07    8.59
   5   4  10  135.07    6.01
   5   4  10  144.89    8.08
   5   4  11   20.78    2.52
   5   4  11   24.99    3.65
   5   4  11   22.18    3.23
   5   4  12    2.39    0.75
   5   4  12    2.37    1.11
   5   4  13    1.88    1.42
   5   4  14   29.16    4.32
   5   4  15    3.25    0.87
   5   4  16   15.18    3.40
   5   5   0    5.15    1.23
   5   5   1   20.42    2.37
   5   5   2   21.93    2.43
   5   5   3  125.62    6.17
   5   5   4  194.05    8.01
   5   5   5  219.09    5.03
   5   5   5  225.52    8.93
   5   5   6    4.30    1.18
   5   5   7  253.65   10.30
   5   5   8  426.47   14.70
   5   5   8  440.94    9.44
   5   5   9  401.59   14.59
   5   5   9  401.04   13.82
   5   5   9  403.32    9.71
   5   5  10  109.25    7.34
   5   5  10  103.05    6.69
   5   5  10  103.19    4.53
   5   5  11  102.51    7.50
   5   5  11  110.36    7.21
   5   5  11   98.48    4.91
   5   5  12   55.69    5.82
   5   5  12   59.69    4.18
   5   5  12   57.38    5.39
   5   5  13    0.01    1.03
   5   5  13    3.52    1.80
   5   5  14    0.25    0.84
   5   5  14    2.14    1.23
   5   5  15    0.47    0.79
   5   5  15   -0.47    0.95
   5   5  16   15.65    3.51
   5   6   0  181.26    8.17
   5   6   1   32.95    3.25
   5   6   2  153.53    7.29
   5   6   3   49.24    3.06
   5   6   3   54.91    4.20
   5   6   4   24.38    1.86
   5   6   4   24.64    2.81
   5   6   5   18.01    1.29
   5   6   5   19.11    2.51
   5   6   6   11.04    2.01
   5   6   7   24.45    2.99
   5   6   8  128.97    7.51
   5   6   9  105.37    6.98
   5   6  10  125.93    7.98
   5   6  10  124.84    7.32
   5   6  10  118.03    3.88
   5   6  11   66.18    6.00
   5   6  11   66.36    3.31
   5   6  11   66.48    5.52
   5   6  12    1.64    0.59
   5   6  12    2.99    1.40
   5   6  12    2.24    1.09
   5   6  13    2.36    1.46
   5   6  13    0.46    0.75
   5   6  14   -0.37    0.92
   5   6  14   -0.54    0.96
   5   6  15    0.33    1.44
   5   6  15    2.75    1.58
   5   6  16   10.82    2.58
   5   7  -1   47.22    4.31
   5   7   0  283.60   10.76
   5   7   0  285.51   11.21
   5   7   1  515.39   14.80
   5   7   1  493.08   15.68
   5   7   2  445.12   12.87
   5   7   2  468.57   14.72
   5   7   3  430.23   11.87
   5   7   3  442.33   14.23
   5   7   4  250.14    7.75
   5   7   4  274.22   10.63
   5   7   5   32.28    2.07
   5   7   5   30.34    3.34
   5   7   6    2.89    1.05
   5   7   7    6.57    1.74
   5   7   8   26.48    3.37
   5   7   9   84.51    6.33
   5   7  10  203.76   10.53
   5   7  11    6.52    1.97
   5   7  12  104.29    7.95
   5   7  12  122.95    7.79
   5   7  13  182.59   11.12
   5   7  13  176.96    9.93
   5   7  14   78.28    7.42
   5   7  14   73.37    6.47
   5   7  15   13.68    3.30
   5   7  15   11.12    2.74
   5   7  16   10.54    2.64
   5   7  17    1.76    1.23
   5   8   0   38.36    3.80
   5   8   0   32.87    3.75
   5   8   1   25.44    2.90
   5   8   1   27.81    3.34
   5   8   2   21.37    2.50
   5   8   2   21.08    2.87
   5   8   3  177.80    7.28
   5   8   3  201.72    9.37
   5   8   4  101.36    4.87
   5   8   4  105.41    6.61
   5   8   5  103.43    6.61
   5   8   6    3.19    1.08
   5   8   7   -0.77    0.98
   5   8   8   27.20    3.56
   5   8   9   -0.72    0.93
   5   8  10   68.02    6.02
   5   8  11    1.00    0.82
   5   8  12   18.28    3.31
   5   8  13   51.02    5.83
   5   8  14   31.81    4.73
   5   8  15    3.26    1.91
   5   8  15    4.26    1.77
   5   8  16    6.92    2.10
   5   8  17   -0.32    1.09
   5   9   1  100.04    6.31
   5   9   1   95.33    6.83
   5   9   2  102.63    6.03
   5   9   2  106.83    7.13
   5   9   3   38.57    3.42
   5   9   3   40.10    4.24
   5   9   4  202.65    7.81
   5   9   4  208.39   10.14
   5   9   5   32.79    3.82
   5   9   6   38.30    4.21
   5   9   7    1.50    1.05
   5   9   8   23.67    3.36
   5   9   9   59.11    5.57
   5   9  10   24.74    3.71
   5   9  11    2.68    1.20
   5   9  12   53.08    5.74
   5   9  13   37.38    4.93
   5   9  14  117.49    9.32
   5   9  15  105.76    9.07
   5  10   1    0.42    0.74
   5  10   2   -1.55    1.44
   5  10   3   58.01    4.46
   5  10   3   49.89    4.97
   5  10   4    6.55    1.81
   5  10   5   95.98    7.01
   5  10   6   61.26    5.56
   5  10   7   46.07    4.89
   5  10   8  137.16    8.74
   5  10   9  138.15    8.96
   5  10  10   60.09    5.95
   5  10  11   10.58    2.58
   5  10  12    0.12    0.94
   5  10  13    5.05    2.20
   5  10  14   39.07    5.39
   5  11   2    3.77    1.63
   5  11   3    6.65    2.13
   5  11   4    0.80    1.02
   5  11   5    7.22    2.00
   5  11   6   95.23    7.30
   5  11   7  184.63   10.45
   5  11   8   81.38    6.94
   5  11   9   20.79    3.57
   5  11  10    3.30    1.58
   5  11  11    0.73    0.75
   5  11  12    8.18    2.49
   5  11  13   10.10    2.87
   5  11  14    0.09    0.82
   5  12   2   21.17    3.59
   5  12   3   11.42    2.81
   5  12   4    6.13    1.93
   5  12   5   11.03    2.69
   5  12   6   62.12    6.23
   5  12   7   75.35    6.82
   5  12   8  132.68    9.23
   5  12   9   51.11    5.72
   5  12  10   11.51    2.77
   5  12  11    6.40    2.08
   5  12  12    5.63    1.88
   5  12  13   -1.28    1.61
   5  13   3   24.21    4.06
   5  13   4   14.91    3.22
   5  13   5    0.50    0.92
   5  13   6   13.08    3.00
   5  13   7   10.27    2.66
   5  13   8   44.21    5.46
   5  13   9   63.62    6.63
   5  13  10   67.73    6.98
   5  13  11   21.21    3.92
   5  13  12   26.86    4.49
   5  14   4    2.40    1.13
   5  14   5   17.04    3.62
   5  14   6    1.19    1.26
   5  14   7    8.51    2.29
   5  14   8    1.84    1.32
   5  14   9    3.94    1.67
   5  14  10   10.39    2.81
   6 -13  -4   55.11    6.35
   6 -12  -2    1.78    1.26
   6 -12  -1   56.79    6.19
   6 -12   0    7.88    2.27
   6 -12   1   -0.73    1.20
   6 -11  -1   -0.76    1.35
   6 -11   0    1.34    0.83
   6 -11   1   32.26    4.62
   6 -11   2    4.18    1.59
   6 -11   2    4.05    1.58
   6 -11   3   49.66    6.05
   6 -11   3   43.96    4.56
   6 -11   4    3.17    1.45
   6 -11   5   -0.70    0.99
   6 -11   6   -1.05    1.18
   6 -10  -2   43.08    3.80
   6 -10  -1   49.19    3.18
   6 -10  -1   45.08    4.14
   6 -10   0   85.96    7.16
   6 -10   0   94.80    5.21
   6 -10   1    6.72    2.05
   6 -10   1   12.32    1.99
   6 -10   2   34.79    4.69
   6 -10   2   33.65    3.65
   6 -10   3   -0.56    1.37
   6 -10   3    0.07    0.52
   6 -10   4    9.62    2.51
   6 -10   4    6.57    1.74
   6 -10   5    1.43    1.37
   6 -10   5    0.97    0.93
   6 -10   6    6.75    2.48
   6 -10   7    0.55    0.72
   6  -9  -4    2.36    0.86
   6  -9  -3    0.98    0.42
   6  -9  -2    2.04    0.89
   6  -9  -1   34.23    3.31
   6  -9   0    4.17    1.28
   6  -9   0    3.65    1.04
   6  -9   1   62.92    5.89
   6  -9   1   63.77    4.49
   6  -9   1   63.24    5.00
   6  -9   2    2.90    1.50
   6  -9   2    8.09    1.74
   6  -9   3   27.19    4.02
   6  -9   3   27.82    3.36
   6  -9   4   13.00    2.88
   6  -9   4   16.05    2.74
   6  -9   5   -0.84    1.34
   6  -9   5    1.26    0.73
   6  -9   6    8.62    2.58
   6  -9   6    9.31    2.35
   6  -9   7   -0.18    1.10
   6  -9   7    2.76    1.68
   6  -9   8   -0.79    0.94
   6  -8  -4    4.19    0.79
   6  -8  -3   77.06    4.04
   6  -8  -2   43.66    3.19
   6  -8  -1    1.23    0.65
   6  -8   0   77.46    4.39
   6  -8   0   80.85    5.01
   6  -8   1    8.72    1.72
   6  -8   1    7.50    1.49
   6  -8   2   81.48    6.56
   6  -8   2   91.26    5.65
   6  -8   2   83.04    5.69
   6  -8   3   43.29    4.79
   6  -8   3   48.19    4.30
   6  -8   4    1.08    1.00
   6  -8   4   -0.17    0.71
   6  -8   5   34.11    4.53
   6  -8   5   37.58    4.31
   6  -8   6   -0.41    1.35
   6  -8   6   -0.54    0.92
   6  -8   7   -1.59    1.65
   6  -8   7    0.86    1.13
   6  -8   8   -0.87    1.30
   6  -8   9   11.06    2.96
   6  -7  -3   88.08    3.77
   6  -7  -2   79.21    3.90
   6  -7  -1    1.80    0.58
   6  -7   0    0.36    0.32
   6  -7   0   -0.52    0.69
   6  -7   1   60.47    4.14
   6  -7   1   63.15    4.29
   6  -7   2  110.52    7.25
   6  -7   2  113.65    6.16
   6  -7   2  109.69    6.19
   6  -7   3   58.21    5.24
   6  -7   3   60.81    4.71
   6  -7   3   56.83    4.61
   6  -7   4  165.25    9.36
   6  -7   4  152.62    8.16
   6  -7   5   36.03    4.39
   6  -7   5   33.37    3.91
   6  -7   6   82.23    6.81
   6  -7   6   71.81    6.22
   6  -7   7   14.67    3.12
   6  -7   7   16.15    3.11
   6  -7   8    0.10    0.74
   6  -7   9    5.00    1.79
   6  -6  -3  347.54    7.75
   6  -6  -2   13.09    1.28
   6  -6  -1  120.99    4.80
   6  -6   0   34.52    2.68
   6  -6   1    8.58    1.48
   6  -6   1    9.58    1.55
   6  -6   2   52.67    3.98
   6  -6   2   53.58    3.94
   6  -6   3   12.00    2.26
   6  -6   3   11.65    1.97
   6  -6   4   18.15    2.88
   6  -6   4   17.57    2.57
   6  -6   5   97.58    6.88
   6  -6   5   90.14    6.33
   6  -6   6   66.19    5.83
   6  -6   6   56.33    5.30
   6  -6   7   91.37    7.05
   6  -6   7   86.17    6.99
   6  -6   8   54.82    5.70
   6  -6   8   46.41    5.29
   6  -6   9    2.81    1.24
   6  -6  10    4.12    1.92
   6  -5  -2  646.25   19.02
   6  -5  -2  620.94   11.84
   6  -5  -1  163.40    8.46
   6  -5  -1  167.55    5.11
   6  -5   0    7.83    1.79
   6  -5   0    7.76    1.11
   6  -5   1   -1.01    0.80
   6  -5   1    0.16    0.25
   6  -5   1    0.63    0.40
   6  -5   2  180.85    7.60
   6  -5   2  189.49    9.43
   6  -5   3   45.58    3.84
   6  -5   4   79.40    5.64
   6  -5   4   69.79    5.07
   6  -5   5   13.32    2.35
   6  -5   5   16.10    2.56
   6  -5   6   24.50    3.36
   6  -5   6   24.61    3.33
   6  -5   7   41.06    4.42
   6  -5   7   40.64    4.53
   6  -5   8   33.80    4.23
   6  -5   8   36.73    4.57
   6  -5   9   27.51    4.13
   6  -5  10    0.64    0.74
   6  -5  11   -1.29    1.29
   6  -4  -2   86.35    5.88
   6  -4  -1  476.93   15.13
   6  -4  -1  465.12    9.27
   6  -4   0  445.68   14.59
   6  -4   0  434.72   10.02
   6  -4   1   99.98    6.31
   6  -4   1   93.27    4.84
   6  -4   2  125.75    7.16
   6  -4   2  119.88    5.89
   6  -4   3   -0.63    0.74
   6  -4   3    0.41    0.57
   6  -4   4    6.08    1.64
   6  -4   4    4.69    1.34
   6  -4   4    6.23    1.49
   6  -4   5   84.68    5.67
   6  -4   5   76.20    5.49
   6  -4   6   91.78    6.13
   6  -4   6   89.31    6.30
   6  -4   7   50.50    4.62
   6  -4   7   45.51    4.61
   6  -4   8  120.13    7.53
   6  -4   8  110.07    7.64
   6  -4   9   22.92    3.62
   6  -4  10   16.38    3.18
   6  -4  11   57.75    6.37
   6  -3  -1   88.41    5.69
   6  -3   0   76.03    5.19
   6  -3   1  186.27    8.47
   6  -3   2   59.41    4.62
   6  -3   2   58.92    3.99
   6  -3   3  190.58    8.75
   6  -3   3  171.41    7.50
   6  -3   4  111.07    6.71
   6  -3   4  117.97    6.36
   6  -3   5    0.15    0.70
   6  -3   5   -0.58    0.72
   6  -3   5   -0.45    0.42
   6  -3   6    3.93    1.26
   6  -3   6    2.12    0.88
   6  -3   7  186.98    8.71
   6  -3   7  188.73    9.58
   6  -3   8   37.82    3.94
   6  -3   8   36.83    4.30
   6  -3   9   44.41    4.90
   6  -3  10   79.51    6.90
   6  -3  11   -0.54    1.01
   6  -3  12   10.21    2.87
   6  -2   0   45.96    1.82
   6  -2   0   46.06    3.85
   6  -2   1    1.69    0.81
   6  -2   2  268.02   10.07
   6  -2   3  181.52    8.18
   6  -2   3  185.99    7.65
   6  -2   4   20.06    2.63
   6  -2   4   16.76    2.32
   6  -2   5  114.79    5.84
   6  -2   5  113.46    6.43
   6  -2   5  119.67    6.78
   6  -2   6   42.11    3.53
   6  -2   6   39.02    3.94
   6  -2   6   36.64    3.77
   6  -2   7   10.71    2.19
   6  -2   7   10.09    1.83
   6  -2   7   11.20    2.16
   6  -2   8    8.63    1.79
   6  -2   8    8.18    1.94
   6  -2   9    5.84    1.68
   6  -2  10   32.76    4.29
   6  -2  11   86.03    7.45
   6  -2  12   39.66    5.35
   6  -2  13   28.02    4.60
   6  -1   0  127.61    3.52
   6  -1   1  288.20    7.26
   6  -1   1  282.57   10.02
   6  -1   2  253.24    9.36
   6  -1   3  223.32    8.54
   6  -1   3  237.99    8.99
   6  -1   4  507.51   14.84
   6  -1   4  535.72   15.10
   6  -1   5  130.68    6.85
   6  -1   5  127.53    6.67
   6  -1   6  139.90    6.25
   6  -1   6  136.91    7.16
   6  -1   6  131.27    7.25
   6  -1   7   -0.02    0.62
   6  -1   7    0.08    0.48
   6  -1   7    0.45    0.51
   6  -1   8   45.38    3.74
   6  -1   8   50.60    4.62
   6  -1   8   45.70    4.58
   6  -1   9   24.62    3.50
   6  -1  10   55.44    5.49
   6  -1  11   61.95    6.19
   6  -1  12   62.20    6.42
   6  -1  13   53.14    6.18
   6   0   0   10.97    1.02
   6   0   1  102.46    3.83
   6   0   2   56.20    3.06
   6   0   2   66.86    4.20
   6   0   3  419.56   11.33
   6   0   3  428.79   12.50
   6   0   4  280.83   10.13
   6   0   4  303.58   10.08
   6   0   5  277.85   10.37
   6   0   5  274.04    9.76
   6   0   6  103.69    4.88
   6   0   6  103.95    6.21
   6   0   6   96.13    5.57
   6   0   7   82.84    4.47
   6   0   7   85.93    5.87
   6   0   7   82.53    5.32
   6   0   8   46.13    3.39
   6   0   8   42.19    4.03
   6   0   8   46.61    4.59
   6   0   9    0.24    0.48
   6   0   9   -0.32    0.75
   6   0  10    6.76    2.06
   6   0  11    2.86    1.42
   6   0  12   43.91    5.24
   6   0  13   21.74    3.93
   6   0  14   28.14    4.67
   6   1  -1    0.95    0.41
   6   1   0  154.47    5.08
   6   1   1  310.79    8.26
   6   1   2  491.22   11.94
   6   1   3  504.57   12.70
   6   1   3  481.26   13.12
   6   1   4  486.53   13.17
   6   1   4  471.49   12.99
   6   1   5   47.42    3.91
   6   1   5   41.74    3.24
   6   1   6  109.14    4.53
   6   1   6  109.40    6.29
   6   1   6  104.57    5.46
   6   1   7  244.91    7.66
   6   1   7  240.82    9.12
   6   1   7  258.66   10.59
   6   1   8    0.16    0.51
   6   1   8    0.43    0.68
   6   1   9   13.72    2.19
   6   1   9   12.40    2.36
   6   1  10    0.18    0.64
   6   1  10   -0.65    1.02
   6   1  11    3.24    1.51
   6   1  12    0.21    0.94
   6   1  13   30.06    4.49
   6   1  14    1.76    1.48
   6   2  -1  341.18    9.38
   6   2   0  419.50   10.76
   6   2   1  158.98    5.80
   6   2   2  226.47    7.40
   6   2   3    0.65    0.34
   6   2   4   60.78    3.89
   6   2   4   61.55    3.60
   6   2   5  411.65   12.52
   6   2   5  419.87   11.44
   6   2   6  515.24   11.61
   6   2   6  530.27   15.37
   6   2   6  527.47   15.69
   6   2   6  526.31   13.59
   6   2   7   60.03    2.90
   6   2   7   54.61    3.71
   6   2   7   52.97    4.51
   6   2   8  276.25    9.58
   6   2   8  264.76   11.12
   6   2   9   12.85    1.99
   6   2   9   13.93    2.43
   6   2  10    0.47    0.69
   6   2  10    0.12    0.55
   6   2  11   -0.47    0.42
   6   2  11    0.20    0.66
   6   2  12   11.07    2.62
   6   2  13   -1.35    1.00
   6   2  14   15.41    3.33
   6   3  -1   50.12    3.36
   6   3   0    3.01    0.81
   6   3   1  107.92    5.01
   6   3   2    7.75    1.28
   6   3   3  139.14    6.04
   6   3   4    0.53    0.56
   6   3   5  180.76    7.65
   6   3   5  173.18    6.10
   6   3   6   54.31    4.20
   6   3   6   51.58    3.12
   6   3   7  168.98    4.44
   6   3   7  157.10    7.91
   6   3   7  161.65    8.07
   6   3   7  165.12    6.21
   6   3   8   98.79    6.49
   6   3   8  107.76    6.64
   6   3   8   91.60    4.73
   6   3   9  363.69   13.84
   6   3   9  333.73   10.59
   6   3   9  322.02   12.88
   6   3  10   57.24    4.16
   6   3  10   66.20    5.64
   6   3  11    9.32    1.79
   6   3  11    7.68    2.07
   6   3  12   35.72    3.78
   6   3  12   41.88    4.92
   6   3  13    1.44    1.17
   6   3  14    0.50    0.83
   6   3  15    1.52    1.72
   6   4  -1  176.61    7.33
   6   4   0  970.82   22.16
   6   4   1  231.96    8.42
   6   4   2   87.44    4.85
   6   4   3    9.91    1.64
   6   4   4    9.83    1.67
   6   4   5    9.02    1.64
   6   4   6   35.96    3.46
   6   4   6   31.94    2.16
   6   4   7  177.41    8.50
   6   4   7  174.60    5.79
   6   4   8  318.24   12.32
   6   4   8  313.89   12.09
   6   4   8  317.33    8.87
   6   4   9  166.09    8.97
   6   4   9  186.62    9.26
   6   4   9  167.14    6.34
   6   4  10  104.08    7.40
   6   4  10   98.28    6.91
   6   4  10   98.65    5.03
   6   4  11   24.33    3.63
   6   4  11   22.69    2.54
   6   4  11   30.72    3.94
   6   4  12   -0.52    0.62
   6   4  12   -0.88    0.69
   6   4  12    1.60    1.12
   6   4  13    5.17    2.11
   6   4  13    2.76    1.27
   6   4  14    3.05    1.39
   6   4  14    2.51    1.41
   6   4  15    6.03    2.20
   6   4  15    8.26    2.54
   6   5   0  374.98   12.11
   6   5   1  355.11   11.56
   6   5   2  191.90    8.02
   6   5   3   32.12    3.07
   6   5   4   94.50    5.51
   6   5   5  289.41   10.69
   6   5   6  130.00    6.97
   6   5   7   28.21    3.29
   6   5   8   14.84    2.58
   6   5   8   16.53    1.35
   6   5   9   48.21    4.68
   6   5   9   56.10    2.86
   6   5  10  401.92   15.28
   6   5  10  380.15   14.39
   6   5  10  377.37   10.13
   6   5  11  190.81   10.56
   6   5  11  194.81   10.14
   6   5  11  189.35    7.01
   6   5  12  107.07    8.16
   6   5  12  107.26    5.46
   6   5  12  111.92    7.88
   6   5  13   18.86    3.52
   6   5  13   14.72    3.13
   6   5  14    1.96    1.23
   6   5  14    2.84    1.76
   6   5  15   23.38    4.20
   6   5  15   23.21    4.07
   6   5  16   -0.24    0.86
   6   6   0   89.14    5.69
   6   6   1  169.16    7.89
   6   6   2   60.77    4.56
   6   6   3   25.01    2.87
   6   6   4    6.41    1.51
   6   6   5   49.74    2.51
   6   6   5   51.47    4.32
   6   6   6   74.08    5.34
   6   6   7   13.32    2.37
   6   6   8    1.72    0.76
   6   6   9   47.58    4.71
   6   6  10    0.87    0.86
   6   6  10    1.89    0.41
   6   6  11  248.63   12.26
   6   6  11  245.81    6.91
   6   6  12   71.52    6.58
   6   6  12   69.70    6.06
   6   6  13    2.00    1.57
   6   6  13    3.39    1.45
   6   6  14   35.81    5.05
   6   6  14   36.24    4.69
   6   6  15   -0.22    0.72
   6   6  15    1.07    0.96
   6   6  16   -1.87    1.99
   6   7   0   24.69    3.13
   6   7   1   -0.12    0.62
   6   7   2  355.76   12.82
   6   7   3  368.70   11.00
   6   7   3  363.67   12.95
   6   7   4  461.44   11.97
   6   7   4  467.68   15.16
   6   7   5  140.58    5.03
   6   7   5  143.67    7.73
   6   7   6   87.34    6.06
   6   7   7   51.12    4.66
   6   7   8    0.14    0.70
   6   7   9    6.19    1.86
   6   7  10  118.14    8.04
   6   7  11   31.62    4.18
   6   7  12   28.22    4.15
   6   7  13   36.80    4.97
   6   7  14   19.22    3.77
   6   7  14   21.70    3.61
   6   7  15   23.76    4.32
   6   7  15   21.25    3.64
   6   7  16   23.35    4.10
   6   8   0   36.07    3.97
   6   8   1   16.53    2.46
   6   8   1   18.34    2.82
   6   8   2   17.05    2.32
   6   8   2   15.22    2.61
   6   8   3   34.74    3.08
   6   8   3   29.13    3.58
   6   8   4   20.93    2.18
   6   8   4   24.10    3.24
   6   8   5  203.20    6.82
   6   8   5  203.95    9.84
   6   8   6  360.41   13.76
   6   8   7  228.51   10.74
   6   8   8  174.30    9.50
   6   8   9    9.54    2.31
   6   8  10    0.40    0.87
   6   8  11   36.78    4.60
   6   8  12    3.68    1.71
   6   8  13  124.99    9.32
   6   8  14   65.65    6.92
   6   8  15   28.00    4.76
   6   9   1   11.75    2.32
   6   9   2   15.00    2.35
   6   9   2   17.50    2.94
   6   9   3   14.60    2.09
   6   9   3   11.96    2.50
   6   9   4   47.78    3.58
   6   9   4   50.92    4.90
   6   9   5   63.70    3.82
   6   9   5   65.89    5.60
   6   9   6   19.12    3.11
   6   9   7   37.46    4.32
   6   9   8   12.60    2.63
   6   9   9    9.28    2.38
   6   9  10   85.02    7.12
   6   9  11    7.14    2.07
   6   9  12    9.84    2.71
   6   9  13    0.81    0.91
   6   9  14   10.37    2.69
   6  10   1  101.39    7.52
   6  10   2   38.34    4.54
   6  10   3    0.05    0.58
   6  10   3    0.47    0.51
   6  10   4  159.02    7.38
   6  10   4  160.08    9.42
   6  10   5  336.34   14.11
   6  10   6  267.56   12.45
   6  10   7   84.98    6.85
   6  10   8   13.02    2.73
   6  10   9   22.91    3.71
   6  10  10    1.86    1.21
   6  10  11    6.76    2.13
   6  10  12   -0.40    1.43
   6  10  13   13.53    3.11
   6  10  14    3.95    1.86
   6  11   2  129.73    8.94
   6  11   3   11.67    2.63
   6  11   4   14.51    2.26
   6  11   4   18.77    3.28
   6  11   5    3.91    1.63
   6  11   6   11.28    2.53
   6  11   7   14.88    3.07
   6  11   8   28.86    4.18
   6  11   9   53.17    5.72
   6  11  10  146.82    9.88
   6  11  11   71.94    7.02
   6  11  12   46.93    5.76
   6  11  13    2.92    1.76
   6  12   2   17.32    3.27
   6  12   3   18.10    3.44
   6  12   4    9.92    2.71
   6  12   5   20.75    3.65
   6  12   6    2.27    1.34
   6  12   7    0.57    0.73
   6  12   8    5.51    2.00
   6  12   9   44.51    5.47
   6  12  10   40.52    5.32
   6  12  11   51.92    6.06
   6  12  12   28.78    4.59
   6  13   3   34.37    4.95
   6  13   4   40.87    5.30
   6  13   5   43.50    5.53
   6  13   6   56.11    6.18
   6  13   7    1.72    1.11
   6  13   8   10.81    2.65
   6  13   9   17.17    3.48
   6  13  10   19.15    3.71
   6  13  11   32.89    4.94
   6  14   6   44.12    5.81
   6  14   7   28.70    4.74
   6  14   8    0.21    1.32
   7 -12  -2   27.94    4.37
   7 -11  -1   24.27    4.06
   7 -11   0    1.17    0.98
   7 -11   1    5.65    2.27
   7 -11   2   -0.69    1.31
   7 -10   0   38.25    4.90
   7 -10   1    7.65    2.14
   7 -10   1   10.12    1.85
   7 -10   2    7.89    2.31
   7 -10   2   12.84    2.23
   7 -10   3   44.33    5.53
   7 -10   3   46.73    4.61
   7 -10   4    1.32    1.34
   7 -10   4    0.12    0.67
   7 -10   5    4.45    1.87
   7 -10   6    0.04    0.83
   7 -10   7    2.83    1.72
   7  -9  -1    0.80    0.54
   7  -9   0    7.36    1.50
   7  -9   1   38.76    4.78
   7  -9   1   36.53    3.42
   7  -9   2  120.82    8.63
   7  -9   2  123.08    7.00
   7  -9   3   40.02    4.96
   7  -9   3   39.17    4.16
   7  -9   4  116.83    8.79
   7  -9   4  103.45    7.28
   7  -9   5    4.19    1.85
   7  -9   5    3.87    1.69
   7  -9   6   -1.27    1.22
   7  -9   6    0.59    0.82
   7  -9   7    7.73    2.33
   7  -9   8    3.89    2.13
   7  -8  -3   66.35    3.28
   7  -8  -2   26.18    2.28
   7  -8  -1   34.85    2.91
   7  -8   0    4.10    1.16
   7  -8   1   61.42    4.36
   7  -8   1   54.86    4.27
   7  -8   2    0.44    0.67
   7  -8   2    0.06    1.01
   7  -8   2   -0.48    0.79
   7  -8   3   56.71    5.65
   7  -8   3   64.99    5.22
   7  -8   4    3.63    1.45
   7  -8   4    4.02    1.58
   7  -8   5    4.67    1.72
   7  -8   5    9.38    2.16
   7  -8   6   14.05    3.07
   7  -8   6   13.94    2.88
   7  -8   7    1.45    1.09
   7  -8   7    0.42    0.86
   7  -8   8   10.57    2.95
   7  -8   8   11.66    2.87
   7  -7  -2  129.62    4.70
   7  -7  -1   73.67    3.87
   7  -7   0   26.39    2.50
   7  -7   1    0.53    0.44
   7  -7   1    0.16    0.36
   7  -7   2  135.26    7.03
   7  -7   2  148.18    7.18
   7  -7   3   13.48    2.20
   7  -7   3   14.20    2.69
   7  -7   3   13.84    2.32
   7  -7   4   25.28    3.76
   7  -7   4   25.08    3.30
   7  -7   5   58.59    5.72
   7  -7   5   64.56    5.65
   7  -7   6   23.24    3.74
   7  -7   6   22.53    3.45
   7  -7   7   40.78    4.96
   7  -7   7   33.94    4.50
   7  -7   8    2.33    1.37
   7  -7   8    2.92    1.73
   7  -7   9    6.88    2.10
   7  -6  -2  220.53    5.30
   7  -6  -1   58.68    2.94
   7  -6   0  194.67    6.75
   7  -6   1    4.86    1.06
   7  -6   1    3.69    0.93
   7  -6   2    0.80    0.70
   7  -6   2    1.35    0.83
   7  -6   3    0.86    0.88
   7  -6   4    0.97    0.96
   7  -6   4   -0.06    0.51
   7  -6   5    0.15    0.86
   7  -6   5    0.17    0.60
   7  -6   6   53.53    5.33
   7  -6   6   48.92    4.97
   7  -6   7   32.38    4.23
   7  -6   7   28.85    3.97
   7  -6   8   52.99    5.57
   7  -6   8   45.91    5.43
   7  -6   9   47.19    5.63
   7  -6  10    2.57    1.89
   7  -5  -1   90.61    3.05
   7  -5   0   40.79    2.48
   7  -5   1  163.95    6.13
   7  -5   2  179.73    7.91
   7  -5   3    2.24    1.03
   7  -5   4   12.67    2.27
   7  -5   4   12.14    2.25
   7  -5   5   23.37    3.19
   7  -5   5   18.76    2.87
   7  -5   6    9.79    2.22
   7  -5   6    9.43    2.13
   7  -5   7   85.88    6.63
   7  -5   7   87.67    6.92
   7  -5   8   48.17    5.10
   7  -5   8   53.19    5.58
   7  -5   9   23.70    3.90
   7  -5  10   48.15    5.84
   7  -4   0  177.89    8.98
   7  -4   0  169.68    4.97
   7  -4   1  114.54    7.18
   7  -4   2   32.98    3.14
   7  -4   3  142.53    7.18
   7  -4   4    1.85    0.84
   7  -4   5   27.60    3.29
   7  -4   5   29.91    3.50
   7  -4   6   21.61    3.00
   7  -4   6   21.85    3.19
   7  -4   7   48.75    4.62
   7  -4   7   46.25    4.84
   7  -4   8   58.65    5.31
   7  -4   8   49.01    5.29
   7  -4   9   44.94    4.71
   7  -4   9   45.03    5.23
   7  -4  10   10.04    2.57
   7  -4  11    1.66    1.29
   7  -3   0   78.08    5.64
   7  -3   0   72.32    2.52
   7  -3   0   72.80    2.50
   7  -3   1   29.10    3.44
   7  -3   2  148.71    7.96
   7  -3   3  103.93    6.63
   7  -3   3  102.02    5.88
   7  -3   4  347.67   13.15
   7  -3   4  328.58   11.92
   7  -3   5    0.30    0.51
   7  -3   5   -0.17    0.68
   7  -3   6    5.81    1.37
   7  -3   6    6.07    1.68
   7  -3   7    2.37    1.19
   7  -3   7    4.60    1.58
   7  -3   8   46.44    4.42
   7  -3   8   39.89    4.56
   7  -3   9    7.86    1.86
   7  -3   9   10.94    2.57
   7  -3  10   77.59    7.02
   7  -3  11   89.72    7.88
   7  -3  12   35.60    5.19
   7  -2   0   80.12    5.54
   7  -2   0   69.76    2.23
   7  -2   1   84.17    3.40
   7  -2   1   76.75    5.35
   7  -2   2   25.94    3.09
   7  -2   3  300.86   11.54
   7  -2   4   38.39    3.63
   7  -2   4   29.31    3.34
   7  -2   5   29.95    3.38
   7  -2   5   42.04    4.10
   7  -2   6   22.03    2.67
   7  -2   6   20.91    3.03
   7  -2   6   26.41    3.33
   7  -2   7    0.21    0.44
   7  -2   7    1.77    1.03
   7  -2   8   48.26    4.20
   7  -2   8   44.01    4.74
   7  -2   9    1.77    0.92
   7  -2   9    0.89    0.79
   7  -2  10   -1.47    1.44
   7  -2  11    0.30    0.88
   7  -2  12   12.37    2.95
   7  -1   0    0.78    0.26
   7  -1   1  104.90    3.85
   7  -1   1  106.32    6.21
   7  -1   2  667.28   15.19
   7  -1   2  717.54   18.86
   7  -1   3  201.24    8.77
   7  -1   4  133.36    7.05
   7  -1   4  127.97    6.78
   7  -1   5  250.16   10.26
   7  -1   5  258.54   10.42
   7  -1   6    6.17    1.50
   7  -1   6    6.51    1.31
   7  -1   6    8.38    1.74
   7  -1   7   28.48    2.89
   7  -1   7   31.40    3.59
   7  -1   7   29.57    3.60
   7  -1   8   20.76    2.57
   7  -1   8   22.88    3.46
   7  -1   9   14.63    2.23
   7  -1   9   15.22    2.83
   7  -1  10    0.81    0.99
   7  -1  11   36.99    4.85
   7  -1  12   10.24    2.74
   7  -1  13   35.77    5.26
   7   0   0  147.39    4.54
   7   0   1   25.31    1.84
   7   0   2    2.12    0.60
   7   0   2    3.41    1.05
   7   0   3    8.23    1.33
   7   0   3   11.66    1.90
   7   0   4  104.76    5.41
   7   0   4  107.80    5.96
   7   0   5   36.56    3.61
   7   0   5   34.69    3.33
   7   0   6  414.35   11.71
   7   0   6  398.33   13.17
   7   0   6  393.17   13.91
   7   0   7    8.81    1.81
   7   0   7    8.22    1.50
   7   0   7    8.26    1.90
   7   0   8   95.45    5.18
   7   0   8   95.28    6.22
   7   0   8   90.19    6.57
   7   0   9   56.93    4.96
   7   0   9   57.96    5.48
   7   0  10   -2.10    1.46
   7   0  11    6.37    2.04
   7   0  12    8.20    2.31
   7   0  13    2.28    1.46
   7   1   0   83.27    3.65
   7   1   1  206.14    6.54
   7   1   2    4.39    0.91
   7   1   3  144.77    5.96
   7   1   3  145.60    6.74
   7   1   4  235.55    8.51
   7   1   4  247.56    9.07
   7   1   5  479.59   14.11
   7   1   5  481.97   13.95
   7   1   6   82.59    5.74
   7   1   6   79.85    4.98
   7   1   7  259.63    8.24
   7   1   7  270.82   10.04
   7   1   7  238.49   10.64
   7   1   8    5.93    1.10
   7   1   8    5.81    1.41
   7   1   8    5.46    1.55
   7   1   9    3.15    1.16
   7   1   9    5.62    1.76
   7   1  10   28.84    3.46
   7   1  10   33.65    4.25
   7   1  11    2.06    1.05
   7   1  12    3.65    1.40
   7   1  13   -0.53    0.89
   7   1  14    0.70    0.88
   7   2  -1  173.93    6.24
   7   2   0  417.75   10.98
   7   2   1  238.80    7.72
   7   2   2  226.09    7.65
   7   2   3   13.87    1.78
   7   2   4   92.58    5.05
   7   2   4   92.34    5.00
   7   2   5  104.52    5.72
   7   2   5  104.61    5.33
   7   2   6  299.42   11.05
   7   2   6  311.71   10.15
   7   2   7  240.01    7.19
   7   2   7  247.14   10.39
   7   2   7  263.55   10.96
   7   2   7  232.85    8.77
   7   2   8   79.03    3.72
   7   2   8   79.24    4.92
   7   2   8   67.91    5.56
   7   2   9   23.05    2.74
   7   2   9   29.37    3.79
   7   2  10   31.79    3.41
   7   2  10   29.23    3.92
   7   2  11   45.21    4.27
   7   2  11   37.93    4.65
   7   2  12    8.03    2.33
   7   2  13   -0.05    0.73
   7   2  14    4.50    1.76
   7   3   0    3.14    0.86
   7   3   1  132.17    5.82
   7   3   2  352.37   10.65
   7   3   3  167.86    6.96
   7   3   4  186.42    7.68
   7   3   5   50.95    4.00
   7   3   5   53.58    3.50
   7   3   6    4.99    1.35
   7   3   6    4.06    0.93
   7   3   7   20.68    1.50
   7   3   7   16.44    2.49
   7   3   7   19.01    2.10
   7   3   8  140.86    7.95
   7   3   8  144.57    8.12
   7   3   8  134.01    6.10
   7   3   9   45.21    4.61
   7   3   9   44.52    4.58
   7   3   9   45.21    3.53
   7   3  10   46.05    4.90
   7   3  10   41.18    3.58
   7   3  10   46.02    4.88
   7   3  11   28.48    3.12
   7   3  11   36.71    4.51
   7   3  12   24.11    3.05
   7   3  12   25.49    3.88
   7   3  13   45.95    5.54
   7   3  14   -1.07    1.22
   7   4   0   32.33    2.97
   7   4   1   88.59    5.02
   7   4   2   19.66    2.31
   7   4   3   72.62    4.62
   7   4   4   44.59    3.68
   7   4   5   28.26    3.02
   7   4   6   70.66    5.09
   7   4   7    5.79    1.46
   7   4   7    5.64    0.58
   7   4   7    7.07    1.12
   7   4   8    2.83    1.16
   7   4   8    0.65    0.45
   7   4   9  302.85   12.80
   7   4   9  312.05    9.61
   7   4  10   73.09    6.19
   7   4  10   75.11    6.15
   7   4  10   81.65    4.62
   7   4  11   69.58    6.43
   7   4  11   75.25    6.41
   7   4  11   75.35    4.71
   7   4  12   83.98    7.33
   7   4  12   78.31    6.78
   7   4  13    5.00    1.96
   7   4  13    7.26    2.11
   7   4  14   28.16    4.68
   7   4  14   26.79    4.29
   7   4  15   -2.08    1.28
   7   5   0  334.43   11.56
   7   5   1  101.91    5.77
   7   5   2  164.90    7.55
   7   5   3  260.75    9.90
   7   5   4  314.94   11.23
   7   5   5  296.64   11.08
   7   5   6   59.81    4.79
   7   5   7    0.91    0.92
   7   5   8   43.55    4.35
   7   5   9   12.34    1.40
   7   5   9   12.33    2.46
   7   5  10  130.40    5.31
   7   5  10  139.06    8.70
   7   5  11    8.68    1.34
   7   5  11    7.20    2.06
   7   5  11    8.09    2.18
   7   5  12    2.37    1.26
   7   5  12    3.19    1.56
   7   5  13   50.41    5.88
   7   5  13   49.86    5.61
   7   5  14    2.98    1.92
   7   5  14   -0.29    0.90
   7   5  15    4.04    1.64
   7   6   0    3.20    1.29
   7   6   1  147.36    7.54
   7   6   2   96.87    6.02
   7   6   3  241.10    9.93
   7   6   4  280.65   10.96
   7   6   5  182.05    8.69
   7   6   6  197.06    5.28
   7   6   6  200.30    9.37
   7   6   7   57.12    4.95
   7   6   8   42.75    4.42
   7   6   9    3.24    1.19
   7   6  10   12.10    2.56
   7   6  11   47.20    5.21
   7   6  12   21.42    3.66
   7   6  13   -1.10    1.01
   7   6  13   -0.10    0.77
   7   6  14    2.83    1.34
   7   6  14    4.15    1.82
   7   6  15   68.31    7.01
   7   7   0   31.40    3.61
   7   7   1   24.50    3.16
   7   7   2   12.75    2.34
   7   7   3   70.59    5.36
   7   7   4   44.65    3.21
   7   7   4   44.58    4.27
   7   7   5   13.28    2.33
   7   7   5   14.75    1.58
   7   7   6   69.81    3.00
   7   7   6   66.44    5.41
   7   7   7  144.55    8.30
   7   7   8   60.65    5.41
   7   7   9    3.11    1.49
   7   7  10   14.53    2.81
   7   7  11   20.12    3.48
   7   7  12   -0.92    1.21
   7   7  13    9.90    2.57
   7   7  14   12.43    3.02
   7   7  16    7.80    2.68
   7   8   0   77.14    6.05
   7   8   1   25.58    3.41
   7   8   2   35.22    3.48
   7   8   2   33.85    3.91
   7   8   3  123.02    6.32
   7   8   3  118.71    7.47
   7   8   4   68.39    4.23
   7   8   4   71.82    5.70
   7   8   5   35.65    2.72
   7   8   5   35.12    3.97
   7   8   6   79.34    3.57
   7   8   6   76.15    6.01
   7   8   7  119.41    7.73
   7   8   8   42.53    4.70
   7   8   9  116.51    8.01
   7   8  10   10.01    2.41
   7   8  11   52.48    5.65
   7   8  12    3.43    1.96
   7   8  13    9.21    2.72
   7   8  14    7.15    2.17
   7   9   1   85.56    6.72
   7   9   2   83.71    5.74
   7   9   2   84.73    6.59
   7   9   3    0.26    0.62
   7   9   3    0.85    0.86
   7   9   4    1.78    0.86
   7   9   4    1.40    1.24
   7   9   5   17.01    2.01
   7   9   5   10.72    2.24
   7   9   6   11.60    2.50
   7   9   7    1.72    1.27
   7   9   8   18.16    3.10
   7   9   9    9.30    2.38
   7   9  10  101.20    7.85
   7   9  11  124.65    9.06
   7   9  12   89.47    7.81
   7   9  13    1.69    1.66
   7   9  14   -1.84    1.76
   7  10   1   74.25    6.58
   7  10   2   62.34    5.91
   7  10   3   78.06    5.51
   7  10   3   76.76    6.51
   7  10   4    6.55    1.56
   7  10   4   10.23    2.43
   7  10   5    6.82    1.35
   7  10   5    9.66    2.44
   7  10   6   -0.45    0.93
   7  10   7   20.47    3.42
   7  10   8   37.50    4.63
   7  10   9   85.64    7.21
   7  10  10   56.14    5.94
   7  10  11   26.92    4.26
   7  10  12    7.04    2.22
   7  10  13   -1.78    1.25
   7  11   2  130.72    9.12
   7  11   3  136.52    9.29
   7  11   4  119.05    8.51
   7  11   5   18.66    3.47
   7  11   6    1.24    0.89
   7  11   7   12.52    2.91
   7  11   8   41.41    5.08
   7  11   9   30.59    4.51
   7  11  10   33.20    4.63
   7  11  11   56.84    6.33
   7  11  12   12.94    3.14
   7  11  13   31.38    4.87
   7  12   2    2.64    1.47
   7  12   3   11.91    2.82
   7  12   4   56.16    6.08
   7  12   5   48.41    5.62
   7  12   6    2.50    1.53
   7  12   7    1.61    0.81
   7  12   8    5.10    1.58
   7  12   9    2.28    1.65
   7  12  10    5.28    2.14
   7  12  11   -0.04    1.22
   7  13   3   62.79    6.79
   7  13   4   19.55    3.80
   7  13   5   31.14    4.65
   7  13   6    6.58    2.39
   7  13   7    2.29    1.01
   7  13   8    4.14    1.46
   7  13   9    1.35    1.26
   7  13  10    1.76    0.95
   8 -10   1   15.13    3.26
   8 -10   2    3.93    1.57
   8 -10   3    8.85    2.68
   8 -10   5    1.65    1.12
   8 -10   6   10.47    2.67
   8  -9   2   23.19    3.91
   8  -9   2   28.17    3.32
   8  -9   3   22.62    3.79
   8  -9   3   28.92    3.66
   8  -9   4    8.54    2.62
   8  -9   4    6.73    1.90
   8  -9   5   34.78    4.92
   8  -9   5   29.65    4.12
   8  -9   6    1.74    1.35
   8  -9   7    8.28    2.42
   8  -8   2    3.35    1.04
   8  -8   3    0.60    0.86
   8  -8   3   -0.13    0.57
   8  -8   4   61.00    6.14
   8  -8   4   51.00    4.97
   8  -8   5    7.33    2.25
   8  -8   5    4.56    1.80
   8  -8   6   25.16    4.14
   8  -8   6   22.06    3.74
   8  -8   7   22.42    4.04
   8  -8   7   22.03    3.86
   8  -8   8   -0.58    1.05
   8  -7  -2    2.19    0.36
   8  -7  -1   83.89    3.76
   8  -7   0   45.92    3.16
   8  -7   1    0.08    0.46
   8  -7   2   87.12    5.70
   8  -7   2   76.45    5.03
   8  -7   3   -0.36    0.69
   8  -7   3   -0.41    0.78
   8  -7   3   -0.56    0.87
   8  -7   4    1.50    1.22
   8  -7   4    0.20    0.57
   8  -7   5   11.08    2.50
   8  -7   5    8.19    2.04
   8  -7   6   11.24    2.62
   8  -7   6   11.87    2.50
   8  -7   7    2.79    1.66
   8  -7   7   18.73    3.69
   8  -7   8   24.80    4.15
   8  -7   8   27.02    4.34
   8  -7   9    4.54    1.74
   8  -6  -1   88.71    3.11
   8  -6   0   45.02    2.79
   8  -6   1  169.33    6.62
   8  -6   2    0.26    0.42
   8  -6   3   45.08    4.21
   8  -6   4    5.38    1.73
   8  -6   4    4.05    1.32
   8  -6   5   31.23    4.04
   8  -6   5   26.57    3.60
   8  -6   6    8.20    2.29
   8  -6   6    5.96    1.87
   8  -6   7   16.14    3.09
   8  -6   7   15.81    3.16
   8  -6   8    0.04    0.84
   8  -6   8    0.44    0.76
   8  -6   9   17.53    3.46
   8  -6   9   14.83    3.24
   8  -5   0  103.21    3.86
   8  -5   1    0.65    0.25
   8  -5   3    3.44    1.29
   8  -5   4   96.03    6.43
   8  -5   5   65.28    5.62
   8  -5   5   75.97    6.02
   8  -5   6    4.74    1.47
   8  -5   6    4.73    1.52
   8  -5   7   -0.34    0.91
   8  -5   7    2.66    1.04
   8  -5   8   29.03    4.01
   8  -5   8   21.99    3.63
   8  -5   9   10.76    2.69
   8  -5   9    5.14    1.90
   8  -5  10   18.72    3.78
   8  -4   0   18.86    1.22
   8  -4   0   19.59    1.24
   8  -4   4    8.94    1.98
   8  -4   5   69.11    5.43
   8  -4   5   68.41    5.52
   8  -4   6   73.07    5.70
   8  -4   6   68.58    5.82
   8  -4   7   -0.08    0.70
   8  -4   7    0.49    0.72
   8  -4   8    2.47    1.01
   8  -4   8    3.41    1.36
   8  -4   9    7.35    1.87
   8  -4   9    6.40    2.14
   8  -4  10   27.52    4.52
   8  -4  11    3.27    1.94
   8  -3   1   96.53    3.85
   8  -3   4    2.87    1.11
   8  -3   5   97.75    6.64
   8  -3   6   27.61    3.29
   8  -3   6   28.80    3.66
   8  -3   7   38.53    3.96
   8  -3   7   34.98    4.21
   8  -3   8    4.83    1.56
   8  -3   8    6.08    1.86
   8  -3   9   -1.36    1.25
   8  -3   9    0.38    0.74
   8  -3  10   19.89    3.58
   8  -3  11   10.78    2.85
   8  -2   1    2.47    0.56
   8  -2   1    1.89    0.46
   8  -2   2    3.94    0.92
   8  -2   2    2.91    1.22
   8  -2   3   12.71    2.34
   8  -2   5   22.66    3.09
   8  -2   6  108.90    6.34
   8  -2   6  106.90    7.05
   8  -2   7  103.35    6.28
   8  -2   7  100.25    7.18
   8  -2   8   18.88    2.68
   8  -2   8   22.63    3.48
   8  -2   9   55.36    4.82
   8  -2   9   62.53    6.11
   8  -2  10    0.39    1.34
   8  -2  11   -0.72    1.07
   8  -2  12   13.96    3.23
   8  -1   0    6.31    0.64
   8  -1   1   10.85    1.15
   8  -1   2    6.99    1.67
   8  -1   2    5.85    0.97
   8  -1   3   38.76    3.89
   8  -1   3   40.07    2.99
   8  -1   4    3.41    1.22
   8  -1   5  145.61    7.92
   8  -1   6    2.17    0.97
   8  -1   6    2.52    1.22
   8  -1   7   55.85    4.23
   8  -1   7   48.28    4.85
   8  -1   8   67.97    4.85
   8  -1   8   67.33    5.98
   8  -1   9    1.17    0.64
   8  -1   9    2.58    1.30
   8  -1  10   44.60    5.22
   8  -1  11    4.28    2.01
   8  -1  12    0.42    0.74
   8   0   0  384.41    8.92
   8   0   1  223.94    6.63
   8   0   2    1.46    0.45
   8   0   3   36.40    2.83
   8   0   3   42.57    3.90
   8   0   4  296.49    9.95
   8   0   4  306.20   11.42
   8   0   5  246.00    9.53
   8   0   5  244.78   10.18
   8   0   6   53.54    4.55
   8   0   6   44.11    4.36
   8   0   7    0.25    0.53
   8   0   7    0.88    0.53
   8   0   7    0.89    0.78
   8   0   8    2.79    1.24
   8   0   8    2.81    0.90
   8   0   8    4.27    1.67
   8   0   9   64.58    4.45
   8   0   9   57.32    5.60
   8   0  10    9.01    2.30
   8   0  11    8.35    2.32
   8   0  12   37.63    5.07
   8   0  13   -1.22    1.49
   8   1   0  220.15    6.72
   8   1   1  187.63    6.37
   8   1   2  211.69    7.21
   8   1   3   85.34    4.54
   8   1   4   65.00    4.65
   8   1   4   60.37    4.08
   8   1   5    2.34    0.95
   8   1   5    4.61    1.25
   8   1   6   57.49    4.49
   8   1   6   56.32    4.57
   8   1   7    6.65    1.60
   8   1   7    6.06    1.53
   8   1   7    5.36    1.16
   8   1   7    7.73    1.98
   8   1   8   36.61    3.00
   8   1   8   36.27    4.22
   8   1   8   34.66    3.66
   8   1   9   27.66    2.66
   8   1   9   28.72    3.46
   8   1   9   31.64    4.08
   8   1  10   18.17    3.29
   8   1  11   67.49    6.55
   8   1  12    2.98    1.15
   8   1  13   16.61    3.52
   8   2   0   17.53    1.85
   8   2   1   31.93    2.57
   8   2   2   12.75    1.67
   8   2   3   81.05    4.60
   8   2   4   42.21    3.40
   8   2   5    1.38    0.64
   8   2   5    1.01    0.56
   8   2   6    1.66    0.81
   8   2   6    0.85    0.74
   8   2   7  150.81    7.18
   8   2   7  147.63    7.90
   8   2   7  148.73    5.73
   8   2   8    3.62    1.04
   8   2   8    6.17    1.77
   8   2   8    4.84    0.94
   8   2   8    6.15    1.81
   8   2   9    3.05    1.07
   8   2   9    3.11    0.79
   8   2   9    3.24    1.35
   8   2   9    2.63    1.19
   8   2  10   77.29    5.57
   8   2  10   79.27    6.70
   8   2  11   24.75    3.23
   8   2  11   24.47    3.86
   8   2  12   81.85    7.37
   8   2  13   10.85    2.79
   8   2  14   27.96    4.77
   8   3   0    3.63    0.98
   8   3   1   42.87    3.29
   8   3   2  365.99   11.26
   8   3   3  529.13   14.60
   8   3   4  141.05    6.75
   8   3   5  171.06    7.84
   8   3   6    3.10    0.95
   8   3   6    2.56    0.75
   8   3   7   12.13    1.81
   8   3   7    8.30    1.85
   8   3   8    6.59    1.38
   8   3   8    8.01    1.08
   8   3   8    5.17    1.53
   8   3   9    1.25    0.82
   8   3   9    3.09    1.40
   8   3  10    8.53    1.70
   8   3  10    8.66    2.16
   8   3  10    8.89    2.18
   8   3  11   72.46    6.60
   8   3  11   66.90    5.04
   8   3  11   66.37    6.31
   8   3  12    9.07    2.57
   8   3  12    8.65    2.35
   8   3  13   33.44    5.01
   8   3  13   34.12    4.85
   8   3  14   22.11    4.29
   8   3  14   19.86    3.93
   8   4   0   80.00    4.92
   8   4   1    6.58    1.39
   8   4   2   96.84    5.45
   8   4   3   14.36    2.03
   8   4   4  102.11    5.89
   8   4   5   50.05    4.17
   8   4   6   99.49    6.23
   8   4   7   59.52    5.01
   8   4   8   21.24    2.23
   8   4   8   23.53    3.22
   8   4   8   22.78    1.29
   8   4   9   10.80    1.66
   8   4   9   17.29    2.97
   8   4  10   37.29    3.21
   8   4  10   42.06    4.82
   8   4  11    3.09    1.42
   8   4  11    5.30    1.81
   8   4  12   36.80    4.86
   8   4  12   34.77    4.70
   8   4  13   47.54    5.83
   8   4  13   49.53    5.77
   8   4  14   45.29    6.07
   8   4  14   40.00    5.36
   8   5   0  118.96    6.54
   8   5   1   98.94    5.83
   8   5   2   37.46    3.55
   8   5   3   16.83    2.39
   8   5   4    6.44    1.54
   8   5   5   15.84    2.42
   8   5   6   56.79    4.77
   8   5   7   56.36    4.94
   8   5   8   65.10    5.54
   8   5   9    3.47    0.83
   8   5   9    2.91    1.37
   8   5  10   -0.23    0.38
   8   5  10   -0.30    1.04
   8   5  11    0.50    0.82
   8   5  12    2.49    1.54
   8   5  13    3.58    1.84
   8   5  13    4.88    1.86
   8   5  14   17.84    3.67
   8   5  14   19.58    3.75
   8   6   0    7.99    1.90
   8   6   1   14.18    2.32
   8   6   2  118.28    6.85
   8   6   3   37.68    3.77
   8   6   4    2.91    1.08
   8   6   5  118.40    7.06
   8   6   6  280.11   11.63
   8   6   7  410.38    8.15
   8   6   7  421.42   15.11
   8   6   8  153.77    8.79
   8   6   9  109.03    7.61
   8   6  10    8.17    2.19
   8   6  11    2.13    1.45
   8   6  12   -0.79    1.33
   8   6  13   15.52    3.36
   8   6  14    7.20    2.28
   8   6  15    6.47    2.29
   8   7   0   56.05    5.00
   8   7   1    3.34    1.24
   8   7   2   26.26    3.33
   8   7   3   20.77    2.99
   8   7   4    0.36    0.57
   8   7   5   14.03    2.46
   8   7   6    6.28    0.99
   8   7   6    3.12    1.11
   8   7   7    0.45    0.60
   8   7   7    0.43    0.15
   8   7   8  145.03    8.75
   8   7   9   96.88    7.31
   8   7  10   81.50    6.86
   8   7  11    9.24    2.45
   8   7  12    9.12    2.63
   8   7  13   59.01    6.52
   8   7  14    3.60    1.88
   8   8   1   90.43    6.72
   8   8   2    6.04    1.70
   8   8   3   19.38    2.55
   8   8   3   18.41    3.00
   8   8   4    9.04    1.58
   8   8   4   10.38    2.27
   8   8   5    0.61    0.37
   8   8   5    0.74    0.78
   8   8   6    0.77    0.87
   8   8   6    0.92    0.39
   8   8   7   25.61    3.65
   8   8   8    5.19    1.84
   8   8   9   10.96    2.46
   8   8  10   30.07    4.27
   8   8  11    7.86    2.33
   8   8  12   23.29    4.03
   8   8  13   31.60    4.88
   8   8  14   10.03    2.69
   8   9   1   66.84    5.99
   8   9   2   93.25    7.04
   8   9   3   43.16    4.00
   8   9   3   45.42    4.88
   8   9   4   96.91    5.63
   8   9   4   96.10    7.14
   8   9   5   31.30    2.83
   8   9   5   33.32    4.19
   8   9   6   14.85    2.80
   8   9   7   46.98    5.09
   8   9   8   54.35    5.53
   8   9   9   80.45    7.01
   8   9  10   34.68    4.74
   8   9  11   33.81    4.73
   8   9  12    5.54    2.23
   8   9  13    3.38    1.26
   8  10   1    7.18    2.10
   8  10   2   51.35    5.44
   8  10   3   89.49    7.17
   8  10   4   64.81    6.13
   8  10   5   35.93    4.56
   8  10   6   11.01    2.53
   8  10   7    6.51    2.00
   8  10   8   -0.73    1.44
   8  10   9    0.99    1.09
   8  10  10    5.80    1.97
   8  10  11   18.75    3.62
   8  10  12   77.90    7.53
   8  10  13   40.59    5.65
   8  11   2   43.34    5.28
   8  11   3   84.58    7.31
   8  11   4   19.63    3.58
   8  11   5    5.78    2.10
   8  11   6   28.71    4.28
   8  11   7   14.89    3.15
   8  11   8    7.98    2.17
   8  11   9    2.21    1.41
   8  11  10    5.14    1.87
   8  11  11   26.96    4.42
   8  11  12   48.51    6.11
   8  12   2   10.36    2.78
   8  12   3   11.56    2.91
   8  12   4   10.90    2.76
   8  12   5    4.03    1.84
   8  12   6   15.48    3.32
   8  12   7   49.29    5.85
   8  12   8   56.18    6.39
   8  12   9   50.86    6.00
   8  12  10    4.43    1.80
   8  13   5   19.65    3.85
   8  13   6   12.68    3.21
   8  13   7    8.83    2.83
   9  -9   2    3.56    1.43
   9  -9   3    5.37    2.26
   9  -9   3    5.48    1.58
   9  -9   4    3.84    2.08
   9  -9   4    2.25    1.30
   9  -9   5    1.48    1.45
   9  -9   6   14.29    3.16
   9  -9   7    3.09    1.59
   9  -8   3    4.25    1.75
   9  -8   3    2.05    0.98
   9  -8   4    1.56    1.21
   9  -8   4    0.29    0.89
   9  -8   5   12.93    2.98
   9  -8   5    9.37    2.44
   9  -8   6    0.03    1.13
   9  -8   6   -1.83    1.05
   9  -8   7   21.36    3.96
   9  -8   8    3.57    1.82
   9  -7   3   41.51    4.32
   9  -7   4   10.64    2.62
   9  -7   4    5.91    1.81
   9  -7   5   39.86    5.05
   9  -7   5   40.82    4.66
   9  -7   6    0.59    0.74
   9  -7   6    0.97    1.25
   9  -7   7    1.08    0.96
   9  -7   7    0.71    0.83
   9  -7   8    0.55    1.03
   9  -7   8    1.40    1.05
   9  -6   3   39.18    3.51
   9  -6   4   77.25    6.52
   9  -6   4   67.12    5.71
   9  -6   5   18.84    3.30
   9  -6   5   19.69    3.22
   9  -6   6   15.18    3.04
   9  -6   6   12.10    2.79
   9  -6   7    0.29    0.83
   9  -6   7   -1.22    1.10
   9  -6   8   10.91    2.60
   9  -6   8   10.05    2.56
   9  -6   9    3.49    1.46
   9  -6   9    3.93    1.57
   9  -5   0    7.04    0.66
   9  -5   0    6.86    0.65
   9  -5   1   32.10    2.30
   9  -5   2    0.48    0.30
   9  -5   4   25.10    3.35
   9  -5   5   21.39    3.37
   9  -5   5   17.77    3.04
   9  -5   6   26.14    3.76
   9  -5   6   23.45    3.65
   9  -5   7    8.05    2.01
   9  -5   7    6.38    2.19
   9  -5   8    8.36    1.95
   9  -5   8    7.60    2.30
   9  -5   9   14.73    3.00
   9  -5   9   13.99    3.13
   9  -4   1   17.71    1.57
   9  -4   1   18.28    1.55
   9  -4   5   38.49    4.31
   9  -4   6   28.24    3.65
   9  -4   6   23.68    3.54
   9  -4   7   57.99    5.42
   9  -4   7   65.63    6.11
   9  -4   8   -0.41    0.76
   9  -4   8   -1.25    1.51
   9  -4   9   23.10    3.62
   9  -4   9   24.86    4.09
   9  -4  10    1.46    1.22
   9  -4  10    1.03    1.06
   9  -3   1    1.54    0.41
   9  -3   2   17.39    1.82
   9  -3   5   78.57    6.08
   9  -3   6   72.77    5.65
   9  -3   6   79.82    6.42
   9  -3   7    6.40    1.71
   9  -3   7    3.67    1.42
   9  -3   8   71.68    5.79
   9  -3   8   65.01    6.23
   9  -3   9    5.55    1.82
   9  -3   9    3.66    1.55
   9  -3  10    1.92    0.82
   9  -3  10    3.08    1.65
   9  -3  11    6.51    2.38
   9  -2   1   57.93    2.61
   9  -2   2    3.67    0.80
   9  -2   3    2.89    0.82
   9  -2   6   44.72    4.73
   9  -2   7   98.38    6.36
   9  -2   7  101.01    7.37
   9  -2   8   32.25    3.65
   9  -2   8   30.53    4.26
   9  -2   9   27.40    3.40
   9  -2   9   27.54    4.09
   9  -2  10   37.48    4.12
   9  -2  10   40.63    5.39
   9  -2  11    0.38    1.03
   9  -1   0  160.12    3.76
   9  -1   1   59.76    2.81
   9  -1   2   16.21    1.68
   9  -1   3    0.27    0.38
   9  -1   4    6.84    1.42
   9  -1   7    1.60    0.77
   9  -1   7    3.66    1.34
   9  -1   8   15.53    2.37
   9  -1   8   15.00    2.85
   9  -1   9   85.20    5.77
   9  -1   9   83.23    7.19
   9  -1  10   26.50    3.22
   9  -1  10   23.12    3.95
   9  -1  11   76.00    7.39
   9  -1  12   -1.10    0.86
   9   0   0   77.97    3.13
   9   0   1   77.48    3.56
   9   0   2   79.43    4.01
   9   0   3    7.55    1.28
   9   0   3    8.21    1.80
   9   0   4   22.42    2.51
   9   0   4   26.71    3.28
   9   0   5    5.82    1.38
   9   0   5    9.43    1.98
   9   0   6    7.41    1.64
   9   0   6    6.61    1.69
   9   0   7   50.67    3.94
   9   0   8  101.12    5.75
   9   0   8   93.33    7.21
   9   0   9   16.91    2.40
   9   0   9   20.42    3.49
   9   0  10   77.67    5.24
   9   0  10   78.47    7.17
   9   0  11    1.56    1.22
   9   0  12   21.58    4.05
   9   1   0    8.50    1.15
   9   1   1  116.71    4.89
   9   1   2  157.71    6.19
   9   1   3  272.84    9.14
   9   1   4  145.17    6.73
   9   1   4  142.36    7.66
   9   1   5  172.06    7.79
   9   1   5  161.44    8.14
   9   1   6   17.58    2.54
   9   1   6   13.89    2.34
   9   1   7   25.19    3.30
   9   1   7   27.33    3.27
   9   1   8    1.31    0.54
   9   1   8    0.60    0.55
   9   1   8    1.28    0.85
   9   1   9   66.16    4.30
   9   1   9   61.12    5.95
   9   1  10    6.60    1.36
   9   1  10    4.91    1.74
   9   1  11   59.26    6.28
   9   1  12   53.94    6.29
   9   2   0   30.43    2.51
   9   2   1   24.11    2.32
   9   2   2   -0.49    0.40
   9   2   3   32.86    2.96
   9   2   4  182.07    7.78
   9   2   5   52.25    4.34
   9   2   5   58.77    4.47
   9   2   6   20.34    2.61
   9   2   6   19.10    2.62
   9   2   7   84.08    5.61
   9   2   7   88.63    6.14
   9   2   8   52.21    4.42
   9   2   8   57.14    3.60
   9   2   8   55.55    5.10
   9   2   9   26.49    3.20
   9   2   9   27.87    3.83
   9   2   9   26.87    2.42
   9   2  10    1.22    0.71
   9   2  10   -0.70    0.70
   9   2  10    0.17    0.66
   9   2  11   13.98    3.04
   9   2  11   14.49    3.09
   9   2  12   26.30    4.28
   9   2  12   31.16    4.72
   9   2  13   65.26    6.98
   9   3   0   29.55    2.76
   9   3   1    1.85    0.66
   9   3   2    7.20    1.43
   9   3   3  147.54    6.88
   9   3   4  119.68    6.36
   9   3   5   32.84    3.37
   9   3   6   55.68    4.65
   9   3   7    2.72    0.85
   9   3   7    4.23    1.26
   9   3   8   65.06    4.66
   9   3   8   69.61    3.56
   9   3   8   64.59    5.52
   9   3   9   48.86    4.10
   9   3   9   43.76    4.77
   9   3   9   45.77    2.73
   9   3  10    0.64    0.52
   9   3  10    2.36    1.34
   9   3  11    2.57    1.56
   9   3  11    1.97    0.70
   9   3  12   45.81    5.70
   9   3  12   49.63    5.82
   9   3  13   22.13    4.00
   9   3  13   26.98    4.50
   9   4   0  238.85    9.23
   9   4   1   62.09    4.40
   9   4   2   14.21    2.06
   9   4   3   43.50    3.78
   9   4   4   29.71    3.17
   9   4   5  142.76    7.49
   9   4   6  100.20    6.42
   9   4   7  125.15    7.51
   9   4   8   44.68    3.61
   9   4   8   47.92    2.46
   9   4   8   43.59    4.53
   9   4   9   59.55    4.16
   9   4   9   58.74    5.49
   9   4  10   19.70    3.54
   9   4  11   -0.28    0.73
   9   4  12    3.99    1.61
   9   4  13   12.13    3.03
   9   4  13    9.83    2.86
   9   5   0  123.11    6.80
   9   5   1   19.18    2.55
   9   5   2    1.57    0.58
   9   5   3    0.05    0.62
   9   5   4   44.01    4.03
   9   5   5   81.73    5.76
   9   5   6  113.59    7.01
   9   5   7   32.33    3.82
   9   5   8   19.41    1.14
   9   5   8   22.56    3.29
   9   5   9   13.54    2.71
   9   5  10   51.07    5.39
   9   5  11   57.52    6.05
   9   5  12    1.63    1.20
   9   5  13    1.92    1.44
   9   5  14    1.91    0.99
   9   6   0   48.38    4.44
   9   6   1   19.25    2.78
   9   6   2    0.51    0.52
   9   6   3    2.64    1.12
   9   6   4    6.12    1.56
   9   6   5   31.80    3.64
   9   6   6   45.66    4.50
   9   6   7    2.91    1.38
   9   6   8   21.49    3.31
   9   6   9   65.40    5.94
   9   6  10   89.24    7.25
   9   6  11   33.47    4.60
   9   6  12   21.92    3.92
   9   6  13    1.74    1.63
   9   7   1   20.32    3.04
   9   7   2  130.49    7.80
   9   7   3  120.27    7.46
   9   7   4   47.21    4.63
   9   7   5    7.63    1.93
   9   7   6    9.89    2.23
   9   7   7   46.60    4.83
   9   7   8   83.78    6.74
   9   7   9   82.13    6.83
   9   7  10   23.06    3.69
   9   7  11   40.02    5.11
   9   7  12   49.82    5.88
   9   7  13   26.27    4.48
   9   8   1    6.91    1.88
   9   8   2   37.24    4.30
   9   8   3  116.13    7.67
   9   8   4  126.34    8.08
   9   8   5   88.61    5.00
   9   8   5  105.00    7.41
   9   8   6   40.35    4.69
   9   8   7   -1.28    1.15
   9   8   8   43.54    4.96
   9   8   9   14.75    2.88
   9   8  10    3.13    1.39
   9   8  11    0.48    0.88
   9   8  12    2.38    1.57
   9   8  13   41.16    5.65
   9   9   1   24.55    3.76
   9   9   2   32.95    4.25
   9   9   3   49.11    5.17
   9   9   4  100.98    7.52
   9   9   5   84.38    6.89
   9   9   6   37.17    4.57
   9   9   7    2.67    1.24
   9   9   8    3.17    1.31
   9   9   9   16.26    3.26
   9   9  10   37.55    5.00
   9   9  11   40.68    5.29
   9   9  12   36.31    5.26
   9  10   2    4.22    2.01
   9  10   3    4.88    1.82
   9  10   4   28.11    4.09
   9  10   5   73.93    6.72
   9  10   6   82.02    7.10
   9  10   7  110.61    8.41
   9  10   8   64.11    6.51
   9  10   9   13.23    2.96
   9  10  10    3.28    1.61
   9  10  11    6.63    2.21
   9  10  12   13.02    3.07
   9  11   2    0.36    0.75
   9  11   3   -0.64    0.89
   9  11   4   -1.21    1.16
   9  11   5    1.06    1.09
   9  11   6   15.46    3.25
   9  11   7   34.45    4.79
   9  11   8   33.27    4.75
   9  11   9   34.68    5.07
   9  11  10   15.01    3.22
   9  11  11    2.83    1.22
   9  12   3    0.96    0.84
   9  12   4   26.97    4.40
   9  12   5   32.30    4.77
   9  12   6   34.15    4.95
   9  12   7   29.94    4.67
   9  12   8   23.40    4.15
   9  12   9   15.83    3.42
  10  -8   3    6.64    2.17
  10  -8   4   18.24    3.62
  10  -8   5    0.83    0.83
  10  -8   5    2.15    1.47
  10  -8   6   -1.54    1.48
  10  -8   7    3.54    1.40
  10  -7   4   27.95    4.23
  10  -7   5    4.30    1.66
  10  -7   5    0.93    0.85
  10  -7   6    4.33    1.59
  10  -7   6    3.62    1.71
  10  -7   7    5.78    2.19
  10  -7   7    5.49    2.05
  10  -7   8    0.36    0.93
  10  -6   5   19.15    3.42
  10  -6   5   15.55    2.99
  10  -6   6   -0.51    0.97
  10  -6   6    3.26    1.46
  10  -6   7   24.01    3.96
  10  -6   7   24.97    4.11
  10  -6   8    9.01    2.58
  10  -6   8   10.20    2.75
  10  -6   9   13.37    3.27
  10  -5   5    4.06    1.48
  10  -5   6   34.01    4.40
  10  -5   6   28.96    4.05
  10  -5   7    7.08    2.21
  10  -5   7    5.37    1.86
  10  -5   8    4.79    1.83
  10  -5   8    6.90    2.36
  10  -5   9    1.84    1.33
  10  -5   9    3.09    1.51
  10  -5  10    1.60    1.19
  10  -4   1  142.53    4.17
  10  -4   2   46.29    3.02
  10  -4   6   47.61    5.03
  10  -4   6   51.53    5.39
  10  -4   7   51.11    5.20
  10  -4   7   44.79    5.24
  10  -4   8   19.05    3.21
  10  -4   8   17.73    3.50
  10  -4   9    0.69    1.04
  10  -4   9    0.22    1.07
  10  -4  10    7.80    2.32
  10  -3   1   -0.12    0.20
  10  -3   1    0.39    0.32
  10  -3   2    4.19    0.85
  10  -3   3   66.32    4.11
  10  -3   6   24.02    3.33
  10  -3   7   39.54    4.33
  10  -3   7   43.65    5.08
  10  -3   8    3.70    1.43
  10  -3   8   10.01    2.85
  10  -3   9   37.50    4.48
  10  -3   9   37.45    5.20
  10  -3  10    1.03    0.79
  10  -3  10   -1.74    1.52
  10  -2   1   25.32    1.45
  10  -2   2   26.98    2.12
  10  -2   3   16.48    1.92
  10  -2   4   45.30    3.67
  10  -2   5   -0.10    0.47
  10  -2   7    4.81    1.29
  10  -2   8   90.01    6.37
  10  -2   8   78.94    7.04
  10  -2   9   23.64    3.27
  10  -2   9   21.84    3.87
  10  -2  10   39.73    4.36
  10  -2  10   38.61    5.30
  10  -1   1  114.90    3.92
  10  -1   2   96.38    4.30
  10  -1   3  172.61    6.80
  10  -1   4   79.83    4.84
  10  -1   5   21.85    2.73
  10  -1   6    3.89    1.22
  10  -1   7   33.74    3.58
  10  -1   8   14.66    2.36
  10  -1   8   15.79    3.11
  10  -1   9   39.19    4.00
  10  -1   9   35.72    4.85
  10  -1  10    8.81    1.95
  10  -1  10    8.89    2.70
  10  -1  11    2.60    1.42
  10   0   1   11.31    1.28
  10   0   2   55.25    3.31
  10   0   3   46.57    3.34
  10   0   4   62.71    4.27
  10   0   5  109.10    6.17
  10   0   6   56.49    4.70
  10   0   7   23.81    3.24
  10   0   8    0.09    0.45
  10   0   8    1.58    1.18
  10   0   9    5.74    1.40
  10   0   9    6.80    2.32
  10   0  10   17.50    2.50
  10   0  10   13.80    3.08
  10   0  11   38.47    5.29
  10   1   0    4.92    0.94
  10   1   1   25.38    2.20
  10   1   2   58.52    3.66
  10   1   3   20.99    2.31
  10   1   4   13.53    1.97
  10   1   5   46.75    4.00
  10   1   6  106.28    6.52
  10   1   7   18.87    2.88
  10   1   8   10.70    1.78
  10   1   8   14.00    2.72
  10   1   9    2.75    0.80
  10   1   9    0.93    0.94
  10   1  10   17.44    3.24
  10   1  10   18.14    3.42
  10   1  11    1.93    1.37
  10   1  11    1.89    1.21
  10   1  12   58.58    6.63
  10   2   0    1.35    0.64
  10   2   1    1.00    0.67
  10   2   2    1.58    0.71
  10   2   3    3.55    1.07
  10   2   4   24.96    2.79
  10   2   5  105.91    6.18
  10   2   6   51.26    4.59
  10   2   6   51.90    4.49
  10   2   7  103.40    6.60
  10   2   7  107.59    6.89
  10   2   8  103.33    6.71
  10   2   8   98.64    5.17
  10   2   8   98.26    6.94
  10   2   9   27.06    2.58
  10   2   9   25.26    3.63
  10   2  10   31.79    4.37
  10   2  11    1.65    1.89
  10   2  12    6.25    2.20
  10   2  12    8.55    2.58
  10   2  13   25.77    4.58
  10   3   0   45.88    3.51
  10   3   1   12.74    1.87
  10   3   2    0.63    0.53
  10   3   3   21.05    2.55
  10   3   4  101.87    5.94
  10   3   5    0.20    0.46
  10   3   6    1.54    0.76
  10   3   7   28.55    3.55
  10   3   8   26.80    3.12
  10   3   8   26.94    3.70
  10   3   8   31.46    2.54
  10   3   9   54.49    4.57
  10   3   9   53.97    5.33
  10   3   9   57.63    3.37
  10   3  10   22.01    3.52
  10   3  11   19.11    3.44
  10   3  12    4.66    2.11
  10   3  13   -0.13    1.01
  10   4   0  106.86    5.96
  10   4   1  102.67    5.87
  10   4   2   17.66    2.39
  10   4   3   46.61    4.04
  10   4   4   56.23    4.58
  10   4   5   52.25    4.49
  10   4   6   14.98    2.48
  10   4   7    3.82    1.35
  10   4   8   10.83    2.23
  10   4   9   21.16    3.41
  10   4  10   46.02    5.18
  10   4  11   18.15    3.57
  10   4  12    5.74    2.14
  10   4  13    0.25    0.79
  10   5   1  128.40    7.09
  10   5   2   44.05    4.07
  10   5   3   74.67    5.38
  10   5   4   79.36    5.69
  10   5   5    6.81    1.75
  10   5   6    4.44    1.37
  10   5   7   21.53    3.16
  10   5   8   82.56    6.55
  10   5   9  132.95    8.65
  10   5  10   85.66    7.27
  10   5  11   54.27    5.99
  10   5  12   14.04    3.18
  10   5  13    2.30    1.48
  10   6   1   39.22    4.09
  10   6   2   68.61    5.39
  10   6   3   86.53    6.13
  10   6   4   16.14    2.66
  10   6   5    3.35    1.28
  10   6   6   37.22    4.16
  10   6   7    3.30    1.47
  10   6   8   -0.55    1.01
  10   6   9    2.05    1.07
  10   6  10    0.58    0.67
  10   6  11   10.17    2.72
  10   6  12   13.69    3.16
  10   6  13   27.37    4.62
  10   7   1   55.85    5.14
  10   7   2   88.34    6.50
  10   7   3   99.73    6.94
  10   7   4  101.68    7.04
  10   7   5   93.13    6.85
  10   7   6   50.06    5.07
  10   7   7    0.28    0.84
  10   7   8    6.13    2.03
  10   7   9   23.91    3.76
  10   7  10   20.47    3.65
  10   7  11   -1.04    1.17
  10   7  12   13.85    3.13
  10   7  13   15.77    3.40
  10   8   1    3.64    1.57
  10   8   2   -0.09    1.22
  10   8   3   29.19    3.90
  10   8   4   41.36    4.68
  10   8   5   78.13    6.47
  10   8   6  113.64    8.00
  10   8   7   65.84    6.13
  10   8   8    0.55    0.69
  10   8   9    3.68    1.80
  10   8  10    4.35    1.95
  10   8  11   33.75    4.88
  10   8  12   18.06    3.65
  10   9   2    8.74    2.18
  10   9   3    4.55    1.63
  10   9   4   15.97    2.96
  10   9   5   43.09    5.01
  10   9   6   82.07    6.98
  10   9   7   74.79    6.79
  10   9   8   15.83    3.16
  10   9   9    3.58    1.68
  10   9  10    0.66    1.18
  10   9  11    0.26    0.79
  10   9  12   -0.76    1.29
  10  10   2    3.51    1.51
  10  10   3    0.58    0.87
  10  10   4    8.42    2.15
  10  10   5   48.20    5.54
  10  10   6   47.02    5.45
  10  10   7   41.53    5.24
  10  10   8   48.89    5.74
  10  10   9   22.30    3.83
  10  10  10    6.91    2.19
  10  10  11    4.98    2.43
  10  11   2   17.89    3.73
  10  11   3    6.99    2.13
  10  11   4   -0.28    0.73
  10  11   5    1.20    1.28
  10  11   6    2.64    1.62
  10  11   7    0.46    1.03
  10  11   8    8.47    2.26
  10  11   9   34.79    5.08
  11  -7   4    8.91    2.50
  11  -7   5    0.13    0.94
  11  -7   7    8.44    2.41
  11  -6   5    8.43    2.35
  11  -6   6    3.45    1.45
  11  -6   7   -1.88    1.58
  11  -6   7    3.89    1.65
  11  -6   8    1.37    1.07
  11  -6   8    3.99    1.69
  11  -5   6    0.90    1.04
  11  -5   7    4.81    1.96
  11  -5   7    4.08    1.87
  11  -5   8    0.31    0.75
  11  -5   8   -0.80    1.28
  11  -5   9    9.77    2.65
  11  -4   6   10.82    2.40
  11  -4   7    9.28    2.40
  11  -4   8   15.85    3.05
  11  -4   8   16.03    3.35
  11  -4   9    2.09    1.25
  11  -4   9    1.13    0.94
  11  -3   3   14.34    1.82
  11  -3   4    9.65    1.75
  11  -3   5    1.95    1.03
  11  -3   7   11.82    2.58
  11  -3   8    7.19    2.19
  11  -3   9    2.02    1.45
  11  -3   9    5.08    2.32
  11  -2   3   59.00    3.66
  11  -2   4   13.40    1.96
  11  -2   5    4.88    1.36
  11  -2   6    3.17    0.98
  11  -2   7    1.00    0.85
  11  -2   8    0.32    0.98
  11  -2   9    0.24    0.97
  11  -2   9   -0.72    1.16
  11  -2  10    6.36    2.56
  11  -1   2   21.12    1.85
  11  -1   3   36.71    2.90
  11  -1   4   52.68    3.92
  11  -1   5   34.63    3.48
  11  -1   6   22.25    2.98
  11  -1   7    9.41    2.12
  11  -1   8    4.80    1.53
  11  -1   8    2.49    1.11
  11  -1   9    7.59    1.89
  11  -1  10   31.24    4.89
  11   0   1    0.57    0.32
  11   0   2    9.26    1.33
  11   0   3    0.96    0.54
  11   0   4   14.65    2.02
  11   0   5   42.76    3.82
  11   0   6  110.61    6.73
  11   0   7  117.34    7.39
  11   0   8   48.95    4.33
  11   0   8   41.17    4.65
  11   0   9    2.22    1.40
  11   0   9    1.98    0.98
  11   0  10    0.97    0.96
  11   0  11    3.65    1.73
  11   1   1    2.77    0.75
  11   1   2    2.40    0.75
  11   1   3   27.38    2.70
  11   1   4    3.10    0.98
  11   1   5    5.59    1.39
  11   1   6   40.90    3.99
  11   1   7   48.49    4.64
  11   1   8    5.70    1.64
  11   1   8   10.11    1.82
  11   1   9   11.67    2.73
  11   1  10    4.92    1.69
  11   1  11    1.58    1.28
  11   1  12    5.26    2.14
  11   2   1    8.06    1.40
  11   2   2    9.87    1.62
  11   2   3   17.87    2.27
  11   2   4    8.55    1.65
  11   2   5   63.19    4.84
  11   2   6   51.96    4.56
  11   2   7    5.15    1.62
  11   2   8   23.71    3.36
  11   2   8   28.40    2.91
  11   2   9   15.12    2.92
  11   2  10    5.54    1.84
  11   2  11   19.67    3.61
  11   2  12    2.16    1.50
  11   3   1  136.49    6.48
  11   3   2  121.43    6.25
  11   3   3   26.55    2.93
  11   3   4    1.73    0.64
  11   3   5   16.45    2.49
  11   3   6    1.90    0.81
  11   3   7    1.38    0.94
  11   3   8    8.00    2.04
  11   3   9   19.62    3.32
  11   3  10   26.14    4.04
  11   3  11   14.18    3.16
  11   3  12   20.61    3.93
  11   4   1   50.22    4.12
  11   4   2   42.32    3.84
  11   4   3    8.09    1.74
  11   4   4    9.62    2.01
  11   4   5   -0.30    0.66
  11   4   6    1.39    0.95
  11   4   7   21.85    3.21
  11   4   8   10.02    2.26
  11   4   9   10.60    2.57
  11   4  10    6.42    2.08
  11   4  11    3.32    1.12
  11   4  12    7.86    2.54
  11   5   1   84.23    5.78
  11   5   2   78.28    5.57
  11   5   3   38.64    3.95
  11   5   4   21.34    3.01
  11   5   5    3.94    1.32
  11   5   6    9.57    2.19
  11   5   7   22.15    3.31
  11   5   8   19.55    3.22
  11   5   9   14.11    2.71
  11   5  10    8.67    2.27
  11   5  11   40.88    5.26
  11   5  12   45.19    5.79
  11   6   1    2.01    1.12
  11   6   2    2.78    1.32
  11   6   3    2.63    1.01
  11   6   4   33.62    3.93
  11   6   5   61.47    5.43
  11   6   6   43.78    4.66
  11   6   7   24.96    3.60
  11   6   8    1.03    0.88
  11   6   9    8.65    2.33
  11   6  10   12.30    2.92
  11   6  11   26.77    4.32
  11   6  12    9.45    2.42
  11   7   1   -0.31    0.60
  11   7   2    8.01    2.05
  11   7   3   12.45    2.47
  11   7   4   34.42    4.20
  11   7   5   64.61    5.85
  11   7   6   44.15    4.86
  11   7   7   40.83    4.77
  11   7   8   43.37    5.02
  11   7   9    4.69    1.76
  11   7  10    2.92    1.21
  11   7  11    2.21    1.64
  11   7  12   -0.26    0.80
  11   8   2    1.13    1.18
  11   8   3    7.71    2.04
  11   8   4   19.72    3.29
  11   8   5   27.31    3.85
  11   8   6   48.77    5.28
  11   8   7   35.03    4.63
  11   8   8   16.98    3.20
  11   8   9    3.12    1.62
  11   8  10    2.05    1.45
  11   8  11    5.35    1.95
  11   9   2   17.67    3.26
  11   9   3    1.04    1.28
  11   9   4    1.26    1.07
  11   9   5    3.26    1.61
  11   9   6   12.19    2.80
  11   9   7   25.71    3.96
  11   9   8   12.67    2.96
  11   9   9   20.55    3.72
  11   9  10   33.49    4.89
  11   9  11   11.32    2.99
  11  10   2    2.64    1.86
  11  10   3    0.87    1.30
  11  10   4    3.16    1.79
  11  10   5    0.26    0.99
  11  10   6    2.27    0.76
  11  10   7    0.58    0.84
  11  10   8    4.97    1.61
  11  10   9   14.99    3.35
  11  11   3    7.66    2.53
  11  11   4   10.66    2.67
  11  11   5   -0.19    1.13
  11  11   6    2.29    1.54
  11  11   7    7.03    2.36
  12  -6   5   -2.74    1.53
  12  -5   6   -0.20    0.88
  12  -5   7   -3.34    2.22
  12  -5   8    6.62    2.27
  12  -4   6   11.94    2.71
  12  -4   7    1.01    1.19
  12  -4   8    0.90    0.93
  12  -3   7    2.12    1.22
  12  -3   8   -1.57    1.04
  12  -2   7    8.36    2.20
  12  -2   7   10.85    2.35
  12  -2   8    2.81    1.37
  12  -2   8    1.65    1.09
  12  -2   9   -1.08    1.54
  12  -1   5   22.63    2.81
  12  -1   6   13.52    2.37
  12  -1   7   15.39    2.68
  12  -1   8   23.19    3.22
  12  -1   8   22.69    3.43
  12  -1   9    8.50    2.37
  12  -1  10   -0.17    1.18
  12  -1  11   -1.43    1.63
  12   0   4    2.50    0.91
  12   0   5    4.13    1.24
  12   0   6   14.57    2.40
  12   0   7    9.33    2.09
  12   0   8   27.54    3.42
  12   0   8   23.79    3.48
  12   0   9   15.32    3.05
  12   0  10    4.46    1.72
  12   0  11   20.46    3.93
  12   1   4    1.67    0.66
  12   1   5   12.19    2.07
  12   1   6    0.59    0.53
  12   1   7   16.06    2.75
  12   1   8    4.62    1.31
  12   1   9    9.07    2.28
  12   1  10   30.08    4.35
  12   1  11    8.57    2.47
  12   1  12   22.09    4.16
  12   2   3   25.76    2.80
  12   2   4    8.59    1.82
  12   2   5    1.06    0.82
  12   2   6   12.54    2.30
  12   2   7    7.75    1.84
  12   2   8    1.49    1.13
  12   2   9    8.40    2.28
  12   2  10    8.03    2.25
  12   2  11    8.65    2.58
  12   2  12    6.57    2.42
  12   3   3   47.20    3.94
  12   3   4   76.81    5.37
  12   3   5   11.14    2.04
  12   3   6   -0.55    0.53
  12   3   7    0.10    0.54
  12   3   8   10.84    2.29
  12   3   9    8.61    2.25
  12   3  10   -2.19    1.45
  12   3  11    6.50    2.06
  12   3  12    3.47    1.64
  12   4   2   16.65    2.44
  12   4   3   27.41    3.20
  12   4   4   13.67    2.32
  12   4   5   28.47    3.50
  12   4   6   43.60    4.42
  12   4   7   35.08    4.21
  12   4   8   11.60    2.52
  12   4   9    1.08    0.64
  12   4  10   12.99    2.82
  12   4  11   25.74    4.22
  12   4  12   41.16    5.50
  12   5   2    9.52    1.95
  12   5   3   20.31    2.89
  12   5   4   14.19    2.52
  12   5   5   32.94    3.87
  12   5   6   28.62    3.79
  12   5   7    6.75    1.88
  12   5   8    1.10    1.16
  12   5   9    0.40    1.01
  12   5  10    0.65    0.91
  12   5  11    2.13    0.73
  12   5  12   -0.04    1.33
  12   6   2    0.62    0.66
  12   6   3    8.72    2.05
  12   6   4   17.73    2.91
  12   6   5   18.94    3.17
  12   6   6   32.42    4.11
  12   6   7   45.33    5.00
  12   6   8   46.10    5.21
  12   6   9   36.50    4.81
  12   6  10    6.64    2.35
  12   6  11   -0.69    1.24
  12   7   2    1.10    1.14
  12   7   3    4.89    1.68
  12   7   4   -1.19    0.93
  12   7   5    4.87    1.77
  12   7   6    4.24    1.56
  12   7   7   10.19    2.57
  12   7   8   22.82    3.72
  12   7   9   29.78    4.43
  12   7  10   28.75    4.50
  12   7  11    3.91    2.18
  12   8   2   13.25    2.71
  12   8   3    0.63    1.09
  12   8   4    2.85    1.38
  12   8   5    5.84    1.91
  12   8   6    4.58    1.87
  12   8   7    9.10    2.31
  12   8   8   19.57    3.65
  12   8   9   24.87    4.09
  12   8  10   18.36    3.60
  12   9   2   17.43    3.37
  12   9   3    4.92    1.71
  12   9   4   10.45    2.59
  12   9   5   17.83    3.42
  12   9   6    2.25    1.26
  12   9   7    4.66    1.76
  12   9   8   17.11    3.49
  12   9   9   19.13    3.74
  12  10   3    8.64    2.48
  12  10   4    7.69    2.20
  12  10   5   15.65    3.24
  12  10   6   10.28    2.75
  12  10   7    5.06    2.09
  12  10   8    0.69    1.18
  13  -4   6    3.08    1.43
  13  -4   7    2.28    1.21
  13  -3   7    0.29    1.28
  13  -2   7   22.26    3.44
  13   0  10   -0.66    1.27
  13   1   8   16.77    2.98
  13   1   9    3.67    1.84
  13   1  10    2.21    1.20
  13   1  11    6.72    2.62
  13   2   7    1.65    1.04
  13   2   8   -1.03    1.25
  13   2   9    2.06    1.22
  13   2  10    1.89    1.32
  13   2  11    0.17    0.86
  13   3   6    3.30    1.13
  13   3   7    6.81    1.83
  13   3   8    4.85    1.63
  13   3   9    0.87    1.29
  13   3  10    9.00    2.36
  13   3  11    8.32    2.59
  13   4   6   22.93    3.25
  13   4   7   35.45    4.27
  13   4   8   25.57    3.79
  13   4   9   16.75    3.26
  13   4  10   18.11    3.40
  13   4  11    2.96    1.46
  13   5   5   -0.32    1.01
  13   5   6    8.65    2.15
  13   5   7   36.99    4.45
  13   5   8   36.75    4.58
  13   5   9   18.00    3.41
  13   5  10    5.22    1.85
  13   5  11    1.74    0.96
  13   6   5    4.31    1.41
  13   6   6   21.09    3.36
  13   6   7   35.53    4.51
  13   6   8   23.46    3.77
  13   6   9   23.40    3.87
  13   6  10   15.88    3.33
  13   6  11   11.66    3.05
  13   7   5    0.89    1.24
  13   7   6    0.21    0.81
  13   7   7    2.41    1.03
  13   7   8   12.26    2.74
  13   7   9   19.42    3.55
  13   7  10   12.58    3.00
  13   8   5    6.46    2.07
  13   8   6    0.64    1.04
  13   8   7    0.58    0.72
  13   8   8    6.01    2.00
  13   8   9   12.27    2.99
  13   9   5    6.25    2.05
  13   9   6    1.43    0.78
  13   9   7    0.90    0.76
  13   9   8    1.30    1.58
  14   6   9    0.13    1.36
   0   0   0    0.00    0.00


TITL pvl1217_auto in P1
REM P1 (#1 in standard setting)
CELL 0.71073  11.021465  12.332329  12.784289  67.3074  76.1051  84.6441
ZERR   18.00   0.000416   0.000303   0.000322   0.0023   0.0027   0.0025
LATT -1
SFAC C H N O S Zn
UNIT 18.00 18.00 18.00 18.00 18.00 18.00
REM  CrysAlisPro recorded range (K): Min=289.3; max=289.7; aver:289.5
TEMP 16
TREF
HKLF 4
END
_computing_structure_solution     'SHELXT 2018/2 (Sheldrick, 2018)'
;
_shelx_hkl_checksum              93587

_shelx_fab_file                  
;
   15    2    4      0.00      0.00
   14    5    3      0.20      0.00
   14    5    2      0.12      0.00
   14    5    1     -0.26      0.00
   14    4    5     -0.29      0.00
   14    4    4     -0.19      0.00
   14    4    3      0.13      0.00
   14    4    2      0.24      0.00
   14    4    1     -0.32      0.00
   14    3    6      0.08      0.00
   14    3    5      0.17      0.00
   14    3    4     -0.50      0.00
   14    3    3      0.58      0.00
   14    3    2     -0.18      0.00
   14    3    1     -0.27      0.00
   14    2    7     -0.35      0.00
   14    2    6     -0.29      0.00
   14    2    5      0.71      0.00
   14    2    4     -0.47      0.00
   14    2    3     -0.04      0.00
   14    2    2      0.17      0.00
   14    2    1      0.05      0.00
   14    1    8      0.23      0.00
   14    1    7     -0.19      0.00
   14    1    6     -0.01      0.00
   14    1    5      0.16      0.00
   14    1    4     -0.09      0.00
   14    1    3     -0.17      0.00
   14    1    2      0.40      0.00
   14    1    1     -0.35      0.00
   14    0    7      0.29      0.00
   14    0    6     -1.12      0.00
   14    0    5      1.01      0.00
   14    0    4     -0.24      0.00
   14    0    3     -0.24      0.00
   14    0    2      0.19      0.00
   14   -1    7     -0.83      0.00
   14   -1    6      0.34      0.00
   14   -1    5      0.31      0.00
   14   -1    4     -0.54      0.00
   14   -1    3      0.54      0.00
  -14    1    1      0.26      0.00
  -14    2    1     -0.34      0.00
  -14    2    2      0.32      0.00
   13    6    3      0.05      0.00
   13    6    2     -0.30      0.00
   13    6    1      0.24      0.00
   13    6    0     -0.08      0.00
   13    5    5      0.38      0.00
   13    5    4     -0.03      0.00
   13    5    3     -0.06      0.00
   13    5    2     -0.19      0.00
   13    5    1      0.52      0.00
   13    5    0     -0.71      0.00
  -13   -5    1      0.71      0.00
   13    4    7      0.13      0.00
   13    4    6     -0.35      0.00
   13    4    5      0.22      0.00
   13    4    4      0.12      0.00
   13    4    3     -0.32      0.00
   13    4    2      0.20      0.00
   13    4    1     -0.01      0.00
   13    4    0     -0.05      0.00
  -13   -4    1      0.17      0.00
   13    3    8      0.26      0.00
   13    3    7     -0.04      0.00
   13    3    6     -0.01      0.00
   13    3    5      0.02      0.00
   13    3    4     -0.03      0.00
   13    3    3     -0.14      0.00
   13    3    2      0.42      0.00
   13    3    1     -0.43      0.00
   13    3    0      0.17      0.00
  -13   -3    1      0.00      0.00
   13    2    8     -0.01      0.00
   13    2    7      0.72      0.00
   13    2    6     -0.64      0.00
   13    2    5      0.05      0.00
   13    2    4      0.31      0.00
   13    2    3     -0.19      0.00
   13    2    2      0.01      0.00
   13    2    1     -0.09      0.00
   13    2    0      0.22      0.00
  -13   -2    1     -0.15      0.00
   13    1    8      0.21      0.00
   13    1    7      0.14      0.00
   13    1    6     -0.31      0.00
   13    1    5      0.30      0.00
   13    1    4     -0.10      0.00
   13    1    3     -0.17      0.00
   13    1    2      0.27      0.00
   13    1    1     -0.25      0.00
   13    1    0      0.26      0.00
  -13   -1    1     -0.19      0.00
  -13   -1    2     -0.01      0.00
   13    0    7      1.00      0.00
   13    0    6     -0.51      0.00
   13    0    5     -0.02      0.00
   13    0    4      0.14      0.00
   13    0    3     -0.09      0.00
   13    0    2      0.03      0.00
   13    0    1      0.12      0.00
   13    0    0     -0.11      0.00
  -13    0    1     -0.09      0.00
  -13    0    2     -0.03      0.00
  -13    0    3      0.51      0.00
   13   -1    7      1.23      0.00
   13   -1    6     -1.61      0.00
   13   -1    5      1.21      0.00
   13   -1    4     -0.58      0.00
   13   -1    3      0.20      0.00
   13   -1    2     -0.10      0.00
   13   -1    1      0.25      0.00
  -13    1    0     -0.60      0.00
  -13    1    1      0.77      0.00
  -13    1    2     -0.58      0.00
  -13    1    3      0.40      0.00
  -13    1    4     -0.46      0.00
   13   -2    7      0.19      0.00
   13   -2    6     -0.02      0.00
   13   -2    5      0.31      0.00
   13   -2    4     -0.76      0.00
   13   -2    3      0.73      0.00
   13   -2    2     -0.28      0.00
   13   -2    1     -0.15      0.00
  -13    2    0      0.51      0.00
  -13    2    1     -0.76      0.00
  -13    2    2      0.70      0.00
  -13    2    3     -0.42      0.00
  -13    2    4      0.24      0.00
   13   -3    6     -0.27      0.00
   13   -3    5     -0.33      0.00
   13   -3    4      0.18      0.00
   13   -3    3      0.14      0.00
   13   -3    2      0.20      0.00
   13   -3    1     -0.88      0.00
  -13    3    0      1.16      0.00
  -13    3    2      0.84      0.00
  -13    3    3     -0.52      0.00
  -13    3    4      0.20      0.00
   12    8    1     -0.40      0.00
   12    8    0      0.08      0.00
  -12   -8    1      0.13      0.00
   12    7    4     -0.43      0.00
   12    7    3      0.26      0.00
   12    7    2     -0.05      0.00
   12    7    1      0.11      0.00
   12    7    0     -0.16      0.00
  -12   -7    1     -0.08      0.00
   12    6    5      0.24      0.00
   12    6    4     -0.34      0.00
   12    6    3      0.10      0.00
   12    6    2      0.13      0.00
   12    6    1      0.13      0.00
   12    6    0     -0.59      0.00
  -12   -6    1      0.50      0.00
  -12   -6    2      0.13      0.00
   12    5    7     -0.09      0.00
   12    5    6      0.34      0.00
   12    5    5     -0.31      0.00
   12    5    4      0.11      0.00
   12    5    3      0.05      0.00
   12    5    2     -0.21      0.00
   12    5    1      0.58      0.00
   12    5    0     -0.92      0.00
  -12   -5    1      0.71      0.00
  -12   -5    2     -0.08      0.00
   12    4    8     -0.37      0.00
   12    4    7     -0.12      0.00
   12    4    6      0.49      0.00
   12    4    5     -0.53      0.00
   12    4    4      0.34      0.00
   12    4    3     -0.07      0.00
   12    4    2     -0.18      0.00
   12    4    1      0.44      0.00
   12    4    0     -0.72      0.00
  -12   -4    1      0.68      0.00
  -12   -4    2     -0.16      0.00
   12    3    8      0.01      0.00
   12    3    7     -0.39      0.00
   12    3    6      0.29      0.00
   12    3    5      0.04      0.00
   12    3    4     -0.10      0.00
   12    3    3     -0.13      0.00
   12    3    2      0.19      0.00
   12    3    1      0.12      0.00
   12    3    0     -0.45      0.00
  -12   -3    1      0.53      0.00
  -12   -3    2     -0.48      0.00
  -12   -3    3      0.44      0.00
   12    2    8     -0.18      0.00
   12    2    7     -0.25      0.00
   12    2    6      0.28      0.00
   12    2    5      0.05      0.00
   12    2    4     -0.35      0.00
   12    2    3      0.33      0.00
   12    2    2     -0.04      0.00
   12    2    1     -0.11      0.00
   12    2    0     -0.08      0.00
  -12   -2    1      0.28      0.00
  -12   -2    2     -0.24      0.00
  -12   -2    3      0.16      0.00
   12    1    7      0.01      0.00
   12    1    6     -0.13      0.00
   12    1    5     -0.07      0.00
   12    1    4      0.48      0.00
   12    1    3     -0.68      0.00
   12    1    2      0.65      0.00
   12    1    1     -0.53      0.00
   12    1    0      0.25      0.00
  -12   -1    1     -0.01      0.00
  -12   -1    2      0.22      0.00
  -12   -1    3     -0.72      0.00
  -12   -1    4      0.90      0.00
   12    0    7     -0.69      0.00
   12    0    6      0.32      0.00
   12    0    5      0.07      0.00
   12    0    4      0.07      0.00
   12    0    3     -0.43      0.00
   12    0    2      0.60      0.00
   12    0    1     -0.79      0.00
   12    0    0      1.01      0.00
  -12    0    1     -0.82      0.00
  -12    0    2      0.47      0.00
  -12    0    3     -0.65      0.00
  -12    0    4      1.16      0.00
  -12    0    5     -1.15      0.00
   12   -1    7      0.25      0.00
   12   -1    6     -0.10      0.00
   12   -1    5     -0.13      0.00
   12   -1    4      0.43      0.00
   12   -1    3     -0.53      0.00
   12   -1    2      0.15      0.00
   12   -1    1      0.57      0.00
  -12    1    0     -0.98      0.00
  -12    1    1      0.71      0.00
  -12    1    2     -0.18      0.00
  -12    1    3     -0.11      0.00
  -12    1    4      0.22      0.00
  -12    1    5     -0.31      0.00
   12   -2    6     -0.72      0.00
   12   -2    5      0.76      0.00
   12   -2    4     -0.16      0.00
   12   -2    3     -0.22      0.00
   12   -2    2     -0.16      0.00
   12   -2    1      0.73      0.00
  -12    2    0     -0.97      0.00
  -12    2    1      0.88      0.00
  -12    2    2     -0.48      0.00
  -12    2    3     -0.09      0.00
  -12    2    4      0.28      0.00
  -12    2    5      0.06      0.00
  -12    2    6     -0.35      0.00
   12   -3    6      0.49      0.00
   12   -3    5      0.01      0.00
   12   -3    4     -0.49      0.00
   12   -3    3      0.30      0.00
   12   -3    2      0.10      0.00
   12   -3    1     -0.30      0.00
  -12    3    0      0.59      0.00
  -12    3    1     -1.07      0.00
  -12    3    2      1.35      0.00
  -12    3    3     -1.23      0.00
  -12    3    4      0.83      0.00
  -12    3    5     -0.31      0.00
  -12    3    6     -0.08      0.00
   12   -4    5     -0.34      0.00
   12   -4    4     -0.03      0.00
   12   -4    3      0.29      0.00
   12   -4    2     -0.13      0.00
   12   -4    1     -0.40      0.00
  -12    4    0      1.00      0.00
  -12    4    1     -1.18      0.00
  -12    4    2      0.74      0.00
  -12    4    3     -0.10      0.00
  -12    4    4     -0.26      0.00
  -12    4    5      0.35      0.00
   12   -5    4      0.37      0.00
   12   -5    3     -0.03      0.00
   12   -5    2     -0.07      0.00
   12   -5    1      0.02      0.00
  -12    5    0      0.14      0.00
  -12    5    1     -0.35      0.00
   11    9    1      0.10      0.00
   11    9    0      0.11      0.00
   11    8    4      0.44      0.00
   11    8    3     -0.51      0.00
   11    8    2      0.25      0.00
   11    8    1     -0.09      0.00
   11    8    0      0.03      0.00
   11    7    6      0.40      0.00
   11    7    5     -0.09      0.00
   11    7    4     -0.02      0.00
   11    7    3     -0.12      0.00
   11    7    2      0.51      0.00
   11    7    1     -1.13      0.00
   11    7    0      1.48      0.00
  -11   -7    1     -0.98      0.00
   11    6    7     -0.26      0.00
   11    6    6      0.15      0.00
   11    6    5      0.10      0.00
   11    6    4     -0.21      0.00
   11    6    3      0.11      0.00
   11    6    2      0.21      0.00
   11    6    1     -0.84      0.00
   11    6    0      1.51      0.00
  -11   -6    1     -1.58      0.00
  -11   -6    2      0.88      0.00
   11    5    8     -0.35      0.00
   11    5    7      0.52      0.00
   11    5    6     -0.65      0.00
   11    5    5      0.68      0.00
   11    5    4     -0.57      0.00
   11    5    3      0.33      0.00
   11    5    2     -0.13      0.00
   11    5    1     -0.04      0.00
   11    5    0      0.31      0.00
  -11   -5    1     -0.45      0.00
  -11   -5    2      0.30      0.00
  -11   -5    3     -0.11      0.00
   11    4    8     -0.13      0.00
   11    4    7      0.30      0.00
   11    4    6     -0.28      0.00
   11    4    5      0.24      0.00
   11    4    4     -0.31      0.00
   11    4    3      0.34      0.00
   11    4    2     -0.25      0.00
   11    4    1      0.22      0.00
   11    4    0     -0.24      0.00
  -11   -4    1      0.10      0.00
  -11   -4    2      0.15      0.00
  -11   -4    3     -0.24      0.00
  -11   -4    4      0.12      0.00
   11    3    8      0.24      0.00
   11    3    7     -0.11      0.00
   11    3    6      0.28      0.00
   11    3    5     -0.54      0.00
   11    3    4      0.57      0.00
   11    3    3     -0.34      0.00
   11    3    2      0.06      0.00
   11    3    1      0.07      0.00
   11    3    0     -0.01      0.00
  -11   -3    1     -0.12      0.00
  -11   -3    2      0.31      0.00
  -11   -3    3     -0.57      0.00
  -11   -3    4      0.65      0.00
   11    2    8      0.37      0.00
   11    2    7     -0.10      0.00
   11    2    6     -0.22      0.00
   11    2    5      0.42      0.00
   11    2    4     -0.44      0.00
   11    2    3      0.24      0.00
   11    2    2     -0.08      0.00
   11    2    1      0.13      0.00
   11    2    0     -0.15      0.00
  -11   -2    1      0.01      0.00
  -11   -2    2      0.11      0.00
  -11   -2    3     -0.16      0.00
  -11   -2    4      0.26      0.00
  -11   -2    5     -0.26      0.00
   11    1    7      0.06      0.00
   11    1    6      0.01      0.00
   11    1    5     -0.06      0.00
   11    1    4     -0.17      0.00
   11    1    3      0.50      0.00
   11    1    2     -0.71      0.00
   11    1    1      0.80      0.00
   11    1    0     -0.59      0.00
  -11   -1    1      0.08      0.00
  -11   -1    2      0.19      0.00
  -11   -1    3      0.08      0.00
  -11   -1    4     -0.38      0.00
  -11   -1    5      0.32      0.00
  -11   -1    6     -0.25      0.00
  -11   -1    7      0.34      0.00
   11    0    7      0.23      0.00
   11    0    6     -0.20      0.00
   11    0    5     -0.15      0.00
   11    0    4      0.33      0.00
   11    0    3     -0.24      0.00
   11    0    2      0.34      0.00
   11    0    1     -0.61      0.00
   11    0    0      0.57      0.00
  -11    0    1     -0.29      0.00
  -11    0    2      0.19      0.00
  -11    0    3     -0.10      0.00
  -11    0    4     -0.29      0.00
  -11    0    5      0.68      0.00
  -11    0    6     -0.71      0.00
   11   -1    7     -0.61      0.00
   11   -1    6      0.54      0.00
   11   -1    5     -0.40      0.00
   11   -1    4      0.16      0.00
   11   -1    3      0.06      0.00
   11   -1    2      0.00      0.00
   11   -1    1     -0.48      0.00
  -11    1    0      1.09      0.00
  -11    1    1     -1.19      0.00
  -11    1    2      0.59      0.00
  -11    1    3      0.02      0.00
  -11    1    4     -0.05      0.00
  -11    1    5     -0.10      0.00
  -11    1    6     -0.13      0.00
  -11    1    7      0.47      0.00
   11   -2    6      0.09      0.00
   11   -2    5     -0.53      0.00
   11   -2    4      0.56      0.00
   11   -2    3     -0.12      0.00
   11   -2    2     -0.16      0.00
   11   -2    1      0.24      0.00
  -11    2    0     -0.48      0.00
  -11    2    1      0.66      0.00
  -11    2    2     -0.58      0.00
  -11    2    3      0.56      0.00
  -11    2    4     -0.61      0.00
  -11    2    5      0.36      0.00
  -11    2    6      0.07      0.00
  -11    2    7     -0.16      0.00
   11   -3    6     -0.39      0.00
   11   -3    5      0.43      0.00
   11   -3    4     -0.12      0.00
   11   -3    3      0.03      0.00
   11   -3    2     -0.19      0.00
   11   -3    1      0.24      0.00
  -11    3    0     -0.16      0.00
  -11    3    1      0.07      0.00
  -11    3    2      0.11      0.00
  -11    3    3     -0.30      0.00
  -11    3    4      0.24      0.00
  -11    3    5     -0.07      0.00
  -11    3    6      0.05      0.00
   11   -4    5      0.53      0.00
   11   -4    4     -0.64      0.00
   11   -4    3      0.33      0.00
   11   -4    2      0.25      0.00
   11   -4    1     -0.56      0.00
  -11    4    0      0.33      0.00
  -11    4    1     -0.08      0.00
  -11    4    2      0.39      0.00
  -11    4    3     -0.87      0.00
  -11    4    4      0.79      0.00
  -11    4    5     -0.32      0.00
  -11    4    6      0.17      0.00
   11   -5    5      0.64      0.00
   11   -5    4     -0.64      0.00
   11   -5    3      0.14      0.00
   11   -5    2      0.36      0.00
   11   -5    1     -0.54      0.00
  -11    5    0      0.48      0.00
  -11    5    1     -0.32      0.00
  -11    5    2      0.18      0.00
  -11    5    3     -0.06      0.00
  -11    5    4     -0.13      0.00
  -11    5    5      0.34      0.00
   11   -6    4     -0.28      0.00
   11   -6    3      0.06      0.00
   11   -6    2      0.56      0.00
   11   -6    1     -0.90      0.00
  -11    6    0      0.81      0.00
  -11    6    1     -0.71      0.00
  -11    6    2      0.80      0.00
  -11    6    3     -0.75      0.00
  -11    6    4      0.42      0.00
   11   -7    2      0.22      0.00
   11   -7    1     -0.51      0.00
  -11    7    0      0.54      0.00
  -11    7    1     -0.36      0.00
  -11    7    2      0.23      0.00
   10   10    2     -0.36      0.00
   10   10    1      0.43      0.00
   10    9    3     -0.06      0.00
   10    9    2      0.45      0.00
   10    9    1     -0.41      0.00
   10    9    0      0.12      0.00
   10    8    5      0.22      0.00
   10    8    4     -0.13      0.00
   10    8    3      0.02      0.00
   10    8    2     -0.03      0.00
   10    8    1      0.31      0.00
   10    8    0     -0.58      0.00
  -10   -8    1      0.33      0.00
   10    7    7      0.29      0.00
   10    7    6     -0.51      0.00
   10    7    5      0.37      0.00
   10    7    4      0.14      0.00
   10    7    3     -0.57      0.00
   10    7    2      0.53      0.00
   10    7    1      0.11      0.00
   10    7    0     -0.97      0.00
  -10   -7    1      1.22      0.00
  -10   -7    2     -0.60      0.00
   10    6    7     -0.89      0.00
   10    6    6      0.58      0.00
   10    6    5     -0.21      0.00
   10    6    4      0.14      0.00
   10    6    3     -0.39      0.00
   10    6    2      0.69      0.00
   10    6    1     -0.66      0.00
   10    6    0      0.14      0.00
  -10   -6    1      0.41      0.00
  -10   -6    2     -0.48      0.00
  -10   -6    3      0.20      0.00
   10    5    8      0.29      0.00
   10    5    7     -0.56      0.00
   10    5    6      0.47      0.00
   10    5    5     -0.27      0.00
   10    5    4      0.26      0.00
   10    5    3     -0.38      0.00
   10    5    2      0.49      0.00
   10    5    1     -0.53      0.00
   10    5    0      0.37      0.00
  -10   -5    1     -0.06      0.00
  -10   -5    2     -0.04      0.00
  -10   -5    3     -0.15      0.00
  -10   -5    4      0.22      0.00
   10    4    7      0.43      0.00
   10    4    6     -0.61      0.00
   10    4    5      0.62      0.00
   10    4    4     -0.38      0.00
   10    4    3      0.09      0.00
   10    4    2     -0.09      0.00
   10    4    1      0.42      0.00
   10    4    0     -0.69      0.00
  -10   -4    1      0.61      0.00
  -10   -4    2     -0.35      0.00
  -10   -4    3      0.23      0.00
  -10   -4    4     -0.26      0.00
  -10   -4    5      0.33      0.00
   10    3    7      0.18      0.00
   10    3    6      0.00      0.00
   10    3    5     -0.10      0.00
   10    3    4      0.05      0.00
   10    3    3      0.04      0.00
   10    3    2      0.00      0.00
   10    3    1     -0.03      0.00
   10    3    0     -0.20      0.00
  -10   -3    1      0.48      0.00
  -10   -3    2     -0.46      0.00
  -10   -3    3      0.40      0.00
  -10   -3    4     -0.68      0.00
  -10   -3    5      0.91      0.00
   10    2    7      0.14      0.00
   10    2    6      0.08      0.00
   10    2    5     -0.40      0.00
   10    2    4      0.69      0.00
   10    2    3     -0.78      0.00
   10    2    2      0.74      0.00
   10    2    1     -0.74      0.00
   10    2    0      0.69      0.00
  -10   -2    1     -0.45      0.00
  -10   -2    2      0.22      0.00
  -10   -2    3     -0.09      0.00
  -10   -2    4     -0.24      0.00
  -10   -2    5      0.73      0.00
  -10   -2    6     -0.77      0.00
  -10   -2    7      0.24      0.00
   10    1    7     -0.15      0.00
   10    1    6     -0.12      0.00
   10    1    5      0.38      0.00
   10    1    4     -0.39      0.00
   10    1    3      0.15      0.00
   10    1    2      0.12      0.00
   10    1    1     -0.48      0.00
   10    1    0      0.84      0.00
  -10   -1    1     -0.82      0.00
  -10   -1    2      0.46      0.00
  -10   -1    3     -0.36      0.00
  -10   -1    4      0.54      0.00
  -10   -1    5     -0.47      0.00
  -10   -1    6      0.16      0.00
  -10   -1    7     -0.13      0.00
  -10   -1    8      0.34      0.00
   10    0    7      0.13      0.00
   10    0    6     -0.09      0.00
   10    0    5      0.01      0.00
   10    0    4      0.12      0.00
   10    0    3     -0.23      0.00
   10    0    2      0.14      0.00
   10    0    1      0.08      0.00
   10    0    0     -0.02      0.00
  -10    0    1     -0.29      0.00
  -10    0    2      0.25      0.00
  -10    0    3      0.30      0.00
  -10    0    4     -0.62      0.00
  -10    0    5      0.16      0.00
  -10    0    6      0.62      0.00
  -10    0    7     -1.06      0.00
  -10    0    8      0.98      0.00
  -10    0    9     -0.55      0.00
   10   -1    6     -0.54      0.00
   10   -1    5      0.67      0.00
   10   -1    4     -0.42      0.00
   10   -1    3     -0.12      0.00
   10   -1    2      0.59      0.00
   10   -1    1     -0.89      0.00
  -10    1    0      0.86      0.00
  -10    1    1     -0.37      0.00
  -10    1    2     -0.17      0.00
  -10    1    3      0.33      0.00
  -10    1    4     -0.35      0.00
  -10    1    5      0.45      0.00
  -10    1    6     -0.23      0.00
  -10    1    7     -0.48      0.00
  -10    1    8      1.02      0.00
  -10    1    9     -0.85      0.00
   10   -2    6      0.45      0.00
   10   -2    5     -0.06      0.00
   10   -2    4     -0.38      0.00
   10   -2    3      0.29      0.00
   10   -2    2      0.02      0.00
   10   -2    1     -0.17      0.00
  -10    2    0      0.31      0.00
  -10    2    1     -0.29      0.00
  -10    2    2     -0.18      0.00
  -10    2    3      0.58      0.00
  -10    2    4     -0.23      0.00
  -10    2    5     -0.38      0.00
  -10    2    6      0.41      0.00
  -10    2    7     -0.07      0.00
  -10    2    8     -0.06      0.00
   10   -3    6      0.14      0.00
   10   -3    5     -0.47      0.00
   10   -3    4      0.34      0.00
   10   -3    3      0.01      0.00
   10   -3    2     -0.09      0.00
   10   -3    1     -0.07      0.00
  -10    3    0      0.12      0.00
  -10    3    1      0.13      0.00
  -10    3    2     -0.57      0.00
  -10    3    3      0.82      0.00
  -10    3    4     -0.62      0.00
  -10    3    5      0.23      0.00
  -10    3    6     -0.06      0.00
  -10    3    7      0.07      0.00
   10   -4    5     -0.03      0.00
   10   -4    4      0.01      0.00
   10   -4    3     -0.02      0.00
   10   -4    2      0.15      0.00
   10   -4    1     -0.32      0.00
  -10    4    0      0.42      0.00
  -10    4    1     -0.42      0.00
  -10    4    2      0.21      0.00
  -10    4    3      0.06      0.00
  -10    4    4     -0.04      0.00
  -10    4    5     -0.16      0.00
  -10    4    6      0.07      0.00
  -10    4    7      0.29      0.00
   10   -5    5      0.10      0.00
   10   -5    4      0.08      0.00
   10   -5    3     -0.01      0.00
   10   -5    2     -0.02      0.00
   10   -5    1     -0.03      0.00
  -10    5    0     -0.12      0.00
  -10    5    1      0.47      0.00
  -10    5    2     -0.63      0.00
  -10    5    3      0.44      0.00
  -10    5    4     -0.13      0.00
  -10    5    5     -0.08      0.00
  -10    5    6      0.21      0.00
  -10    5    7     -0.22      0.00
   10   -6    4      0.09      0.00
   10   -6    3     -0.27      0.00
   10   -6    2     -0.04      0.00
   10   -6    1      0.43      0.00
  -10    6    0     -0.47      0.00
  -10    6    1      0.30      0.00
  -10    6    2     -0.31      0.00
  -10    6    3      0.51      0.00
  -10    6    4     -0.59      0.00
  -10    6    5      0.40      0.00
  -10    6    6     -0.04      0.00
   10   -7    3      0.23      0.00
   10   -7    2     -0.07      0.00
   10   -7    1     -0.23      0.00
  -10    7    0      0.52      0.00
  -10    7    1     -0.53      0.00
  -10    7    2      0.18      0.00
  -10    7    3      0.14      0.00
  -10    7    4     -0.10      0.00
  -10    7    5     -0.05      0.00
  -10    7    6     -0.04      0.00
   10   -8    2     -0.15      0.00
   10   -8    1     -0.26      0.00
  -10    8    0      0.80      0.00
  -10    8    1     -0.88      0.00
  -10    8    2      0.32      0.00
  -10    8    3      0.26      0.00
  -10    8    4     -0.14      0.00
  -10    8    5     -0.53      0.00
  -10    9    0     -0.11      0.00
  -10    9    1     -0.15      0.00
  -10    9    2      0.44      0.00
  -10    9    3     -0.62      0.00
    9   13    4     -0.05      0.00
    9   12    3     -0.25      0.00
    9   12    2     -0.14      0.00
    9   11    2      0.63      0.00
    9   11    1     -0.48      0.00
    9   10    2     -0.25      0.00
    9   10    1     -0.03      0.00
    9   10    0      0.32      0.00
   -9  -10    1     -0.48      0.00
    9    9    5     -0.18      0.00
    9    9    4      0.26      0.00
    9    9    3     -0.10      0.00
    9    9    1     -0.01      0.00
    9    9    0      0.04      0.00
   -9   -9    1      0.13      0.00
   -9   -9    2     -0.31      0.00
    9    8    7     -0.29      0.00
    9    8    6      0.11      0.00
    9    8    5      0.08      0.00
    9    8    4     -0.14      0.00
    9    8    3      0.02      0.00
    9    8    0      0.33      0.00
   -9   -8    1     -0.01      0.00
   -9   -8    2     -0.67      0.00
   -9   -8    3      1.08      0.00
    9    7    7      0.16      0.00
    9    7    6     -0.11      0.00
    9    7    5      0.00      0.00
    9    7    4      0.08      0.00
    9    7    3     -0.05      0.00
    9    7    2     -0.10      0.00
    9    7    0     -0.18      0.00
   -9   -7    1      0.01      0.00
   -9   -7    2     -0.08      0.00
   -9   -7    3      0.41      0.00
   -9   -7    4     -0.57      0.00
    9    6    7     -0.07      0.00
    9    6    6      0.01      0.00
    9    6    5      0.03      0.00
    9    6    4     -0.05      0.00
    9    6    3      0.07      0.00
    9    6    2     -0.23      0.00
    9    6    1      0.43      0.00
   -9   -6    1     -0.04      0.00
   -9   -6    2      0.22      0.00
   -9   -6    3     -0.13      0.00
   -9   -6    4      0.19      0.00
    9    5    7     -0.91      0.00
    9    5    6      0.81      0.00
    9    5    5     -0.40      0.00
    9    5    4     -0.08      0.00
    9    5    3      0.30      0.00
    9    5    2     -0.12      0.00
    9    5    1     -0.16      0.00
    9    5    0      0.30      0.00
   -9   -5    1     -0.41      0.00
   -9   -5    2      0.52      0.00
   -9   -5    3     -0.49      0.00
   -9   -5    4      0.47      0.00
   -9   -5    5     -0.71      0.00
   -9   -5    6      0.92      0.00
    9    4    7     -0.21      0.00
    9    4    6      0.16      0.00
    9    4    5      0.10      0.00
    9    4    4     -0.44      0.00
    9    4    3      0.64      0.00
    9    4    2     -0.61      0.00
    9    4    1      0.31      0.00
    9    4    0      0.14      0.00
   -9   -4    1     -0.46      0.00
   -9   -4    2      0.53      0.00
   -9   -4    3     -0.56      0.00
   -9   -4    4      0.56      0.00
   -9   -4    5     -0.36      0.00
   -9   -4    6      0.05      0.00
   -9   -4    7      0.06      0.00
    9    3    7      0.12      0.00
    9    3    6     -0.46      0.00
    9    3    5      0.78      0.00
    9    3    4     -0.94      0.00
    9    3    3      0.81      0.00
    9    3    2     -0.66      0.00
    9    3    1      0.85      0.00
    9    3    0     -1.11      0.00
   -9   -3    1      0.93      0.00
   -9   -3    2     -0.39      0.00
   -9   -3    3     -0.09      0.00
   -9   -3    4      0.49      0.00
   -9   -3    5     -0.79      0.00
   -9   -3    6      0.68      0.00
   -9   -3    7     -0.26      0.00
    9    2    7     -0.07      0.00
    9    2    6      0.46      0.00
    9    2    5     -0.63      0.00
    9    2    4      0.40      0.00
    9    2    3     -0.08      0.00
    9    2    2      0.00      0.00
    9    2    1      0.11      0.00
    9    2    0     -0.58      0.00
   -9   -2    1      1.07      0.00
   -9   -2    2     -1.19      0.00
   -9   -2    3      1.05      0.00
   -9   -2    4     -0.73      0.00
   -9   -2    5      0.12      0.00
   -9   -2    6      0.51      0.00
   -9   -2    7     -0.64      0.00
   -9   -2    8      0.31      0.00
    9    1    7     -0.14      0.00
    9    1    6      0.13      0.00
    9    1    5     -0.27      0.00
    9    1    4      0.45      0.00
    9    1    3     -0.51      0.00
    9    1    2      0.50      0.00
    9    1    1     -0.33      0.00
    9    1    0     -0.17      0.00
   -9   -1    1      0.58      0.00
   -9   -1    2     -0.33      0.00
   -9   -1    3     -0.25      0.00
   -9   -1    4      0.30      0.00
   -9   -1    5      0.24      0.00
   -9   -1    6     -0.78      0.00
   -9   -1    7      0.95      0.00
   -9   -1    8     -0.76      0.00
   -9   -1    9      0.29      0.00
    9    0    6      0.44      0.00
    9    0    5     -0.16      0.00
    9    0    4     -0.20      0.00
    9    0    3      0.52      0.00
    9    0    2     -0.59      0.00
    9    0    1      0.37      0.00
    9    0    0     -0.13      0.00
   -9    0    1      0.14      0.00
   -9    0    2     -0.23      0.00
   -9    0    3     -0.07      0.00
   -9    0    4      0.73      0.00
   -9    0    5     -0.93      0.00
   -9    0    6      0.15      0.00
   -9    0    7      0.95      0.00
   -9    0    8     -1.34      0.00
   -9    0    9      0.81      0.00
   -9    0   10     -0.06      0.00
    9   -1    6     -0.31      0.00
    9   -1    5     -0.19      0.00
    9   -1    4      0.74      0.00
    9   -1    3     -0.67      0.00
    9   -1    2      0.16      0.00
    9   -1    1      0.31      0.00
   -9    1    0     -0.50      0.00
   -9    1    1      0.30      0.00
   -9    1    2     -0.04      0.00
   -9    1    3      0.37      0.00
   -9    1    4     -1.10      0.00
   -9    1    5      1.16      0.00
   -9    1    6     -0.43      0.00
   -9    1    7     -0.15      0.00
   -9    1    8      0.20      0.00
   -9    1    9     -0.22      0.00
   -9    1   10      0.32      0.00
    9   -2    6     -0.89      0.00
    9   -2    5      1.01      0.00
    9   -2    4     -0.15      0.00
    9   -2    3     -0.82      0.00
    9   -2    2      1.10      0.00
    9   -2    1     -0.78      0.00
   -9    2    0      0.24      0.00
   -9    2    1      0.22      0.00
   -9    2    2     -0.25      0.00
   -9    2    3     -0.02      0.00
   -9    2    4     -0.05      0.00
   -9    2    5      0.51      0.00
   -9    2    6     -0.66      0.00
   -9    2    7      0.25      0.00
   -9    2    8      0.16      0.00
   -9    2    9     -0.25      0.00
    9   -3    5     -0.10      0.00
    9   -3    4     -0.02      0.00
    9   -3    3     -0.10      0.00
    9   -3    2      0.25      0.00
    9   -3    1     -0.23      0.00
   -9    3    0      0.09      0.00
   -9    3    1     -0.01      0.00
   -9    3    2      0.04      0.00
   -9    3    3     -0.02      0.00
   -9    3    4     -0.10      0.00
   -9    3    5      0.06      0.00
   -9    3    6      0.30      0.00
   -9    3    7     -0.56      0.00
   -9    3    8      0.21      0.00
    9   -4    5     -0.08      0.00
    9   -4    4      0.21      0.00
    9   -4    3     -0.17      0.00
    9   -4    2      0.00      0.00
    9   -4    1      0.12      0.00
   -9    4    0     -0.08      0.00
   -9    4    1     -0.03      0.00
   -9    4    2      0.11      0.00
   -9    4    3     -0.10      0.00
   -9    4    4     -0.15      0.00
   -9    4    5      0.58      0.00
   -9    4    6     -0.69      0.00
   -9    4    7      0.25      0.00
   -9    4    8      0.22      0.00
    9   -5    4     -0.54      0.00
    9   -5    3      0.34      0.00
    9   -5    2      0.21      0.00
    9   -5    1     -0.46      0.00
   -9    5    0      0.18      0.00
   -9    5    1      0.19      0.00
   -9    5    2     -0.25      0.00
   -9    5    3      0.13      0.00
   -9    5    4     -0.14      0.00
   -9    5    5      0.33      0.00
   -9    5    6     -0.56      0.00
   -9    5    7      0.73      0.00
   -9    5    8     -0.76      0.00
    9   -6    4      0.28      0.00
    9   -6    3     -0.10      0.00
    9   -6    2     -0.03      0.00
    9   -6    1      0.11      0.00
   -9    6    0     -0.30      0.00
   -9    6    1      0.51      0.00
   -9    6    2     -0.50      0.00
   -9    6    3      0.32      0.00
   -9    6    4     -0.21      0.00
   -9    6    5      0.16      0.00
   -9    6    6     -0.01      0.00
   -9    6    7     -0.13      0.00
   -9    6    8      0.07      0.00
    9   -7    3     -0.42      0.00
    9   -7    2      0.18      0.00
    9   -7    1      0.28      0.00
   -9    7    0     -0.57      0.00
   -9    7    1      0.40      0.00
   -9    7    2      0.10      0.00
   -9    7    3     -0.42      0.00
   -9    7    4      0.18      0.00
   -9    7    5      0.29      0.00
   -9    7    6     -0.39      0.00
   -9    7    7      0.13      0.00
   -9    7    8      0.09      0.00
    9   -8    2     -0.34      0.00
    9   -8    1      0.06      0.00
   -9    8    0     -0.04      0.00
   -9    8    1      0.39      0.00
   -9    8    2     -0.72      0.00
   -9    8    3      0.61      0.00
   -9    8    4     -0.18      0.00
   -9    8    5     -0.03      0.00
   -9    8    6     -0.20      0.00
   -9    8    7      0.58      0.00
    9   -9    1      0.46      0.00
   -9    9    0     -0.42      0.00
   -9    9    1      0.53      0.00
   -9    9    2     -0.88      0.00
   -9    9    3      1.18      0.00
   -9    9    4     -1.07      0.00
   -9    9    5      0.47      0.00
   -9    9    6      0.17      0.00
   -9    9    7     -0.43      0.00
   -9   10    0     -0.24      0.00
   -9   10    1      0.43      0.00
   -9   10    2     -0.42      0.00
   -9   10    3      0.21      0.00
   -9   10    4     -0.14      0.00
   -9   10    5      0.21      0.00
    8   14    5      0.29      0.00
    8   14    4     -0.37      0.00
    8   14    3      0.36      0.00
    8   13    4     -0.09      0.00
    8   13    3     -0.17      0.00
    8   13    2      0.19      0.00
    8   13    1     -0.05      0.00
    8   12    3     -0.09      0.00
    8   12    2      0.24      0.00
    8   12    1     -0.42      0.00
    8   12    0      0.37      0.00
    8   11    2      0.02      0.00
    8   11    1     -0.09      0.00
    8   11    0      0.11      0.00
   -8  -11    1      0.09      0.00
    8   10    5      0.39      0.00
    8   10    2     -0.13      0.00
    8   10    1      0.07      0.00
    8   10    0      0.11      0.00
   -8  -10    1     -0.18      0.00
   -8  -10    2      0.08      0.00
    8    9    6     -0.09      0.00
    8    9    5      0.17      0.00
    8    9    4     -0.24      0.00
    8    9    1     -0.01      0.00
    8    9    0      0.33      0.00
   -8   -9    1     -0.83      0.00
   -8   -9    2      1.25      0.00
   -8   -9    3     -1.22      0.00
    8    8    6      0.14      0.00
    8    8    5      0.05      0.00
    8    8    4     -0.18      0.00
    8    8    0      0.38      0.00
   -8   -8    1     -0.40      0.00
   -8   -8    2      0.66      0.00
   -8   -8    3     -1.05      0.00
   -8   -8    4      1.02      0.00
    8    7    7      0.04      0.00
    8    7    6     -0.29      0.00
    8    7    5      0.54      0.00
    8    7    4     -0.56      0.00
    8    7    3      0.23      0.00
    8    7    0      0.28      0.00
   -8   -7    1      0.14      0.00
   -8   -7    2     -0.38      0.00
   -8   -7    3      0.40      0.00
   -8   -7    4     -0.47      0.00
   -8   -7    5      0.63      0.00
    8    6    7      0.29      0.00
    8    6    6     -0.35      0.00
    8    6    5      0.44      0.00
    8    6    4     -0.33      0.00
    8    6    3      0.13      0.00
    8    6    2      0.03      0.00
    8    6    1     -0.19      0.00
    8    6    0      0.25      0.00
   -8   -6    1     -0.05      0.00
   -8   -6    2     -0.24      0.00
   -8   -6    3      0.39      0.00
   -8   -6    4     -0.59      0.00
   -8   -6    5      1.00      0.00
   -8   -6    6     -1.18      0.00
    8    5    7     -0.46      0.00
    8    5    6      0.44      0.00
    8    5    5     -0.41      0.00
    8    5    4      0.45      0.00
    8    5    3     -0.48      0.00
    8    5    2      0.27      0.00
    8    5    1      0.11      0.00
    8    5    0     -0.23      0.00
   -8   -5    1      0.01      0.00
   -8   -5    2      0.18      0.00
   -8   -5    3     -0.24      0.00
   -8   -5    4      0.48      0.00
   -8   -5    5     -0.82      0.00
   -8   -5    6      0.76      0.00
   -8   -5    7     -0.28      0.00
    8    4    7     -1.06      0.00
    8    4    6      1.08      0.00
    8    4    5     -0.67      0.00
    8    4    4      0.24      0.00
    8    4    3     -0.08      0.00
    8    4    2      0.25      0.00
    8    4    1     -0.59      0.00
    8    4    0      0.75      0.00
   -8   -4    1     -0.61      0.00
   -8   -4    2      0.43      0.00
   -8   -4    3     -0.30      0.00
   -8   -4    4      0.14      0.00
   -8   -4    5     -0.19      0.00
   -8   -4    6      0.54      0.00
   -8   -4    7     -0.65      0.00
   -8   -4    8      0.20      0.00
    8    3    7      0.24      0.00
    8    3    6     -0.62      0.00
    8    3    5      0.86      0.00
    8    3    4     -0.93      0.00
    8    3    3      0.90      0.00
    8    3    2     -0.81      0.00
    8    3    1      0.42      0.00
    8    3    0      0.36      0.00
   -8   -3    1     -1.11      0.00
   -8   -3    2      1.42      0.00
   -8   -3    3     -1.31      0.00
   -8   -3    4      0.76      0.00
   -8   -3    5      0.20      0.00
   -8   -3    6     -0.89      0.00
   -8   -3    7      0.66      0.00
   -8   -3    8      0.05      0.00
    8    2    6     -0.73      0.00
    8    2    5      1.19      0.00
    8    2    4     -1.40      0.00
    8    2    3      1.15      0.00
    8    2    2     -0.80      0.00
    8    2    1      0.69      0.00
    8    2    0     -0.69      0.00
   -8   -2    1      0.61      0.00
   -8   -2    2     -0.37      0.00
   -8   -2    3     -0.12      0.00
   -8   -2    4      0.73      0.00
   -8   -2    5     -0.98      0.00
   -8   -2    6      0.73      0.00
   -8   -2    7     -0.49      0.00
   -8   -2    8      0.59      0.00
   -8   -2    9     -0.69      0.00
    8    1    6      0.06      0.00
    8    1    5     -0.67      0.00
    8    1    4      0.79      0.00
    8    1    3     -0.42      0.00
    8    1    2     -0.03      0.00
    8    1    1      0.28      0.00
    8    1    0     -0.25      0.00
   -8   -1    1      0.15      0.00
   -8   -1    2     -0.34      0.00
   -8   -1    3      0.75      0.00
   -8   -1    4     -0.86      0.00
   -8   -1    5      0.32      0.00
   -8   -1    6      0.55      0.00
   -8   -1    7     -1.17      0.00
   -8   -1    8      1.27      0.00
   -8   -1    9     -0.86      0.00
   -8   -1   10      0.24      0.00
    8    0    6     -0.10      0.00
    8    0    5      0.33      0.00
    8    0    4     -0.18      0.00
    8    0    3     -0.18      0.00
    8    0    2      0.24      0.00
    8    0    1      0.07      0.00
    8    0    0     -0.34      0.00
   -8    0    1      0.20      0.00
   -8    0    2      0.48      0.00
   -8    0    3     -1.45      0.00
   -8    0    4      1.91      0.00
   -8    0    5     -1.30      0.00
   -8    0    6      0.20      0.00
   -8    0    7      0.41      0.00
   -8    0    8     -0.38      0.00
   -8    0    9      0.18      0.00
   -8    0   10     -0.02      0.00
   -8    0   11     -0.10      0.00
    8   -1    6      1.22      0.00
    8   -1    5     -0.58      0.00
    8   -1    4     -0.73      0.00
    8   -1    3      1.68      0.00
    8   -1    2     -1.59      0.00
    8   -1    1      0.81      0.00
   -8    1    0      0.01      0.00
   -8    1    1     -0.24      0.00
   -8    1    2     -0.22      0.00
   -8    1    3      0.45      0.00
   -8    1    4      0.42      0.00
   -8    1    5     -1.53      0.00
   -8    1    6      1.42      0.00
   -8    1    7     -0.31      0.00
   -8    1    8     -0.43      0.00
   -8    1    9      0.44      0.00
   -8    1   10     -0.35      0.00
   -8    1   11      0.33      0.00
    8   -2    5     -0.77      0.00
    8   -2    4      0.98      0.00
    8   -2    3     -0.23      0.00
    8   -2    2     -0.81      0.00
    8   -2    1      1.29      0.00
   -8    2    0     -0.98      0.00
   -8    2    1      0.31      0.00
   -8    2    2     -0.04      0.00
   -8    2    3      0.51      0.00
   -8    2    4     -1.15      0.00
   -8    2    5      1.21      0.00
   -8    2    6     -0.72      0.00
   -8    2    7      0.10      0.00
   -8    2    8      0.53      0.00
   -8    2    9     -1.12      0.00
   -8    2   10      1.23      0.00
    8   -3    5      0.32      0.00
    8   -3    4      0.15      0.00
    8   -3    3     -0.72      0.00
    8   -3    2      0.86      0.00
    8   -3    1     -0.36      0.00
   -8    3    0     -0.48      0.00
   -8    3    1      1.11      0.00
   -8    3    2     -1.18      0.00
   -8    3    3      0.69      0.00
   -8    3    4      0.09      0.00
   -8    3    5     -0.60      0.00
   -8    3    6      0.38      0.00
   -8    3    7      0.24      0.00
   -8    3    8     -0.44      0.00
   -8    3    9     -0.04      0.00
   -8    3   10      0.54      0.00
    8   -4    4      0.80      0.00
    8   -4    3     -0.22      0.00
    8   -4    2     -0.20      0.00
    8   -4    1      0.18      0.00
   -8    4    0     -0.02      0.00
   -8    4    1      0.11      0.00
   -8    4    2     -0.45      0.00
   -8    4    3      0.74      0.00
   -8    4    4     -0.60      0.00
   -8    4    5     -0.09      0.00
   -8    4    6      0.97      0.00
   -8    4    7     -1.35      0.00
   -8    4    8      0.99      0.00
   -8    4    9     -0.34      0.00
   -8    4   10     -0.04      0.00
    8   -5    4      0.12      0.00
    8   -5    3     -0.30      0.00
    8   -5    2      0.08      0.00
    8   -5    1      0.20      0.00
   -8    5    0     -0.24      0.00
   -8    5    1      0.06      0.00
   -8    5    2      0.12      0.00
   -8    5    3     -0.15      0.00
   -8    5    4      0.00      0.00
   -8    5    5      0.27      0.00
   -8    5    6     -0.43      0.00
   -8    5    7      0.17      0.00
   -8    5    8      0.39      0.00
   -8    5    9     -0.73      0.00
   -8    5   10      0.60      0.00
    8   -6    3      0.56      0.00
    8   -6    2     -0.15      0.00
    8   -6    1     -0.19      0.00
   -8    6    0      0.14      0.00
   -8    6    1      0.23      0.00
   -8    6    2     -0.58      0.00
   -8    6    3      0.57      0.00
   -8    6    4     -0.19      0.00
   -8    6    5     -0.17      0.00
   -8    6    6      0.17      0.00
   -8    6    7      0.09      0.00
   -8    6    8     -0.30      0.00
   -8    6    9      0.32      0.00
   -8    6   10     -0.17      0.00
    8   -7    3     -0.42      0.00
    8   -7    2     -0.02      0.00
    8   -7    1      0.29      0.00
   -8    7    0     -0.12      0.00
   -8    7    1     -0.20      0.00
   -8    7    2      0.12      0.00
   -8    7    3      0.38      0.00
   -8    7    4     -0.69      0.00
   -8    7    5      0.38      0.00
   -8    7    6      0.21      0.00
   -8    7    7     -0.56      0.00
   -8    7    8      0.58      0.00
   -8    7    9     -0.36      0.00
   -8    7   10      0.06      0.00
    8   -8    2      0.81      0.00
    8   -8    1     -0.58      0.00
   -8    8    0      0.36      0.00
   -8    8    1     -0.44      0.00
   -8    8    2      0.68      0.00
   -8    8    3     -0.79      0.00
   -8    8    4      0.65      0.00
   -8    8    5     -0.32      0.00
   -8    8    6     -0.15      0.00
   -8    8    7      0.63      0.00
   -8    8    8     -0.81      0.00
   -8    8    9      0.46      0.00
    8   -9    1     -0.30      0.00
   -8    9    0      0.28      0.00
   -8    9    1     -0.02      0.00
   -8    9    2     -0.29      0.00
   -8    9    3      0.17      0.00
   -8    9    4      0.42      0.00
   -8    9    5     -0.86      0.00
   -8    9    6      0.58      0.00
   -8    9    7      0.14      0.00
   -8    9    8     -0.67      0.00
   -8    9    9      0.74      0.00
   -8   10    0     -0.68      0.00
   -8   10    1      0.84      0.00
   -8   10    2     -0.53      0.00
   -8   10    3      0.11      0.00
   -8   10    4      0.20      0.00
   -8   10    5     -0.39      0.00
   -8   10    6      0.32      0.00
   -8   10    7     -0.10      0.00
   -8   10    8      0.10      0.00
   -8   11    1      0.50      0.00
   -8   11    2     -0.73      0.00
   -8   11    3      0.20      0.00
   -8   11    4      0.37      0.00
   -8   11    5     -0.40      0.00
   -8   11    6      0.20      0.00
   -8   11    7     -0.14      0.00
    7   14    5      0.12      0.00
    7   14    4     -0.40      0.00
    7   14    3      0.20      0.00
    7   14    2      0.13      0.00
    7   14    1     -0.18      0.00
    7   13    4     -0.64      0.00
    7   13    3      0.52      0.00
    7   13    2     -0.36      0.00
    7   13    1      0.32      0.00
    7   13    0     -0.21      0.00
    7   12    3      0.09      0.00
    7   12    2     -0.03      0.00
    7   12    1      0.27      0.00
    7   12    0     -0.52      0.00
   -7  -12    1      0.39      0.00
    7   11    2      0.47      0.00
    7   11    1     -0.28      0.00
    7   11    0     -0.10      0.00
   -7  -11    1      0.37      0.00
   -7  -11    2     -0.43      0.00
    7   10    5     -0.11      0.00
    7   10    2     -0.40      0.00
    7   10    1      0.37      0.00
    7   10    0     -0.44      0.00
   -7  -10    1      0.57      0.00
   -7  -10    2     -0.54      0.00
   -7  -10    3      0.32      0.00
    7    9    5     -0.13      0.00
    7    9    1      0.60      0.00
    7    9    0     -0.50      0.00
   -7   -9    1      0.30      0.00
   -7   -9    2     -0.35      0.00
   -7   -9    3      0.45      0.00
   -7   -9    4     -0.32      0.00
    7    8    6      0.41      0.00
    7    8    5     -0.23      0.00
    7    8    4      0.13      0.00
    7    8    0      0.51      0.00
   -7   -8    1     -0.92      0.00
   -7   -8    2      1.09      0.00
   -7   -8    3     -0.79      0.00
   -7   -8    4      0.19      0.00
   -7   -8    5      0.30      0.00
    7    7    6      0.46      0.00
    7    7    5     -0.32      0.00
    7    7    4      0.26      0.00
    7    7    0      0.46      0.00
   -7   -7    1     -0.71      0.00
   -7   -7    2      0.94      0.00
   -7   -7    3     -0.95      0.00
   -7   -7    4      0.73      0.00
   -7   -7    5     -0.42      0.00
   -7   -7    6      0.20      0.00
    7    6    6     -0.76      0.00
    7    6    5      1.04      0.00
    7    6    4     -0.90      0.00
    7    6    3      0.19      0.00
    7    6    2      0.86      0.00
    7    6    1     -1.51      0.00
    7    6    0      1.24      0.00
   -7   -6    1     -0.54      0.00
   -7   -6    2     -0.03      0.00
   -7   -6    3      0.59      0.00
   -7   -6    4     -1.29      0.00
   -7   -6    5      1.49      0.00
   -7   -6    6     -0.73      0.00
   -7   -6    7     -0.34      0.00
    7    5    6     -0.59      0.00
    7    5    5      0.48      0.00
    7    5    4     -0.38      0.00
    7    5    3      0.26      0.00
    7    5    2     -0.08      0.00
    7    5    1     -0.26      0.00
    7    5    0      0.66      0.00
   -7   -5    1     -0.76      0.00
   -7   -5    2      0.40      0.00
   -7   -5    3      0.22      0.00
   -7   -5    4     -0.91      0.00
   -7   -5    5      1.49      0.00
   -7   -5    6     -1.49      0.00
   -7   -5    7      0.67      0.00
   -7   -5    8      0.26      0.00
    7    4    6      0.96      0.00
    7    4    5     -0.89      0.00
    7    4    4      0.86      0.00
    7    4    3     -0.72      0.00
    7    4    2      0.31      0.00
    7    4    1      0.45      0.00
    7    4    0     -1.14      0.00
   -7   -4    1      1.19      0.00
   -7   -4    2     -0.75      0.00
   -7   -4    3      0.38      0.00
   -7   -4    4     -0.05      0.00
   -7   -4    5     -0.44      0.00
   -7   -4    6      0.62      0.00
   -7   -4    7     -0.13      0.00
   -7   -4    8     -0.40      0.00
    7    3    6      1.62      0.00
    7    3    5     -1.21      0.00
    7    3    4      0.42      0.00
    7    3    3      0.13      0.00
    7    3    2     -0.01      0.00
    7    3    1     -0.52      0.00
    7    3    0      0.77      0.00
   -7   -3    1     -0.53      0.00
   -7   -3    2      0.06      0.00
   -7   -3    3      0.44      0.00
   -7   -3    4     -0.86      0.00
   -7   -3    5      0.78      0.00
   -7   -3    6     -0.23      0.00
   -7   -3    7     -0.02      0.00
   -7   -3    8     -0.44      0.00
   -7   -3    9      0.86      0.00
    7    2    6     -1.17      0.00
    7    2    5      1.72      0.00
    7    2    4     -1.71      0.00
    7    2    3      1.44      0.00
    7    2    2     -1.10      0.00
    7    2    1      0.64      0.00
    7    2    0     -0.08      0.00
   -7   -2    1     -0.57      0.00
   -7   -2    2      1.25      0.00
   -7   -2    3     -1.51      0.00
   -7   -2    4      0.84      0.00
   -7   -2    5      0.44      0.00
   -7   -2    6     -1.28      0.00
   -7   -2    7      1.14      0.00
   -7   -2    8     -0.44      0.00
   -7   -2    9     -0.08      0.00
   -7   -2   10      0.21      0.00
    7    1    6     -0.12      0.00
    7    1    5      0.80      0.00
    7    1    4     -1.52      0.00
    7    1    3      1.59      0.00
    7    1    2     -0.97      0.00
    7    1    1      0.38      0.00
    7    1    0     -0.59      0.00
   -7   -1    1      1.46      0.00
   -7   -1    2     -2.11      0.00
   -7   -1    3      1.84      0.00
   -7   -1    4     -0.93      0.00
   -7   -1    5      0.19      0.00
   -7   -1    6     -0.02      0.00
   -7   -1    7     -0.02      0.00
   -7   -1    8      0.37      0.00
   -7   -1    9     -0.81      0.00
   -7   -1   10      0.84      0.00
   -7   -1   11     -0.48      0.00
    7    0    6     -0.13      0.00
    7    0    5     -1.10      0.00
    7    0    4      1.89      0.00
    7    0    3     -1.33      0.00
    7    0    2      0.00      0.00
    7    0    1      0.72      0.00
    7    0    0     -0.48      0.00
   -7    0    1     -0.05      0.00
   -7    0    2      0.17      0.00
   -7    0    3      0.45      0.00
   -7    0    4     -1.46      0.00
   -7    0    5      1.84      0.00
   -7    0    6     -1.16      0.00
   -7    0    7      0.07      0.00
   -7    0    8      0.72      0.00
   -7    0    9     -1.11      0.00
   -7    0   10      1.09      0.00
   -7    0   11     -0.62      0.00
   -7    0   12      0.05      0.00
    7   -1    6     -1.04      0.00
    7   -1    5      1.60      0.00
    7   -1    4     -0.71      0.00
    7   -1    3     -0.79      0.00
    7   -1    2      1.35      0.00
    7   -1    1     -0.58      0.00
   -7    1    0     -0.51      0.00
   -7    1    1      0.75      0.00
   -7    1    2      0.32      0.00
   -7    1    3     -2.02      0.00
   -7    1    4      2.87      0.00
   -7    1    5     -2.05      0.00
   -7    1    6      0.46      0.00
   -7    1    7      0.56      0.00
   -7    1    8     -0.83      0.00
   -7    1    9      0.74      0.00
   -7    1   10     -0.36      0.00
   -7    1   11     -0.19      0.00
   -7    1   12      0.44      0.00
    7   -2    5      0.61      0.00
    7   -2    4     -1.76      0.00
    7   -2    3      2.18      0.00
    7   -2    2     -1.34      0.00
    7   -2    1     -0.27      0.00
   -7    2    0      1.39      0.00
   -7    2    1     -1.14      0.00
   -7    2    2     -0.05      0.00
   -7    2    3      0.94      0.00
   -7    2    4     -0.72      0.00
   -7    2    5     -0.27      0.00
   -7    2    6      1.06      0.00
   -7    2    7     -1.11      0.00
   -7    2    8      0.56      0.00
   -7    2    9      0.14      0.00
   -7    2   10     -0.69      0.00
   -7    2   11      0.82      0.00
   -7    2   12     -0.53      0.00
    7   -3    5      0.60      0.00
    7   -3    4      0.03      0.00
    7   -3    3     -0.11      0.00
    7   -3    2     -0.40      0.00
    7   -3    1      0.71      0.00
   -7    3    0     -0.17      0.00
   -7    3    1     -0.88      0.00
   -7    3    2      1.48      0.00
   -7    3    3     -1.03      0.00
   -7    3    4     -0.27      0.00
   -7    3    5      1.54      0.00
   -7    3    6     -1.88      0.00
   -7    3    7      1.13      0.00
   -7    3    8     -0.06      0.00
   -7    3    9     -0.50      0.00
   -7    3   10      0.40      0.00
   -7    3   11     -0.02      0.00
    7   -4    4     -0.33      0.00
    7   -4    3     -0.03      0.00
    7   -4    2      0.53      0.00
    7   -4    1     -0.58      0.00
   -7    4    0      0.06      0.00
   -7    4    1      0.51      0.00
   -7    4    2     -0.44      0.00
   -7    4    3     -0.36      0.00
   -7    4    4      1.32      0.00
   -7    4    5     -1.70      0.00
   -7    4    6      1.19      0.00
   -7    4    7     -0.16      0.00
   -7    4    8     -0.65      0.00
   -7    4    9      0.80      0.00
   -7    4   10     -0.48      0.00
   -7    4   11      0.19      0.00
    7   -5    4      0.84      0.00
    7   -5    3     -0.09      0.00
    7   -5    2     -0.45      0.00
    7   -5    1      0.34      0.00
   -7    5    0      0.14      0.00
   -7    5    1     -0.38      0.00
   -7    5    2      0.15      0.00
   -7    5    3      0.24      0.00
   -7    5    4     -0.35      0.00
   -7    5    5     -0.08      0.00
   -7    5    6      0.88      0.00
   -7    5    7     -1.45      0.00
   -7    5    8      1.27      0.00
   -7    5    9     -0.55      0.00
   -7    5   10     -0.03      0.00
   -7    5   11      0.18      0.00
    7   -6    3      0.06      0.00
    7   -6    2      0.17      0.00
    7   -6    1     -0.11      0.00
   -7    6    0     -0.20      0.00
   -7    6    1      0.34      0.00
   -7    6    2      0.08      0.00
   -7    6    3     -0.74      0.00
   -7    6    4      0.88      0.00
   -7    6    5     -0.29      0.00
   -7    6    6     -0.40      0.00
   -7    6    7      0.56      0.00
   -7    6    8     -0.19      0.00
   -7    6    9     -0.25      0.00
   -7    6   10      0.41      0.00
   -7    6   11     -0.27      0.00
    7   -7    3      0.76      0.00
    7   -7    2     -0.67      0.00
    7   -7    1      0.30      0.00
   -7    7    0     -0.22      0.00
   -7    7    1      0.64      0.00
   -7    7    2     -1.14      0.00
   -7    7    3      1.11      0.00
   -7    7    4     -0.53      0.00
   -7    7    5     -0.19      0.00
   -7    7    6      0.69      0.00
   -7    7    7     -0.80      0.00
   -7    7    8      0.49      0.00
   -7    7    9     -0.02      0.00
   -7    7   10     -0.12      0.00
   -7    7   11     -0.13      0.00
    7   -8    2     -0.13      0.00
    7   -8    1      0.46      0.00
   -7    8    0     -0.36      0.00
   -7    8    1      0.14      0.00
   -7    8    2     -0.35      0.00
   -7    8    3      1.03      0.00
   -7    8    4     -1.57      0.00
   -7    8    5      1.41      0.00
   -7    8    6     -0.58      0.00
   -7    8    7     -0.39      0.00
   -7    8    8      1.04      0.00
   -7    8    9     -1.15      0.00
   -7    8   10      0.80      0.00
   -7    8   11     -0.37      0.00
    7   -9    1     -0.50      0.00
   -7    9    0      0.54      0.00
   -7    9    1     -0.34      0.00
   -7    9    2     -0.06      0.00
   -7    9    3      0.47      0.00
   -7    9    4     -0.61      0.00
   -7    9    5      0.39      0.00
   -7    9    6     -0.13      0.00
   -7    9    7      0.25      0.00
   -7    9    8     -0.58      0.00
   -7    9    9      0.43      0.00
   -7    9   10      0.28      0.00
   -7    9   11     -0.73      0.00
   -7   10    0     -0.27      0.00
   -7   10    1      0.14      0.00
   -7   10    2     -0.25      0.00
   -7   10    3      0.37      0.00
   -7   10    4     -0.24      0.00
   -7   10    5      0.08      0.00
   -7   10    6     -0.08      0.00
   -7   10    7      0.04      0.00
   -7   10    8      0.10      0.00
   -7   10    9     -0.12      0.00
   -7   10   10     -0.01      0.00
   -7   11    1      0.49      0.00
   -7   11    2      0.22      0.00
   -7   11    3     -0.91      0.00
   -7   11    4      0.83      0.00
   -7   11    5     -0.23      0.00
   -7   11    6     -0.38      0.00
   -7   11    7      0.81      0.00
   -7   11    8     -0.86      0.00
   -7   11    9      0.44      0.00
   -7   11   10      0.04      0.00
   -7   12    2     -0.27      0.00
   -7   12    3     -0.68      0.00
   -7   12    4      1.32      0.00
   -7   12    5     -0.74      0.00
   -7   12    6     -0.18      0.00
   -7   12    7      0.43      0.00
   -7   12    8     -0.35      0.00
   -7   12    9      0.45      0.00
   -7   13    4      0.14      0.00
   -7   13    5     -0.55      0.00
   -7   13    6      0.44      0.00
   -7   13    7     -0.18      0.00
    6   14    5      0.38      0.00
    6   14    4      0.06      0.00
    6   14    3     -0.29      0.00
    6   14    2      0.20      0.00
    6   14    1     -0.10      0.00
    6   13    4      0.26      0.00
    6   13    3     -0.30      0.00
    6   13    2      0.26      0.00
    6   13    1     -0.34      0.00
    6   13    0      0.43      0.00
    6   12    3      0.33      0.00
    6   12    2     -0.33      0.00
    6   12    1      0.20      0.00
    6   12    0      0.16      0.00
   -6  -12    1     -0.48      0.00
    6   11    2      0.17      0.00
    6   11    1     -0.15      0.00
    6   11    0      0.18      0.00
   -6  -11    1     -0.10      0.00
   -6  -11    2     -0.13      0.00
    6   10    5      0.67      0.00
    6   10    2      0.52      0.00
    6   10    1     -0.73      0.00
    6   10    0      0.73      0.00
   -6  -10    1     -0.59      0.00
   -6  -10    2      0.19      0.00
   -6  -10    3      0.32      0.00
    6    9    5      0.12      0.00
    6    9    1      0.52      0.00
    6    9    0     -0.34      0.00
   -6   -9    1      0.22      0.00
   -6   -9    2     -0.16      0.00
   -6   -9    3      0.04      0.00
   -6   -9    4      0.15      0.00
   -6   -9    5     -0.29      0.00
    6    8    5      0.44      0.00
    6    8    0     -0.22      0.00
   -6   -8    1      0.41      0.00
   -6   -8    2     -0.69      0.00
   -6   -8    3      0.82      0.00
   -6   -8    4     -0.54      0.00
   -6   -8    5      0.09      0.00
   -6   -8    6      0.08      0.00
    6    7    7     -1.32      0.00
    6    7    6      1.04      0.00
    6    7    5     -0.70      0.00
    6    7    4      0.33      0.00
    6    7    3      0.16      0.00
    6    7    2     -0.36      0.00
    6    7    1     -0.15      0.00
    6    7    0      0.96      0.00
   -6   -7    1     -1.35      0.00
   -6   -7    2      1.26      0.00
   -6   -7    3     -1.10      0.00
   -6   -7    4      0.86      0.00
   -6   -7    5     -0.25      0.00
   -6   -7    6     -0.52      0.00
   -6   -7    7      0.86      0.00
    6    6    8      1.06      0.00
    6    6    7     -0.81      0.00
    6    6    6      0.61      0.00
    6    6    5     -0.58      0.00
    6    6    4      0.76      0.00
    6    6    3     -1.04      0.00
    6    6    2      1.08      0.00
    6    6    1     -0.83      0.00
    6    6    0      0.73      0.00
   -6   -6    1     -1.02      0.00
   -6   -6    2      1.39      0.00
   -6   -6    3     -1.58      0.00
   -6   -6    4      1.67      0.00
   -6   -6    5     -1.58      0.00
   -6   -6    6      1.03      0.00
   -6   -6    7     -0.21      0.00
    6    5    8     -0.78      0.00
    6    5    7      0.84      0.00
    6    5    6     -1.13      0.00
    6    5    5      1.44      0.00
    6    5    4     -1.18      0.00
    6    5    3     -0.04      0.00
    6    5    2      1.87      0.00
    6    5    1     -3.28      0.00
    6    5    0      3.36      0.00
   -6   -5    1     -2.24      0.00
   -6   -5    2      0.92      0.00
   -6   -5    3      0.03      0.00
   -6   -5    4     -0.68      0.00
   -6   -5    5      0.75      0.00
   -6   -5    6      0.08      0.00
   -6   -5    7     -1.11      0.00
   -6   -5    8      1.33      0.00
    6    4    8     -1.64      0.00
    6    4    7      1.97      0.00
    6    4    6     -1.54      0.00
    6    4    5      0.88      0.00
    6    4    4     -0.54      0.00
    6    4    3      0.54      0.00
    6    4    2     -0.59      0.00
    6    4    1      0.33      0.00
    6    4    0      0.46      0.00
   -6   -4    1     -1.30      0.00
   -6   -4    2      1.38      0.00
   -6   -4    3     -0.61      0.00
   -6   -4    4     -0.37      0.00
   -6   -4    5      0.96      0.00
   -6   -4    6     -0.75      0.00
   -6   -4    7     -0.24      0.00
   -6   -4    8      1.17      0.00
   -6   -4    9     -1.15      0.00
    6    3    8      0.93      0.00
    6    3    7     -1.55      0.00
    6    3    6      1.69      0.00
    6    3    5     -1.25      0.00
    6    3    4      0.76      0.00
    6    3    3     -0.57      0.00
    6    3    2      0.25      0.00
    6    3    1      0.61      0.00
    6    3    0     -1.63      0.00
   -6   -3    1      2.02      0.00
   -6   -3    2     -1.56      0.00
   -6   -3    3      0.74      0.00
   -6   -3    4     -0.01      0.00
   -6   -3    5     -0.49      0.00
   -6   -3    6      0.66      0.00
   -6   -3    7     -0.47      0.00
   -6   -3    8      0.25      0.00
   -6   -3    9     -0.23      0.00
   -6   -3   10      0.23      0.00
    6    2    7     -0.74      0.00
    6    2    6      1.20      0.00
    6    2    5     -1.12      0.00
    6    2    4      0.25      0.00
    6    2    3      0.58      0.00
    6    2    2     -0.41      0.00
    6    2    1     -0.76      0.00
    6    2    0      2.17      0.00
   -6   -2    1     -2.92      0.00
   -6   -2    2      2.52      0.00
   -6   -2    3     -1.23      0.00
   -6   -2    4      0.04      0.00
   -6   -2    5      0.25      0.00
   -6   -2    6      0.20      0.00
   -6   -2    7     -0.48      0.00
   -6   -2    8      0.14      0.00
   -6   -2    9      0.33      0.00
   -6   -2   10     -0.36      0.00
   -6   -2   11      0.12      0.00
    6    1    7      0.65      0.00
    6    1    6     -2.45      0.00
    6    1    5      3.60      0.00
    6    1    4     -3.23      0.00
    6    1    3      1.75      0.00
    6    1    2     -0.59      0.00
    6    1    1      0.43      0.00
    6    1    0     -0.37      0.00
   -6   -1    1     -0.56      0.00
   -6   -1    2      2.10      0.00
   -6   -1    3     -3.09      0.00
   -6   -1    4      2.73      0.00
   -6   -1    5     -1.32      0.00
   -6   -1    6      0.05      0.00
   -6   -1    7      0.26      0.00
   -6   -1    8      0.00      0.00
   -6   -1    9     -0.12      0.00
   -6   -1   10      0.05      0.00
   -6   -1   11     -0.10      0.00
    6    0    7     -0.76      0.00
    6    0    6      0.81      0.00
    6    0    5      0.34      0.00
    6    0    4     -2.13      0.00
    6    0    3      2.81      0.00
    6    0    2     -1.63      0.00
    6    0    1      0.07      0.00
    6    0    0      0.08      0.00
   -6    0    1      1.27      0.00
   -6    0    2     -2.84      0.00
   -6    0    3      3.37      0.00
   -6    0    4     -2.44      0.00
   -6    0    5      0.84      0.00
   -6    0    6      0.22      0.00
   -6    0    7     -0.55      0.00
   -6    0    8      0.74      0.00
   -6    0    9     -0.80      0.00
   -6    0   10      0.43      0.00
   -6    0   11      0.02      0.00
   -6    0   12     -0.02      0.00
    6   -1    6      1.03      0.00
    6   -1    5     -2.78      0.00
    6   -1    4      3.57      0.00
    6   -1    3     -2.10      0.00
    6   -1    2     -0.87      0.00
    6   -1    1      2.78      0.00
   -6    1    0     -1.98      0.00
   -6    1    1     -0.45      0.00
   -6    1    2      1.97      0.00
   -6    1    3     -1.23      0.00
   -6    1    4     -0.81      0.00
   -6    1    5      2.26      0.00
   -6    1    6     -2.18      0.00
   -6    1    7      1.12      0.00
   -6    1    8      0.00      0.00
   -6    1    9     -0.78      0.00
   -6    1   10      1.09      0.00
   -6    1   11     -0.87      0.00
   -6    1   12      0.47      0.00
   -6    1   13     -0.29      0.00
    6   -2    6      0.38      0.00
    6   -2    5      0.08      0.00
    6   -2    4      0.40      0.00
    6   -2    3     -1.45      0.00
    6   -2    2      1.68      0.00
    6   -2    1     -0.24      0.00
   -6    2    0     -1.70      0.00
   -6    2    1      2.06      0.00
   -6    2    2     -0.27      0.00
   -6    2    3     -2.26      0.00
   -6    2    4      3.79      0.00
   -6    2    5     -3.54      0.00
   -6    2    6      1.96      0.00
   -6    2    7     -0.27      0.00
   -6    2    8     -0.59      0.00
   -6    2    9      0.59      0.00
   -6    2   10     -0.14      0.00
   -6    2   11     -0.40      0.00
   -6    2   12      0.72      0.00
   -6    2   13     -0.62      0.00
    6   -3    5     -0.09      0.00
    6   -3    4     -0.58      0.00
    6   -3    3      1.33      0.00
    6   -3    2     -1.04      0.00
    6   -3    1     -0.35      0.00
   -6    3    0      1.46      0.00
   -6    3    1     -1.02      0.00
   -6    3    2     -0.77      0.00
   -6    3    3      2.44      0.00
   -6    3    4     -2.60      0.00
   -6    3    5      1.18      0.00
   -6    3    6      0.61      0.00
   -6    3    7     -1.53      0.00
   -6    3    8      1.34      0.00
   -6    3    9     -0.63      0.00
   -6    3   10      0.02      0.00
   -6    3   11      0.22      0.00
   -6    3   12     -0.14      0.00
    6   -4    5      1.07      0.00
    6   -4    4      0.00      0.00
    6   -4    3     -0.60      0.00
    6   -4    2      0.35      0.00
    6   -4    1      0.27      0.00
   -6    4    0     -0.44      0.00
   -6    4    1     -0.14      0.00
   -6    4    2      0.84      0.00
   -6    4    3     -0.67      0.00
   -6    4    4     -0.55      0.00
   -6    4    5      1.98      0.00
   -6    4    6     -2.59      0.00
   -6    4    7      2.06      0.00
   -6    4    8     -0.91      0.00
   -6    4    9      0.05      0.00
   -6    4   10      0.08      0.00
   -6    4   11      0.12      0.00
   -6    4   12     -0.13      0.00
    6   -5    4      0.07      0.00
    6   -5    3     -0.02      0.00
    6   -5    2      0.39      0.00
    6   -5    1     -0.74      0.00
   -6    5    0      0.42      0.00
   -6    5    1      0.45      0.00
   -6    5    2     -1.02      0.00
   -6    5    3      0.56      0.00
   -6    5    4      0.65      0.00
   -6    5    5     -1.60      0.00
   -6    5    6      1.52      0.00
   -6    5    7     -0.61      0.00
   -6    5    8     -0.28      0.00
   -6    5    9      0.57      0.00
   -6    5   10     -0.42      0.00
   -6    5   11      0.27      0.00
   -6    5   12     -0.22      0.00
    6   -6    4      1.05      0.00
    6   -6    3     -0.75      0.00
    6   -6    2      0.32      0.00
    6   -6    1     -0.38      0.00
   -6    6    0      0.98      0.00
   -6    6    1     -1.58      0.00
   -6    6    2      1.56      0.00
   -6    6    3     -0.84      0.00
   -6    6    4      0.01      0.00
   -6    6    5      0.28      0.00
   -6    6    6      0.04      0.00
   -6    6    7     -0.60      0.00
   -6    6    8      0.97      0.00
   -6    6    9     -0.88      0.00
   -6    6   10      0.41      0.00
   -6    6   11     -0.05      0.00
   -6    6   12     -0.04      0.00
    6   -7    3      0.06      0.00
    6   -7    2      0.57      0.00
    6   -7    1     -0.87      0.00
   -6    7    0      0.68      0.00
   -6    7    1     -0.60      0.00
   -6    7    2      1.21      0.00
   -6    7    3     -2.19      0.00
   -6    7    4      2.61      0.00
   -6    7    5     -1.88      0.00
   -6    7    6      0.40      0.00
   -6    7    7      0.82      0.00
   -6    7    8     -1.04      0.00
   -6    7    9      0.40      0.00
   -6    7   10      0.24      0.00
   -6    7   11     -0.40      0.00
   -6    7   12      0.38      0.00
    6   -8    3      0.62      0.00
    6   -8    2     -0.61      0.00
    6   -8    1      0.33      0.00
   -6    8    0     -0.06      0.00
   -6    8    1      0.00      0.00
   -6    8    2      0.04      0.00
   -6    8    3     -0.27      0.00
   -6    8    4      0.69      0.00
   -6    8    5     -1.13      0.00
   -6    8    6      1.41      0.00
   -6    8    7     -1.33      0.00
   -6    8    8      0.79      0.00
   -6    8    9     -0.04      0.00
   -6    8   10     -0.37      0.00
   -6    8   11      0.16      0.00
   -6    8   12      0.22      0.00
    6   -9    2      0.54      0.00
    6   -9    1     -0.38      0.00
   -6    9    0      0.18      0.00
   -6    9    1     -0.12      0.00
   -6    9    2      0.08      0.00
   -6    9    3      0.06      0.00
   -6    9    4     -0.09      0.00
   -6    9    5     -0.11      0.00
   -6    9    6      0.27      0.00
   -6    9    7     -0.24      0.00
   -6    9    8      0.30      0.00
   -6    9    9     -0.54      0.00
   -6    9   10      0.58      0.00
   -6    9   11     -0.25      0.00
   -6    9   12     -0.07      0.00
   -6   10    1     -0.65      0.00
   -6   10    2      0.27      0.00
   -6   10    3      0.18      0.00
   -6   10    4     -0.25      0.00
   -6   10    5     -0.24      0.00
   -6   10    6      0.89      0.00
   -6   10    7     -0.91      0.00
   -6   10    8      0.16      0.00
   -6   10    9      0.54      0.00
   -6   10   10     -0.50      0.00
   -6   10   11      0.07      0.00
   -6   10   12      0.04      0.00
   -6   11    2      0.22      0.00
   -6   11    3      0.28      0.00
   -6   11    4     -0.52      0.00
   -6   11    5      0.27      0.00
   -6   11    6     -0.06      0.00
   -6   11    7     -0.02      0.00
   -6   11    8      0.30      0.00
   -6   11    9     -0.55      0.00
   -6   11   10      0.26      0.00
   -6   11   11      0.32      0.00
   -6   11   12     -0.51      0.00
   -6   12    3     -0.48      0.00
   -6   12    4     -0.28      0.00
   -6   12    5      0.91      0.00
   -6   12    6     -0.94      0.00
   -6   12    7      0.86      0.00
   -6   12    8     -0.84      0.00
   -6   12    9      0.53      0.00
   -6   12   10     -0.05      0.00
   -6   12   11     -0.16      0.00
   -6   13    4      0.08      0.00
   -6   13    5      0.24      0.00
   -6   13    6     -0.64      0.00
   -6   13    7      0.62      0.00
   -6   13    8     -0.29      0.00
   -6   13    9     -0.03      0.00
   -6   14    6     -0.08      0.00
   -6   14    7     -0.04      0.00
   -6   14    8      0.16      0.00
    5   15    2     -0.11      0.00
    5   14    6     -1.47      0.00
    5   14    5      0.90      0.00
    5   14    4     -0.51      0.00
    5   14    3      0.31      0.00
    5   14    2     -0.16      0.00
    5   14    1      0.01      0.00
    5   14    0      0.14      0.00
    5   13    5      0.65      0.00
    5   13    4     -0.53      0.00
    5   13    3      0.22      0.00
    5   13    2      0.09      0.00
    5   13    1     -0.08      0.00
    5   13    0     -0.21      0.00
   -5  -13    1      0.37      0.00
    5   12    4     -0.42      0.00
    5   12    3      0.25      0.00
    5   12    2     -0.10      0.00
    5   12    1     -0.04      0.00
    5   12    0      0.03      0.00
   -5  -12    1      0.10      0.00
   -5  -12    2     -0.13      0.00
    5   11    6      0.29      0.00
    5   11    5     -0.03      0.00
    5   11    4     -0.33      0.00
    5   11    3      0.55      0.00
    5   11    2     -0.46      0.00
    5   11    1      0.32      0.00
    5   11    0     -0.39      0.00
   -5  -11    1      0.49      0.00
   -5  -11    2     -0.37      0.00
   -5  -11    3      0.14      0.00
    5   10    7     -0.20      0.00
    5   10    5     -0.31      0.00
    5   10    4      0.51      0.00
    5   10    2      0.81      0.00
    5   10    1     -0.86      0.00
    5   10    0      0.63      0.00
   -5  -10    1     -0.03      0.00
   -5  -10    2     -0.53      0.00
   -5  -10    3      0.64      0.00
   -5  -10    4     -0.44      0.00
    5    9    9     -0.01      0.00
    5    9    8     -0.11      0.00
    5    9    7      0.01      0.00
    5    9    6      0.05      0.00
    5    9    5      0.09      0.00
    5    9    1     -1.05      0.00
    5    9    0      1.32      0.00
   -5   -9    1     -1.35      0.00
   -5   -9    2      1.12      0.00
   -5   -9    3     -0.63      0.00
   -5   -9    4      0.12      0.00
   -5   -9    5      0.08      0.00
    5    8    9      0.82      0.00
    5    8    8     -1.56      0.00
    5    8    7      1.43      0.00
    5    8    6     -0.55      0.00
    5    8    5     -0.33      0.00
    5    8    0     -1.31      0.00
   -5   -8    1      0.78      0.00
   -5   -8    2     -0.27      0.00
   -5   -8    3     -0.07      0.00
   -5   -8    4      0.36      0.00
   -5   -8    5     -0.52      0.00
   -5   -8    6      0.48      0.00
    5    7    9      0.58      0.00
    5    7    8     -0.70      0.00
    5    7    7      0.95      0.00
    5    7    6     -1.08      0.00
    5    7    5      0.97      0.00
    5    7    4     -0.83      0.00
    5    7    3      0.69      0.00
    5    7    2     -0.56      0.00
    5    7    1      0.69      0.00
    5    7    0     -1.14      0.00
   -5   -7    1      1.58      0.00
   -5   -7    2     -1.68      0.00
   -5   -7    3      1.47      0.00
   -5   -7    4     -1.09      0.00
   -5   -7    5      0.61      0.00
   -5   -7    6     -0.18      0.00
   -5   -7    7     -0.01      0.00
    5    6    9     -0.67      0.00
    5    6    8      0.93      0.00
    5    6    7     -1.34      0.00
    5    6    6      1.41      0.00
    5    6    5     -0.86      0.00
    5    6    4     -0.34      0.00
    5    6    3      1.84      0.00
    5    6    2     -2.68      0.00
    5    6    1      1.98      0.00
    5    6    0     -0.25      0.00
   -5   -6    1     -1.04      0.00
   -5   -6    2      1.26      0.00
   -5   -6    3     -1.13      0.00
   -5   -6    4      1.02      0.00
   -5   -6    5     -0.39      0.00
   -5   -6    6     -0.72      0.00
   -5   -6    7      1.26      0.00
   -5   -6    8     -0.75      0.00
    5    5    9     -1.72      0.00
    5    5    8      2.16      0.00
    5    5    7     -1.79      0.00
    5    5    6      0.96      0.00
    5    5    5     -0.62      0.00
    5    5    4      1.14      0.00
    5    5    3     -1.95      0.00
    5    5    2      2.23      0.00
    5    5    1     -1.75      0.00
    5    5    0      1.03      0.00
   -5   -5    1     -0.88      0.00
   -5   -5    2      1.39      0.00
   -5   -5    3     -1.94      0.00
   -5   -5    4      2.12      0.00
   -5   -5    5     -1.84      0.00
   -5   -5    6      1.01      0.00
   -5   -5    7      0.06      0.00
   -5   -5    8     -0.50      0.00
   -5   -5    9      0.12      0.00
    5    4    9      1.01      0.00
    5    4    8     -1.21      0.00
    5    4    7      1.19      0.00
    5    4    6     -1.19      0.00
    5    4    5      1.20      0.00
    5    4    4     -0.66      0.00
    5    4    3     -1.03      0.00
    5    4    2      3.66      0.00
    5    4    1     -6.00      0.00
    5    4    0      6.53      0.00
   -5   -4    1     -4.83      0.00
   -5   -4    2      2.13      0.00
   -5   -4    3     -0.08      0.00
   -5   -4    4     -0.75      0.00
   -5   -4    5      0.63      0.00
   -5   -4    6      0.02      0.00
   -5   -4    7     -0.58      0.00
   -5   -4    8      0.52      0.00
   -5   -4    9     -0.08      0.00
   -5   -4   10     -0.13      0.00
    5    3    9     -0.10      0.00
    5    3    8     -0.80      0.00
    5    3    7      1.71      0.00
    5    3    6     -1.79      0.00
    5    3    5      0.68      0.00
    5    3    4      0.57      0.00
    5    3    3     -0.65      0.00
    5    3    2     -0.34      0.00
    5    3    1      1.18      0.00
    5    3    0     -1.01      0.00
   -5   -3    1      0.00      0.00
   -5   -3    2      0.86      0.00
   -5   -3    3     -0.70      0.00
   -5   -3    4     -0.32      0.00
   -5   -3    5      1.18      0.00
   -5   -3    6     -1.06      0.00
   -5   -3    7      0.16      0.00
   -5   -3    8      0.55      0.00
   -5   -3    9     -0.42      0.00
   -5   -3   10     -0.14      0.00
   -5   -3   11      0.29      0.00
    5    2    8      1.73      0.00
    5    2    7     -3.02      0.00
    5    2    6      3.37      0.00
    5    2    5     -2.36      0.00
    5    2    4      0.83      0.00
    5    2    3      0.05      0.00
    5    2    2     -0.05      0.00
    5    2    1      0.10      0.00
    5    2    0     -1.15      0.00
   -5   -2    1      2.82      0.00
   -5   -2    2     -3.67      0.00
   -5   -2    3      2.91      0.00
   -5   -2    4     -1.26      0.00
   -5   -2    5     -0.03      0.00
   -5   -2    6      0.39      0.00
   -5   -2    7     -0.16      0.00
   -5   -2    8      0.01      0.00
   -5   -2    9     -0.08      0.00
   -5   -2   10     -0.01      0.00
   -5   -2   11      0.34      0.00
    5    1    8     -0.29      0.00
    5    1    7      0.34      0.00
    5    1    6      0.37      0.00
    5    1    5     -1.27      0.00
    5    1    4      0.93      0.00
    5    1    3      1.01      0.00
    5    1    2     -2.39      0.00
    5    1    1      0.81      0.00
    5    1    0      2.96      0.00
   -5   -1    1     -5.67      0.00
   -5   -1    2      5.34      0.00
   -5   -1    3     -2.92      0.00
   -5   -1    4      0.56      0.00
   -5   -1    5      0.36      0.00
   -5   -1    6     -0.11      0.00
   -5   -1    7     -0.18      0.00
   -5   -1    8      0.06      0.00
   -5   -1    9     -0.06      0.00
   -5   -1   10      0.31      0.00
   -5   -1   11     -0.22      0.00
   -5   -1   12     -0.23      0.00
    5    0    7      1.85      0.00
    5    0    6     -4.79      0.00
    5    0    5      6.45      0.00
    5    0    4     -5.05      0.00
    5    0    3      1.37      0.00
    5    0    2      1.39      0.00
    5    0    1     -1.24      0.00
    5    0    0     -0.39      0.00
   -5    0    1      0.89      0.00
   -5    0    2      0.56      0.00
   -5    0    3     -2.65      0.00
   -5    0    4      3.68      0.00
   -5    0    5     -3.06      0.00
   -5    0    6      1.56      0.00
   -5    0    7     -0.34      0.00
   -5    0    8     -0.17      0.00
   -5    0    9      0.19      0.00
   -5    0   10     -0.02      0.00
   -5    0   11     -0.02      0.00
   -5    0   12     -0.25      0.00
   -5    0   13      0.47      0.00
    5   -1    7      0.63      0.00
    5   -1    6     -1.00      0.00
    5   -1    5      2.43      0.00
    5   -1    4     -4.08      0.00
    5   -1    3      4.21      0.00
    5   -1    2     -1.67      0.00
    5   -1    1     -1.89      0.00
   -5    1    0      2.88      0.00
   -5    1    1      0.16      0.00
   -5    1    2     -4.55      0.00
   -5    1    3      6.65      0.00
   -5    1    4     -5.40      0.00
   -5    1    5      2.44      0.00
   -5    1    6     -0.01      0.00
   -5    1    7     -0.84      0.00
   -5    1    8      0.63      0.00
   -5    1    9     -0.24      0.00
   -5    1   10     -0.10      0.00
   -5    1   11      0.45      0.00
   -5    1   12     -0.55      0.00
   -5    1   13      0.26      0.00
    5   -2    7      0.51      0.00
    5   -2    6     -0.11      0.00
    5   -2    5     -0.95      0.00
    5   -2    4      1.94      0.00
    5   -2    3     -1.26      0.00
    5   -2    2     -1.40      0.00
    5   -2    1      3.42      0.00
   -5    2    0     -2.15      0.00
   -5    2    1     -1.48      0.00
   -5    2    2      3.96      0.00
   -5    2    3     -3.30      0.00
   -5    2    4      0.52      0.00
   -5    2    5      2.06      0.00
   -5    2    6     -2.90      0.00
   -5    2    7      2.18      0.00
   -5    2    8     -1.10      0.00
   -5    2    9      0.36      0.00
   -5    2   10      0.03      0.00
   -5    2   11     -0.03      0.00
   -5    2   12     -0.23      0.00
   -5    2   13      0.30      0.00
   -5    2   14      0.01      0.00
    5   -3    6      0.98      0.00
    5   -3    5      0.12      0.00
    5   -3    4     -0.70      0.00
    5   -3    3      0.11      0.00
    5   -3    2      0.66      0.00
    5   -3    1     -0.37      0.00
   -5    3    0     -0.76      0.00
   -5    3    1      1.19      0.00
   -5    3    2      0.24      0.00
   -5    3    3     -2.93      0.00
   -5    3    4      5.00      0.00
   -5    3    5     -5.02      0.00
   -5    3    6      3.27      0.00
   -5    3    7     -1.11      0.00
   -5    3    8     -0.32      0.00
   -5    3    9      0.71      0.00
   -5    3   10     -0.34      0.00
   -5    3   11     -0.08      0.00
   -5    3   12      0.08      0.00
   -5    3   13      0.21      0.00
    5   -4    5     -0.08      0.00
    5   -4    4     -0.36      0.00
    5   -4    3      1.20      0.00
    5   -4    2     -1.35      0.00
    5   -4    1      0.15      0.00
   -5    4    0      1.65      0.00
   -5    4    1     -2.24      0.00
   -5    4    2      0.70      0.00
   -5    4    3      1.76      0.00
   -5    4    4     -3.02      0.00
   -5    4    5      2.22      0.00
   -5    4    6     -0.37      0.00
   -5    4    7     -0.98      0.00
   -5    4    8      1.12      0.00
   -5    4    9     -0.53      0.00
   -5    4   10      0.14      0.00
   -5    4   11     -0.16      0.00
   -5    4   12      0.16      0.00
    5   -5    5      1.35      0.00
    5   -5    4     -0.77      0.00
    5   -5    3      0.06      0.00
    5   -5    2     -0.07      0.00
    5   -5    1      0.90      0.00
   -5    5    0     -1.69      0.00
   -5    5    1      1.55      0.00
   -5    5    2     -0.54      0.00
   -5    5    3     -0.31      0.00
   -5    5    4      0.01      0.00
   -5    5    5      1.21      0.00
   -5    5    6     -2.18      0.00
   -5    5    7      2.12      0.00
   -5    5    8     -1.31      0.00
   -5    5    9      0.52      0.00
   -5    5   10     -0.22      0.00
   -5    5   11      0.32      0.00
   -5    5   12     -0.45      0.00
   -5    5   13      0.38      0.00
    5   -6    4      0.03      0.00
    5   -6    3      0.47      0.00
    5   -6    2     -0.42      0.00
    5   -6    1      0.05      0.00
   -5    6    0     -0.24      0.00
   -5    6    1      1.33      0.00
   -5    6    2     -2.57      0.00
   -5    6    3      2.67      0.00
   -5    6    4     -1.25      0.00
   -5    6    5     -0.65      0.00
   -5    6    6      1.71      0.00
   -5    6    7     -1.57      0.00
   -5    6    8      0.73      0.00
   -5    6    9      0.06      0.00
   -5    6   10     -0.49      0.00
   -5    6   11      0.86      0.00
   -5    6   12     -1.40      0.00
   -5    6   13      1.58      0.00
    5   -7    4      1.14      0.00
    5   -7    3     -1.10      0.00
    5   -7    2      0.69      0.00
    5   -7    1     -0.37      0.00
   -5    7    0      0.54      0.00
   -5    7    1     -0.89      0.00
   -5    7    2      0.78      0.00
   -5    7    3     -0.02      0.00
   -5    7    4     -0.97      0.00
   -5    7    5      1.59      0.00
   -5    7    6     -1.44      0.00
   -5    7    7      0.53      0.00
   -5    7    8      0.55      0.00
   -5    7    9     -0.92      0.00
   -5    7   10      0.38      0.00
   -5    7   11      0.41      0.00
   -5    7   12     -0.84      0.00
   -5    7   13      0.92      0.00
   -5    7   14     -0.80      0.00
    5   -8    3      0.12      0.00
    5   -8    2      0.19      0.00
    5   -8    1     -0.57      0.00
   -5    8    0      0.59      0.00
   -5    8    1     -0.33      0.00
   -5    8    2      0.20      0.00
   -5    8    3     -0.38      0.00
   -5    8    4      0.56      0.00
   -5    8    5     -0.27      0.00
   -5    8    6     -0.57      0.00
   -5    8    7      1.40      0.00
   -5    8    8     -1.56      0.00
   -5    8    9      0.99      0.00
   -5    8   10     -0.30      0.00
   -5    8   11      0.04      0.00
   -5    8   12     -0.07      0.00
   -5    8   13     -0.05      0.00
   -5    8   14      0.28      0.00
    5   -9    2     -0.38      0.00
    5   -9    1      0.52      0.00
   -5    9    0     -0.41      0.00
   -5    9    1      0.38      0.00
   -5    9    2     -0.53      0.00
   -5    9    3      0.69      0.00
   -5    9    4     -0.84      0.00
   -5    9    5      0.95      0.00
   -5    9    6     -0.78      0.00
   -5    9    7      0.20      0.00
   -5    9    8      0.34      0.00
   -5    9    9     -0.34      0.00
   -5    9   10      0.02      0.00
   -5    9   11     -0.02      0.00
   -5    9   12      0.33      0.00
   -5    9   13     -0.44      0.00
   -5    9   14      0.20      0.00
   -5   10    2     -0.65      0.00
   -5   10    3      0.73      0.00
   -5   10    4     -0.64      0.00
   -5   10    5      0.51      0.00
   -5   10    6     -0.50      0.00
   -5   10    7      0.59      0.00
   -5   10    8     -0.49      0.00
   -5   10    9      0.00      0.00
   -5   10   10      0.61      0.00
   -5   10   11     -0.82      0.00
   -5   10   12      0.56      0.00
   -5   10   13     -0.26      0.00
   -5   11    3      0.18      0.00
   -5   11    4     -0.04      0.00
   -5   11    5     -0.08      0.00
   -5   11    6      0.33      0.00
   -5   11    7     -0.72      0.00
   -5   11    8      0.65      0.00
   -5   11    9      0.07      0.00
   -5   11   10     -0.65      0.00
   -5   11   11      0.46      0.00
   -5   11   12      0.02      0.00
   -5   12    4     -0.43      0.00
   -5   12    5      0.20      0.00
   -5   12    6      0.11      0.00
   -5   12    7     -0.28      0.00
   -5   12    8      0.46      0.00
   -5   12    9     -0.44      0.00
   -5   12   10      0.05      0.00
   -5   12   11      0.34      0.00
   -5   13    5      0.26      0.00
   -5   13    6     -0.06      0.00
   -5   13    7     -0.20      0.00
   -5   13    8      0.12      0.00
   -5   13    9      0.18      0.00
   -5   13   10     -0.37      0.00
   -5   14    6      0.75      0.00
   -5   14    7     -0.87      0.00
   -5   14    8      0.55      0.00
    4   15    4      0.21      0.00
    4   15    3     -0.25      0.00
    4   15    2      0.08      0.00
    4   15    1      0.07      0.00
    4   14    2      0.49      0.00
    4   14    1     -0.46      0.00
    4   14    0      0.50      0.00
    4   13    5      0.16      0.00
    4   13    4      0.49      0.00
    4   13    3     -0.93      0.00
    4   13    2      0.78      0.00
    4   13    1     -0.36      0.00
    4   13    0      0.23      0.00
   -4  -13    1     -0.41      0.00
   -4  -13    2      0.42      0.00
    4   12    8     -0.42      0.00
    4   12    7      0.30      0.00
    4   12    4      0.39      0.00
    4   12    3     -0.81      0.00
    4   12    2      0.80      0.00
    4   12    1     -0.41      0.00
    4   12    0      0.07      0.00
   -4  -12    1     -0.11      0.00
   -4  -12    2      0.44      0.00
   -4  -12    3     -0.64      0.00
    4   11   10     -0.58      0.00
    4   11    9      0.36      0.00
    4   11    8     -0.19      0.00
    4   11    7      0.31      0.00
    4   11    6     -0.57      0.00
    4   11    5      0.64      0.00
    4   11    4     -0.43      0.00
    4   11    3      0.20      0.00
    4   11    2     -0.27      0.00
    4   11    1      0.46      0.00
    4   11    0     -0.35      0.00
   -4  -11    1     -0.10      0.00
   -4  -11    2      0.48      0.00
   -4  -11    3     -0.59      0.00
   -4  -11    4      0.59      0.00
    4   10   11      0.21      0.00
    4   10   10     -0.32      0.00
    4   10    9     -0.02      0.00
    4   10    8      0.44      0.00
    4   10    7     -0.64      0.00
    4   10    6      0.70      0.00
    4   10    5     -0.59      0.00
    4   10    4      0.14      0.00
    4   10    3      0.50      0.00
    4   10    2     -0.98      0.00
    4   10    1      1.24      0.00
    4   10    0     -1.41      0.00
   -4  -10    1      1.37      0.00
   -4  -10    2     -1.01      0.00
   -4  -10    3      0.62      0.00
   -4  -10    4     -0.48      0.00
   -4  -10    5      0.43      0.00
    4    9   11     -0.07      0.00
    4    9   10      0.49      0.00
    4    9    9     -1.12      0.00
    4    9    8      1.28      0.00
    4    9    7     -0.72      0.00
    4    9    6      0.10      0.00
    4    9    5     -0.05      0.00
    4    9    4      0.52      0.00
    4    9    1     -1.37      0.00
    4    9    0      0.80      0.00
   -4   -9    1     -0.09      0.00
   -4   -9    2     -0.48      0.00
   -4   -9    3      0.81      0.00
   -4   -9    4     -0.85      0.00
   -4   -9    5      0.65      0.00
   -4   -9    6     -0.33      0.00
    4    8   11     -0.37      0.00
    4    8   10      0.11      0.00
    4    8    9     -0.20      0.00
    4    8    8      0.68      0.00
    4    8    7     -1.00      0.00
    4    8    6      0.87      0.00
    4    8    5     -0.57      0.00
    4    8    4      0.42      0.00
    4    8    3     -0.52      0.00
    4    8    2      1.02      0.00
    4    8    1     -1.75      0.00
    4    8    0      2.13      0.00
   -4   -8    1     -1.93      0.00
   -4   -8    2      1.43      0.00
   -4   -8    3     -0.77      0.00
   -4   -8    4      0.00      0.00
   -4   -8    5      0.44      0.00
   -4   -8    6     -0.16      0.00
   -4   -8    7     -0.37      0.00
    4    7   10     -0.85      0.00
    4    7    9      1.31      0.00
    4    7    8     -1.82      0.00
    4    7    7      1.75      0.00
    4    7    6     -0.83      0.00
    4    7    5     -0.58      0.00
    4    7    4      1.79      0.00
    4    7    3     -2.05      0.00
    4    7    2      0.95      0.00
    4    7    1      0.77      0.00
    4    7    0     -1.72      0.00
   -4   -7    1      1.43      0.00
   -4   -7    2     -0.76      0.00
   -4   -7    3      0.47      0.00
   -4   -7    4     -0.40      0.00
   -4   -7    5      0.07      0.00
   -4   -7    6      0.39      0.00
   -4   -7    7     -0.50      0.00
   -4   -7    8      0.15      0.00
    4    6   12     -0.56      0.00
    4    6   10     -1.68      0.00
    4    6    9      2.06      0.00
    4    6    8     -1.98      0.00
    4    6    7      1.71      0.00
    4    6    6     -1.71      0.00
    4    6    5      2.07      0.00
    4    6    4     -2.35      0.00
    4    6    3      1.95      0.00
    4    6    2     -0.87      0.00
    4    6    1     -0.01      0.00
    4    6    0     -0.16      0.00
   -4   -6    1      1.09      0.00
   -4   -6    2     -1.73      0.00
   -4   -6    3      1.60      0.00
   -4   -6    4     -1.18      0.00
   -4   -6    5      0.76      0.00
   -4   -6    6     -0.19      0.00
   -4   -6    7     -0.22      0.00
   -4   -6    8      0.00      0.00
   -4   -6    9      0.48      0.00
    4    5   12      0.53      0.00
    4    5   11     -1.13      0.00
    4    5   10      1.12      0.00
    4    5    9     -0.68      0.00
    4    5    8      0.26      0.00
    4    5    7     -0.22      0.00
    4    5    6      0.34      0.00
    4    5    5      0.21      0.00
    4    5    4     -1.97      0.00
    4    5    3      4.25      0.00
    4    5    2     -5.42      0.00
    4    5    1      4.28      0.00
    4    5    0     -1.20      0.00
   -4   -5    1     -1.87      0.00
   -4   -5    2      3.19      0.00
   -4   -5    3     -2.89      0.00
   -4   -5    4      2.15      0.00
   -4   -5    5     -1.40      0.00
   -4   -5    6      0.55      0.00
   -4   -5    7      0.00      0.00
   -4   -5    8      0.05      0.00
   -4   -5    9     -0.29      0.00
    4    4   12     -0.18      0.00
    4    4   11      0.04      0.00
    4    4   10      0.38      0.00
    4    4    9     -1.02      0.00
    4    4    8      1.57      0.00
    4    4    7     -1.28      0.00
    4    4    6     -0.13      0.00
    4    4    5      1.37      0.00
    4    4    4     -0.72      0.00
    4    4    3     -1.73      0.00
    4    4    2      4.05      0.00
    4    4    1     -4.48      0.00
    4    4    0      3.18      0.00
   -4   -4    1     -1.82      0.00
   -4   -4    2      1.72      0.00
   -4   -4    3     -2.53      0.00
   -4   -4    4      3.05      0.00
   -4   -4    5     -2.71      0.00
   -4   -4    6      1.83      0.00
   -4   -4    7     -0.99      0.00
   -4   -4    8      0.65      0.00
   -4   -4    9     -0.81      0.00
   -4   -4   10      0.91      0.00
    4    3   12      1.09      0.00
    4    3   11     -0.46      0.00
    4    3   10     -0.49      0.00
    4    3    9      1.61      0.00
    4    3    8     -2.68      0.00
    4    3    7      2.89      0.00
    4    3    6     -2.09      0.00
    4    3    5      1.27      0.00
    4    3    4     -0.65      0.00
    4    3    3     -1.06      0.00
    4    3    2      4.42      0.00
    4    3    1     -7.91      0.00
    4    3    0      9.33      0.00
   -4   -3    1     -7.74      0.00
   -4   -3    2      4.13      0.00
   -4   -3    3     -0.64      0.00
   -4   -3    4     -1.13      0.00
   -4   -3    5      1.09      0.00
   -4   -3    6     -0.13      0.00
   -4   -3    7     -0.71      0.00
   -4   -3    8      0.87      0.00
   -4   -3    9     -0.58      0.00
   -4   -3   10      0.48      0.00
   -4   -3   11     -0.61      0.00
    4    2   12     -0.12      0.00
    4    2   11     -0.42      0.00
    4    2   10      1.07      0.00
    4    2    9     -1.29      0.00
    4    2    8      0.56      0.00
    4    2    7      0.89      0.00
    4    2    6     -1.72      0.00
    4    2    5      0.65      0.00
    4    2    4      1.88      0.00
    4    2    3     -3.55      0.00
    4    2    2      2.25      0.00
    4    2    1      1.56      0.00
    4    2    0     -4.73      0.00
   -4   -2    1      4.69      0.00
   -4   -2    2     -2.14      0.00
   -4   -2    3     -0.07      0.00
   -4   -2    4      0.27      0.00
   -4   -2    5      0.67      0.00
   -4   -2    6     -0.98      0.00
   -4   -2    7      0.14      0.00
   -4   -2    8      0.62      0.00
   -4   -2    9     -0.23      0.00
   -4   -2   10     -0.60      0.00
   -4   -2   11      0.65      0.00
   -4   -2   12     -0.06      0.00
    4    1   12     -0.10      0.00
    4    1   11      0.60      0.00
    4    1   10     -0.48      0.00
    4    1    9     -0.79      0.00
    4    1    8      2.91      0.00
    4    1    7     -5.12      0.00
    4    1    6      6.12      0.00
    4    1    5     -4.48      0.00
    4    1    4      0.78      0.00
    4    1    3      1.81      0.00
    4    1    2     -1.22      0.00
    4    1    1     -0.45      0.00
    4    1    0     -0.21      0.00
   -4   -1    1      3.18      0.00
   -4   -1    2     -5.43      0.00
   -4   -1    3      4.97      0.00
   -4   -1    4     -2.64      0.00
   -4   -1    5      0.44      0.00
   -4   -1    6      0.52      0.00
   -4   -1    7     -0.61      0.00
   -4   -1    8      0.55      0.00
   -4   -1    9     -0.27      0.00
   -4   -1   10     -0.42      0.00
   -4   -1   11      0.88      0.00
   -4   -1   12     -0.59      0.00
    4    0   11     -0.60      0.00
    4    0   10      0.98      0.00
    4    0    9     -0.99      0.00
    4    0    8      0.60      0.00
    4    0    7     -0.61      0.00
    4    0    6      1.87      0.00
    4    0    5     -3.71      0.00
    4    0    4      3.58      0.00
    4    0    3      0.19      0.00
    4    0    2     -4.96      0.00
    4    0    1      5.31      0.00
    4    0    0      0.54      0.00
   -4    0    1     -7.81      0.00
   -4    0    2     10.54      0.00
   -4    0    3     -7.84      0.00
   -4    0    4      3.35      0.00
   -4    0    5     -0.43      0.00
   -4    0    6     -0.39      0.00
   -4    0    7      0.20      0.00
   -4    0    8      0.10      0.00
   -4    0    9     -0.27      0.00
   -4    0   10      0.22      0.00
   -4    0   11      0.06      0.00
   -4    0   12     -0.28      0.00
   -4    0   13      0.16      0.00
    4   -1   10     -0.08      0.00
    4   -1    9     -0.77      0.00
    4   -1    7      0.93      0.00
    4   -1    6     -3.24      0.00
    4   -1    5      4.32      0.00
    4   -1    4     -2.56      0.00
    4   -1    3     -1.57      0.00
    4   -1    2      4.27      0.00
    4   -1    1     -1.89      0.00
   -4    1    0     -3.68      0.00
   -4    1    1      6.50      0.00
   -4    1    2     -3.96      0.00
   -4    1    3     -0.91      0.00
   -4    1    4      4.22      0.00
   -4    1    5     -4.68      0.00
   -4    1    6      3.08      0.00
   -4    1    7     -1.05      0.00
   -4    1    8     -0.01      0.00
   -4    1    9      0.00      0.00
   -4    1   10      0.23      0.00
   -4    1   11     -0.23      0.00
   -4    1   12      0.10      0.00
   -4    1   13      0.05      0.00
   -4    1   14     -0.14      0.00
    4   -2    7      0.94      0.00
    4   -2    6     -0.45      0.00
    4   -2    5      0.05      0.00
    4   -2    4     -0.30      0.00
    4   -2    3      0.55      0.00
    4   -2    2      0.58      0.00
    4   -2    1     -2.39      0.00
   -4    2    0      1.80      0.00
   -4    2    1      2.70      0.00
   -4    2    2     -8.47      0.00
   -4    2    3     11.38      0.00
   -4    2    4     -9.72      0.00
   -4    2    5      5.25      0.00
   -4    2    6     -1.21      0.00
   -4    2    7     -0.49      0.00
   -4    2    8      0.48      0.00
   -4    2    9     -0.20      0.00
   -4    2   10      0.09      0.00
   -4    2   11     -0.08      0.00
   -4    2   12      0.46      0.00
   -4    2   13     -1.16      0.00
   -4    2   14      1.38      0.00
    4   -3    6      0.01      0.00
    4   -3    5     -1.20      0.00
    4   -3    4      2.91      0.00
    4   -3    3     -3.03      0.00
    4   -3    2      0.58      0.00
    4   -3    1      2.80      0.00
   -4    3    0     -3.95      0.00
   -4    3    1      1.51      0.00
   -4    3    2      2.27      0.00
   -4    3    3     -3.71      0.00
   -4    3    4      1.81      0.00
   -4    3    5      1.16      0.00
   -4    3    6     -2.68      0.00
   -4    3    7      2.38      0.00
   -4    3    8     -1.32      0.00
   -4    3    9      0.46      0.00
   -4    3   10     -0.19      0.00
   -4    3   11      0.30      0.00
   -4    3   12     -0.25      0.00
   -4    3   13     -0.13      0.00
   -4    3   14      0.46      0.00
    4   -4    6      1.44      0.00
    4   -4    5     -0.69      0.00
    4   -4    4      0.04      0.00
    4   -4    3     -0.22      0.00
    4   -4    2      1.16      0.00
    4   -4    1     -1.73      0.00
   -4    4    0      0.92      0.00
   -4    4    1      0.58      0.00
   -4    4    2     -0.75      0.00
   -4    4    3     -1.33      0.00
   -4    4    4      4.17      0.00
   -4    4    5     -5.48      0.00
   -4    4    6      4.52      0.00
   -4    4    7     -2.40      0.00
   -4    4    8      0.62      0.00
   -4    4    9      0.13      0.00
   -4    4   10     -0.06      0.00
   -4    4   11     -0.29      0.00
   -4    4   12      0.54      0.00
   -4    4   13     -0.53      0.00
    4   -5    5      0.29      0.00
    4   -5    4      0.29      0.00
    4   -5    3      0.14      0.00
    4   -5    2     -0.71      0.00
    4   -5    1      0.05      0.00
   -4    5    0      1.76      0.00
   -4    5    1     -3.18      0.00
   -4    5    2      2.73      0.00
   -4    5    3     -0.45      0.00
   -4    5    4     -1.88      0.00
   -4    5    5      2.42      0.00
   -4    5    6     -1.17      0.00
   -4    5    7     -0.35      0.00
   -4    5    8      0.96      0.00
   -4    5    9     -0.77      0.00
   -4    5   10      0.56      0.00
   -4    5   11     -0.87      0.00
   -4    5   12      1.39      0.00
   -4    5   13     -1.40      0.00
    4   -6    4     -1.43      0.00
    4   -6    3      0.59      0.00
    4   -6    2     -0.28      0.00
    4   -6    1      0.97      0.00
   -4    6    0     -2.02      0.00
   -4    6    1      2.17      0.00
   -4    6    2     -0.77      0.00
   -4    6    3     -1.28      0.00
   -4    6    4      2.24      0.00
   -4    6    5     -1.43      0.00
   -4    6    6     -0.20      0.00
   -4    6    7      1.32      0.00
   -4    6    8     -1.39      0.00
   -4    6    9      0.78      0.00
   -4    6   10     -0.24      0.00
   -4    6   11      0.07      0.00
   -4    6   12      0.11      0.00
   -4    6   13     -0.47      0.00
   -4    6   14      0.53      0.00
    4   -7    4      0.22      0.00
    4   -7    3      0.32      0.00
    4   -7    2     -0.71      0.00
    4   -7    1      0.62      0.00
   -4    7    0     -0.57      0.00
   -4    7    1      0.98      0.00
   -4    7    2     -1.48      0.00
   -4    7    3      1.27      0.00
   -4    7    4      0.00      0.00
   -4    7    5     -1.76      0.00
   -4    7    6      2.93      0.00
   -4    7    7     -2.79      0.00
   -4    7    8      1.64      0.00
   -4    7    9     -0.45      0.00
   -4    7   10     -0.18      0.00
   -4    7   11      0.48      0.00
   -4    7   12     -0.79      0.00
   -4    7   13      0.84      0.00
   -4    7   14     -0.36      0.00
   -4    7   15     -0.21      0.00
    4   -8    5     -0.24      0.00
    4   -8    4      0.46      0.00
    4   -8    3     -0.80      0.00
    4   -8    2      0.64      0.00
    4   -8    1     -0.07      0.00
   -4    8    0     -0.17      0.00
   -4    8    1     -0.29      0.00
   -4    8    2      1.07      0.00
   -4    8    3     -1.59      0.00
   -4    8    4      1.57      0.00
   -4    8    5     -1.08      0.00
   -4    8    6      0.49      0.00
   -4    8    7     -0.26      0.00
   -4    8    8      0.49      0.00
   -4    8    9     -0.74      0.00
   -4    8   10      0.47      0.00
   -4    8   11      0.15      0.00
   -4    8   12     -0.46      0.00
   -4    8   13      0.20      0.00
   -4    8   14      0.16      0.00
    4   -9    4     -0.60      0.00
    4   -9    3      0.87      0.00
    4   -9    2     -0.72      0.00
    4   -9    1      0.20      0.00
   -4    9    1     -0.46      0.00
   -4    9    2      0.54      0.00
   -4    9    3     -0.77      0.00
   -4    9    4      1.23      0.00
   -4    9    5     -1.66      0.00
   -4    9    6      1.57      0.00
   -4    9    7     -0.79      0.00
   -4    9    8     -0.16      0.00
   -4    9    9      0.62      0.00
   -4    9   10     -0.55      0.00
   -4    9   11      0.39      0.00
   -4    9   12     -0.33      0.00
   -4    9   13      0.23      0.00
   -4    9   14     -0.03      0.00
   -4   10    2      0.06      0.00
   -4   10    3      0.09      0.00
   -4   10    4     -0.15      0.00
   -4   10    5      0.02      0.00
   -4   10    6      0.16      0.00
   -4   10    7     -0.36      0.00
   -4   10    8      0.63      0.00
   -4   10    9     -0.76      0.00
   -4   10   10      0.49      0.00
   -4   10   11     -0.04      0.00
   -4   10   12     -0.06      0.00
   -4   10   13     -0.17      0.00
   -4   11    3     -0.17      0.00
   -4   11    4      0.43      0.00
   -4   11    5     -0.47      0.00
   -4   11    6      0.31      0.00
   -4   11    7      0.16      0.00
   -4   11    8     -0.62      0.00
   -4   11    9      0.51      0.00
   -4   11   10      0.10      0.00
   -4   11   11     -0.47      0.00
   -4   11   12      0.26      0.00
   -4   12    4      0.75      0.00
   -4   12    5     -0.94      0.00
   -4   12    6      0.58      0.00
   -4   12    7     -0.28      0.00
   -4   12    8      0.11      0.00
   -4   12    9      0.17      0.00
   -4   12   10     -0.45      0.00
   -4   12   11      0.43      0.00
   -4   13    6     -0.22      0.00
   -4   13    7      0.39      0.00
   -4   13    8     -0.24      0.00
   -4   13    9     -0.01      0.00
   -4   13   10      0.04      0.00
   -4   14    7      0.50      0.00
   -4   14    8     -0.64      0.00
    3   15    3      0.10      0.00
    3   15    2     -0.09      0.00
    3   15    1     -0.10      0.00
    3   15    0      0.23      0.00
    3   14    3      0.13      0.00
    3   14    2     -0.16      0.00
    3   14    1      0.11      0.00
    3   14    0     -0.05      0.00
   -3  -14    1      0.04      0.00
    3   13    6      0.15      0.00
    3   13    5     -0.37      0.00
    3   13    4      0.29      0.00
    3   13    3     -0.05      0.00
    3   13    2     -0.05      0.00
    3   13    1     -0.09      0.00
    3   13    0      0.21      0.00
   -3  -13    1     -0.08      0.00
   -3  -13    2     -0.13      0.00
    3   12    9     -0.34      0.00
    3   12    8      0.50      0.00
    3   12    7     -0.51      0.00
    3   12    5     -0.41      0.00
    3   12    4      0.52      0.00
    3   12    3     -0.59      0.00
    3   12    2      0.40      0.00
    3   12    1      0.03      0.00
    3   12    0     -0.35      0.00
   -3  -12    1      0.33      0.00
   -3  -12    2     -0.15      0.00
   -3  -12    3      0.13      0.00
   -3  -12    4     -0.29      0.00
    3   11   10      0.07      0.00
    3   11    9      0.03      0.00
    3   11    8     -0.34      0.00
    3   11    7      0.62      0.00
    3   11    6     -0.67      0.00
    3   11    5      0.29      0.00
    3   11    4      0.42      0.00
    3   11    3     -1.01      0.00
    3   11    2      1.13      0.00
    3   11    1     -0.88      0.00
    3   11    0      0.53      0.00
   -3  -11    1     -0.30      0.00
   -3  -11    2      0.38      0.00
   -3  -11    3     -0.72      0.00
   -3  -11    4      0.82      0.00
   -3  -11    5     -0.35      0.00
    3   10   11      0.90      0.00
    3   10   10     -0.79      0.00
    3   10    9      0.57      0.00
    3   10    8     -0.51      0.00
    3   10    7      0.57      0.00
    3   10    6     -0.78      0.00
    3   10    5      1.11      0.00
    3   10    4     -1.31      0.00
    3   10    3      1.24      0.00
    3   10    2     -1.03      0.00
    3   10    1      0.79      0.00
    3   10    0     -0.44      0.00
   -3  -10    1      0.07      0.00
   -3  -10    2      0.11      0.00
   -3  -10    3     -0.21      0.00
   -3  -10    4      0.45      0.00
   -3  -10    5     -0.62      0.00
   -3  -10    6      0.34      0.00
    3    9   12     -0.10      0.00
    3    9   11      0.26      0.00
    3    9   10     -0.15      0.00
    3    9    9      0.28      0.00
    3    9    8     -0.62      0.00
    3    9    7      0.50      0.00
    3    9    6      0.20      0.00
    3    9    5     -0.68      0.00
    3    9    4      0.29      0.00
    3    9    3      0.84      0.00
    3    9    2     -2.02      0.00
    3    9    1      2.54      0.00
    3    9    0     -2.27      0.00
   -3   -9    1      1.74      0.00
   -3   -9    2     -1.37      0.00
   -3   -9    3      0.97      0.00
   -3   -9    4     -0.44      0.00
   -3   -9    5      0.14      0.00
   -3   -9    6     -0.30      0.00
   -3   -9    7      0.53      0.00
    3    8   12      0.66      0.00
    3    8   11     -0.59      0.00
    3    8   10      1.06      0.00
    3    8    9     -1.70      0.00
    3    8    8      1.65      0.00
    3    8    7     -0.79      0.00
    3    8    6     -0.06      0.00
    3    8    5      0.29      0.00
    3    8    4      0.11      0.00
    3    8    3     -0.93      0.00
    3    8    2      1.65      0.00
    3    8    1     -1.63      0.00
    3    8    0      0.86      0.00
   -3   -8    1     -0.07      0.00
   -3   -8    2     -0.31      0.00
   -3   -8    3      0.38      0.00
   -3   -8    4     -0.23      0.00
   -3   -8    5      0.00      0.00
   -3   -8    6     -0.02      0.00
   -3   -8    7      0.33      0.00
    3    7   11     -0.84      0.00
    3    7   10      0.74      0.00
    3    7    9     -0.91      0.00
    3    7    8      1.46      0.00
    3    7    7     -2.13      0.00
    3    7    6      2.54      0.00
    3    7    5     -2.48      0.00
    3    7    4      1.83      0.00
    3    7    3     -0.83      0.00
    3    7    2      0.24      0.00
    3    7    1     -0.63      0.00
    3    7    0      1.47      0.00
   -3   -7    1     -1.76      0.00
   -3   -7    2      1.31      0.00
   -3   -7    3     -0.74      0.00
   -3   -7    4      0.44      0.00
   -3   -7    5     -0.24      0.00
   -3   -7    6      0.03      0.00
   -3   -7    7      0.03      0.00
   -3   -7    8      0.02      0.00
    3    6   11      1.87      0.00
    3    6   10     -1.82      0.00
    3    6    9      1.35      0.00
    3    6    8     -0.85      0.00
    3    6    7      0.39      0.00
    3    6    6      0.57      0.00
    3    6    5     -2.46      0.00
    3    6    4      4.58      0.00
    3    6    3     -5.27      0.00
    3    6    2      3.44      0.00
    3    6    1      0.05      0.00
    3    6    0     -2.91      0.00
   -3   -6    1      3.50      0.00
   -3   -6    2     -2.35      0.00
   -3   -6    3      1.18      0.00
   -3   -6    4     -0.74      0.00
   -3   -6    5      0.55      0.00
   -3   -6    6     -0.37      0.00
   -3   -6    7      0.40      0.00
   -3   -6    8     -0.45      0.00
   -3   -6    9      0.23      0.00
    3    5   12     -0.66      0.00
    3    5   11      1.50      0.00
    3    5   10     -2.35      0.00
    3    5    9      2.56      0.00
    3    5    8     -1.69      0.00
    3    5    7      0.24      0.00
    3    5    6      0.48      0.00
    3    5    5      0.35      0.00
    3    5    4     -1.96      0.00
    3    5    3      2.67      0.00
    3    5    2     -1.70      0.00
    3    5    1     -0.09      0.00
    3    5    0      1.01      0.00
   -3   -5    1     -0.25      0.00
   -3   -5    2     -1.26      0.00
   -3   -5    3      2.03      0.00
   -3   -5    4     -1.83      0.00
   -3   -5    5      1.44      0.00
   -3   -5    6     -1.32      0.00
   -3   -5    7      1.36      0.00
   -3   -5    8     -1.39      0.00
   -3   -5    9      1.16      0.00
   -3   -5   10     -0.56      0.00
    3    4   12     -0.11      0.00
    3    4   11     -0.65      0.00
    3    4   10      1.21      0.00
    3    4    9     -1.48      0.00
    3    4    8      1.35      0.00
    3    4    7     -0.77      0.00
    3    4    6      0.34      0.00
    3    4    5     -0.09      0.00
    3    4    4     -1.26      0.00
    3    4    3      4.22      0.00
    3    4    2     -6.79      0.00
    3    4    1      6.27      0.00
    3    4    0     -2.31      0.00
   -3   -4    1     -2.66      0.00
   -3   -4    2      5.57      0.00
   -3   -4    3     -5.26      0.00
   -3   -4    4      3.14      0.00
   -3   -4    5     -1.12      0.00
   -3   -4    6     -0.13      0.00
   -3   -4    7      0.82      0.00
   -3   -4    8     -1.00      0.00
   -3   -4    9      0.78      0.00
   -3   -4   10     -0.51      0.00
   -3   -4   11      0.35      0.00
    3    3   13     -0.13      0.00
    3    3   12     -0.39      0.00
    3    3   11      0.51      0.00
    3    3   10     -0.19      0.00
    3    3    9     -0.44      0.00
    3    3    8      1.28      0.00
    3    3    7     -1.24      0.00
    3    3    6     -0.86      0.00
    3    3    5      3.66      0.00
    3    3    4     -3.81      0.00
    3    3    3     -0.18      0.00
    3    3    2      6.01      0.00
    3    3    1     -9.86      0.00
    3    3    0      9.70      0.00
   -3   -3    1     -6.78      0.00
   -3   -3    2      4.07      0.00
   -3   -3    3     -3.12      0.00
   -3   -3    4      2.99      0.00
   -3   -3    5     -2.33      0.00
   -3   -3    6      1.08      0.00
   -3   -3    7      0.00      0.00
   -3   -3    8     -0.25      0.00
   -3   -3    9     -0.24      0.00
   -3   -3   10      0.64      0.00
   -3   -3   11     -0.36      0.00
    3    2   13     -0.48      0.00
    3    2   12      0.81      0.00
    3    2   11     -0.91      0.00
    3    2   10      0.15      0.00
    3    2    9      1.74      0.00
    3    2    8     -4.01      0.00
    3    2    7      5.07      0.00
    3    2    6     -4.01      0.00
    3    2    5      1.87      0.00
    3    2    4     -0.55      0.00
    3    2    3      0.04      0.00
    3    2    2      1.92      0.00
    3    2    1     -6.61      0.00
    3    2    0     11.51      0.00
   -3   -2    1    -12.48      0.00
   -3   -2    2      8.58      0.00
   -3   -2    3     -2.92      0.00
   -3   -2    4     -0.98      0.00
   -3   -2    5      2.05      0.00
   -3   -2    6     -1.33      0.00
   -3   -2    7      0.41      0.00
   -3   -2    8     -0.07      0.00
   -3   -2    9     -0.11      0.00
   -3   -2   10      0.53      0.00
   -3   -2   11     -0.71      0.00
   -3   -2   12      0.37      0.00
    3    1   12     -0.55      0.00
    3    1   11     -0.02      0.00
    3    1   10      0.96      0.00
    3    1    9     -1.27      0.00
    3    1    8      0.23      0.00
    3    1    7      2.01      0.00
    3    1    6     -4.12      0.00
    3    1    5      3.81      0.00
    3    1    4     -0.18      0.00
    3    1    3     -3.71      0.00
    3    1    2      2.68      0.00
    3    1    1      4.27      0.00
    3    1    0    -11.65      0.00
   -3   -1    1     13.19      0.00
   -3   -1    2     -8.62      0.00
   -3   -1    3      2.81      0.00
   -3   -1    4      0.04      0.00
   -3   -1    5      0.17      0.00
   -3   -1    6     -0.98      0.00
   -3   -1    7      0.81      0.00
   -3   -1    8     -0.24      0.00
   -3   -1    9      0.23      0.00
   -3   -1   10     -0.45      0.00
   -3   -1   11      0.28      0.00
   -3   -1   12     -0.04      0.00
   -3   -1   13      0.09      0.00
    3    0   11     -0.13      0.00
    3    0   10      0.15      0.00
    3    0    9     -0.67      0.00
    3    0    8      2.19      0.00
    3    0    7     -4.02      0.00
    3    0    6      4.37      0.00
    3    0    5     -1.40      0.00
    3    0    4     -4.44      0.00
    3    0    3      8.79      0.00
    3    0    2     -6.64      0.00
    3    0    1     -0.72      0.00
    3    0    0      5.49      0.00
   -3    0    1     -2.85      0.00
   -3    0    2     -3.21      0.00
   -3    0    3      6.12      0.00
   -3    0    4     -4.62      0.00
   -3    0    5      1.88      0.00
   -3    0    6     -0.30      0.00
   -3    0    7     -0.04      0.00
   -3    0    8     -0.18      0.00
   -3    0    9      0.46      0.00
   -3    0   10     -0.51      0.00
   -3    0   11      0.23      0.00
   -3    0   12      0.22      0.00
   -3    0   13     -0.43      0.00
    3   -1   10      1.40      0.00
    3   -1    9     -1.48      0.00
    3   -1    8      0.86      0.00
    3   -1    7     -0.20      0.00
    3   -1    6     -0.16      0.00
    3   -1    5      0.46      0.00
    3   -1    4     -1.93      0.00
    3   -1    3      6.12      0.00
    3   -1    2    -10.79      0.00
    3   -1    1      8.98      0.00
   -3    1    0      2.63      0.00
   -3    1    1    -16.78      0.00
   -3    1    2     22.75      0.00
   -3    1    3    -18.20      0.00
   -3    1    4      9.42      0.00
   -3    1    5     -2.71      0.00
   -3    1    6     -0.15      0.00
   -3    1    7      0.44      0.00
   -3    1    8     -0.06      0.00
   -3    1    9     -0.01      0.00
   -3    1   10     -0.02      0.00
   -3    1   11      0.03      0.00
   -3    1   12     -0.31      0.00
   -3    1   13      0.64      0.00
   -3    1   14     -0.48      0.00
    3   -2    9      0.41      0.00
    3   -2    8      0.00      0.00
    3   -2    7      0.65      0.00
    3   -2    6     -2.87      0.00
    3   -2    5      5.42      0.00
    3   -2    4     -5.79      0.00
    3   -2    3      2.91      0.00
    3   -2    2      0.49      0.00
    3   -2    1     -0.44      0.00
   -3    2    0     -3.11      0.00
   -3    2    1      5.85      0.00
   -3    2    2     -4.27      0.00
   -3    2    3     -0.72      0.00
   -3    2    4      5.36      0.00
   -3    2    5     -6.72      0.00
   -3    2    6      4.86      0.00
   -3    2    7     -2.13      0.00
   -3    2    8      0.61      0.00
   -3    2    9     -0.56      0.00
   -3    2   10      1.09      0.00
   -3    2   11     -1.29      0.00
   -3    2   12      0.69      0.00
   -3    2   13      0.38      0.00
   -3    2   14     -0.97      0.00
   -3    2   15      0.66      0.00
    3   -3    8     -2.06      0.00
    3   -3    7      1.86      0.00
    3   -3    6     -1.00      0.00
    3   -3    5      0.72      0.00
    3   -3    4     -1.50      0.00
    3   -3    3      2.66      0.00
    3   -3    2     -2.99      0.00
    3   -3    1      1.82      0.00
   -3    3    0     -0.35      0.00
   -3    3    1      1.24      0.00
   -3    3    2     -5.38      0.00
   -3    3    3      9.68      0.00
   -3    3    4    -10.13      0.00
   -3    3    5      6.47      0.00
   -3    3    6     -2.07      0.00
   -3    3    7     -0.25      0.00
   -3    3    8      0.62      0.00
   -3    3    9     -0.45      0.00
   -3    3   10      0.40      0.00
   -3    3   11     -0.30      0.00
   -3    3   12      0.05      0.00
   -3    3   13      0.04      0.00
   -3    3   14      0.25      0.00
   -3    3   15     -0.55      0.00
    3   -4    6     -0.10      0.00
    3   -4    5      0.11      0.00
    3   -4    4      0.45      0.00
    3   -4    3     -0.56      0.00
    3   -4    2     -1.12      0.00
    3   -4    1      4.15      0.00
   -3    4    0     -5.72      0.00
   -3    4    1      3.52      0.00
   -3    4    2      1.21      0.00
   -3    4    3     -4.63      0.00
   -3    4    4      4.27      0.00
   -3    4    5     -1.21      0.00
   -3    4    6     -1.58      0.00
   -3    4    7      2.41      0.00
   -3    4    8     -1.74      0.00
   -3    4    9      0.81      0.00
   -3    4   10     -0.49      0.00
   -3    4   11      0.90      0.00
   -3    4   12     -1.54      0.00
   -3    4   13      1.70      0.00
   -3    4   14     -1.13      0.00
    3   -5    5     -1.42      0.00
    3   -5    4      0.27      0.00
    3   -5    3      0.26      0.00
    3   -5    2      0.71      0.00
    3   -5    1     -2.20      0.00
   -3    5    0      2.56      0.00
   -3    5    1     -1.21      0.00
   -3    5    2     -0.67      0.00
   -3    5    3      1.05      0.00
   -3    5    4      0.73      0.00
   -3    5    5     -2.88      0.00
   -3    5    6      3.35      0.00
   -3    5    7     -2.11      0.00
   -3    5    8      0.61      0.00
   -3    5    9      0.14      0.00
   -3    5   10     -0.15      0.00
   -3    5   11     -0.04      0.00
   -3    5   12     -0.11      0.00
   -3    5   13      0.48      0.00
   -3    5   14     -0.55      0.00
    3   -6    5      0.45      0.00
    3   -6    4      0.54      0.00
    3   -6    3     -0.65      0.00
    3   -6    2      0.21      0.00
    3   -6    1     -0.56      0.00
   -3    6    0      2.16      0.00
   -3    6    1     -3.82      0.00
   -3    6    2      3.75      0.00
   -3    6    3     -1.31      0.00
   -3    6    4     -2.09      0.00
   -3    6    5      4.17      0.00
   -3    6    6     -3.88      0.00
   -3    6    7      2.05      0.00
   -3    6    8     -0.28      0.00
   -3    6    9     -0.49      0.00
   -3    6   10      0.58      0.00
   -3    6   11     -0.72      0.00
   -3    6   12      0.91      0.00
   -3    6   13     -0.56      0.00
   -3    6   14     -0.10      0.00
    3   -7    5      1.27      0.00
    3   -7    4     -1.39      0.00
    3   -7    3      0.85      0.00
    3   -7    2      0.02      0.00
    3   -7    1     -0.31      0.00
   -3    7    0     -0.24      0.00
   -3    7    1      0.88      0.00
   -3    7    2     -0.82      0.00
   -3    7    3      0.13      0.00
   -3    7    4      0.37      0.00
   -3    7    5      0.05      0.00
   -3    7    6     -1.17      0.00
   -3    7    7      2.03      0.00
   -3    7    8     -1.90      0.00
   -3    7    9      1.10      0.00
   -3    7   10     -0.45      0.00
   -3    7   11      0.32      0.00
   -3    7   12     -0.43      0.00
   -3    7   13      0.52      0.00
   -3    7   14     -0.56      0.00
   -3    7   15      0.52      0.00
    3   -8    5     -0.52      0.00
    3   -8    4      0.68      0.00
    3   -8    3     -0.30      0.00
    3   -8    2     -0.23      0.00
    3   -8    1      0.21      0.00
   -3    8    0      0.19      0.00
   -3    8    1     -0.26      0.00
   -3    8    2     -0.35      0.00
   -3    8    3      1.23      0.00
   -3    8    4     -1.71      0.00
   -3    8    5      1.43      0.00
   -3    8    6     -0.64      0.00
   -3    8    7     -0.04      0.00
   -3    8    8      0.18      0.00
   -3    8    9      0.05      0.00
   -3    8   10     -0.22      0.00
   -3    8   11      0.22      0.00
   -3    8   12     -0.25      0.00
   -3    8   13      0.38      0.00
   -3    8   14     -0.42      0.00
   -3    8   15      0.24      0.00
    3   -9    4      0.55      0.00
    3   -9    3     -0.93      0.00
    3   -9    2      0.88      0.00
    3   -9    1     -0.33      0.00
   -3    9    2      0.68      0.00
   -3    9    3     -1.23      0.00
   -3    9    4      1.06      0.00
   -3    9    5     -0.14      0.00
   -3    9    6     -1.04      0.00
   -3    9    7      1.78      0.00
   -3    9    8     -1.71      0.00
   -3    9    9      1.07      0.00
   -3    9   10     -0.42      0.00
   -3    9   11      0.12      0.00
   -3    9   12     -0.12      0.00
   -3    9   13      0.11      0.00
   -3    9   14      0.09      0.00
   -3   10    3      0.19      0.00
   -3   10    4      0.00      0.00
   -3   10    5     -0.33      0.00
   -3   10    6      0.51      0.00
   -3   10    7     -0.32      0.00
   -3   10    8     -0.17      0.00
   -3   10    9      0.61      0.00
   -3   10   10     -0.63      0.00
   -3   10   11      0.22      0.00
   -3   10   12      0.15      0.00
   -3   10   13     -0.07      0.00
   -3   11    4     -1.18      0.00
   -3   11    5      1.33      0.00
   -3   11    6     -1.06      0.00
   -3   11    7      0.58      0.00
   -3   11    8     -0.02      0.00
   -3   11    9     -0.44      0.00
   -3   11   10      0.52      0.00
   -3   11   11     -0.25      0.00
   -3   11   12      0.01      0.00
   -3   12    5      0.62      0.00
   -3   12    6     -0.71      0.00
   -3   12    7      0.65      0.00
   -3   12    8     -0.64      0.00
   -3   12    9      0.55      0.00
   -3   12   10     -0.29      0.00
   -3   12   11      0.08      0.00
   -3   13    6      0.23      0.00
   -3   13    7     -0.53      0.00
   -3   13    8      0.54      0.00
   -3   13    9     -0.13      0.00
   -3   13   10     -0.31      0.00
   -3   14    7     -0.16      0.00
   -3   14    8      0.37      0.00
    2   15    1     -0.29      0.00
    2   15    0      0.31      0.00
    2   14    8      0.27      0.00
    2   14    7      0.22      0.00
    2   14    5      0.32      0.00
    2   14    4     -0.28      0.00
    2   14    3      0.37      0.00
    2   14    2     -0.33      0.00
    2   14    1     -0.02      0.00
    2   14    0      0.45      0.00
   -2  -14    1     -0.45      0.00
   -2  -14    2     -0.01      0.00
    2   13    9      0.54      0.00
    2   13    8     -0.58      0.00
    2   13    7      0.45      0.00
    2   13    6     -0.32      0.00
    2   13    5      0.21      0.00
    2   13    4     -0.10      0.00
    2   13    3     -0.02      0.00
    2   13    2      0.23      0.00
    2   13    1     -0.54      0.00
    2   13    0      0.82      0.00
   -2  -13    1     -0.87      0.00
   -2  -13    2      0.58      0.00
   -2  -13    3     -0.15      0.00
    2   12   10      0.00      0.00
    2   12    9      0.17      0.00
    2   12    8     -0.17      0.00
    2   12    7      0.04      0.00
    2   12    6      0.05      0.00
    2   12    5     -0.01      0.00
    2   12    4     -0.12      0.00
    2   12    3      0.23      0.00
    2   12    2     -0.18      0.00
    2   12    1     -0.11      0.00
    2   12    0      0.48      0.00
   -2  -12    1     -0.63      0.00
   -2  -12    2      0.41      0.00
   -2  -12    3     -0.02      0.00
   -2  -12    4     -0.20      0.00
    2   11   11     -0.55      0.00
    2   11   10      0.28      0.00
    2   11    9     -0.11      0.00
    2   11    8      0.34      0.00
    2   11    7     -0.75      0.00
    2   11    6      1.09      0.00
    2   11    5     -1.35      0.00
    2   11    4      1.45      0.00
    2   11    3     -1.30      0.00
    2   11    2      0.90      0.00
    2   11    1     -0.38      0.00
    2   11    0     -0.05      0.00
   -2  -11    1      0.06      0.00
   -2  -11    2      0.22      0.00
   -2  -11    3     -0.13      0.00
   -2  -11    4     -0.60      0.00
   -2  -11    5      1.18      0.00
    2   10   11     -0.52      0.00
    2   10   10      0.50      0.00
    2   10    9     -0.33      0.00
    2   10    8      0.02      0.00
    2   10    7      0.48      0.00
    2   10    6     -0.78      0.00
    2   10    5      0.27      0.00
    2   10    4      1.00      0.00
    2   10    3     -2.19      0.00
    2   10    2      2.55      0.00
    2   10    1     -2.06      0.00
    2   10    0      1.27      0.00
   -2  -10    1     -0.77      0.00
   -2  -10    2      0.81      0.00
   -2  -10    3     -1.03      0.00
   -2  -10    4      0.79      0.00
   -2  -10    5     -0.03      0.00
   -2  -10    6     -0.48      0.00
    2    9   12     -0.30      0.00
    2    9   11      0.60      0.00
    2    9   10     -0.81      0.00
    2    9    9      0.76      0.00
    2    9    8     -0.33      0.00
    2    9    7     -0.05      0.00
    2    9    6     -0.19      0.00
    2    9    5      0.96      0.00
    2    9    4     -1.71      0.00
    2    9    3      1.98      0.00
    2    9    2     -1.58      0.00
    2    9    1      0.74      0.00
    2    9    0     -0.05      0.00
   -2   -9    1     -0.21      0.00
   -2   -9    2      0.35      0.00
   -2   -9    3     -0.51      0.00
   -2   -9    4      0.45      0.00
   -2   -9    5     -0.20      0.00
   -2   -9    6      0.11      0.00
   -2   -9    7     -0.23      0.00
    2    8   12     -0.49      0.00
    2    8   11      0.44      0.00
    2    8   10     -0.34      0.00
    2    8    9      0.66      0.00
    2    8    8     -1.25      0.00
    2    8    7      1.43      0.00
    2    8    6     -0.93      0.00
    2    8    5      0.22      0.00
    2    8    4      0.06      0.00
    2    8    3      0.55      0.00
    2    8    2     -1.84      0.00
    2    8    1      2.78      0.00
    2    8    0     -2.50      0.00
   -2   -8    1      1.45      0.00
   -2   -8    2     -0.61      0.00
   -2   -8    3      0.28      0.00
   -2   -8    4     -0.21      0.00
   -2   -8    5      0.28      0.00
   -2   -8    6     -0.36      0.00
   -2   -8    7      0.19      0.00
   -2   -8    8      0.17      0.00
    2    7   12      1.22      0.00
    2    7   11     -1.24      0.00
    2    7   10      1.37      0.00
    2    7    9     -1.50      0.00
    2    7    8      1.15      0.00
    2    7    7      0.03      0.00
    2    7    6     -1.75      0.00
    2    7    5      3.08      0.00
    2    7    4     -3.10      0.00
    2    7    3      1.55      0.00
    2    7    2      0.73      0.00
    2    7    1     -2.24      0.00
    2    7    0      2.11      0.00
   -2   -7    1     -0.92      0.00
   -2   -7    2     -0.05      0.00
   -2   -7    3      0.26      0.00
   -2   -7    4     -0.17      0.00
   -2   -7    5      0.21      0.00
   -2   -7    6     -0.25      0.00
   -2   -7    7      0.16      0.00
   -2   -7    8     -0.18      0.00
   -2   -7    9      0.34      0.00
    2    6   11     -1.70      0.00
    2    6   10      1.99      0.00
    2    6    9     -1.64      0.00
    2    6    8      0.94      0.00
    2    6    7     -0.64      0.00
    2    6    6      1.24      0.00
    2    6    5     -2.12      0.00
    2    6    4      2.08      0.00
    2    6    3     -0.73      0.00
    2    6    2     -0.81      0.00
    2    6    1      1.03      0.00
    2    6    0      0.23      0.00
   -2   -6    1     -1.59      0.00
   -2   -6    2      1.70      0.00
   -2   -6    3     -0.88      0.00
   -2   -6    4      0.27      0.00
   -2   -6    5     -0.23      0.00
   -2   -6    6      0.40      0.00
   -2   -6    7     -0.67      0.00
   -2   -6    8      0.84      0.00
   -2   -6    9     -0.43      0.00
   -2   -6   10     -0.37      0.00
    2    5   11      1.19      0.00
    2    5   10     -1.05      0.00
    2    5    9      0.60      0.00
    2    5    8     -0.34      0.00
    2    5    7      0.55      0.00
    2    5    6     -0.54      0.00
    2    5    5     -1.16      0.00
    2    5    4      4.67      0.00
    2    5    3     -7.50      0.00
    2    5    2      6.82      0.00
    2    5    1     -2.55      0.00
    2    5    0     -2.44      0.00
   -2   -5    1      5.00      0.00
   -2   -5    2     -4.29      0.00
   -2   -5    3      2.07      0.00
   -2   -5    4     -0.49      0.00
   -2   -5    5      0.01      0.00
   -2   -5    6      0.12      0.00
   -2   -5    7     -0.38      0.00
   -2   -5    8      0.63      0.00
   -2   -5    9     -0.75      0.00
   -2   -5   10      0.66      0.00
    2    4   11      0.27      0.00
    2    4   10     -1.14      0.00
    2    4    9      1.80      0.00
    2    4    8     -1.64      0.00
    2    4    7      0.15      0.00
    2    4    6      1.52      0.00
    2    4    5     -0.94      0.00
    2    4    4     -2.12      0.00
    2    4    3      4.63      0.00
    2    4    2     -3.97      0.00
    2    4    1      0.86      0.00
    2    4    0      1.86      0.00
   -2   -4    1     -2.15      0.00
   -2   -4    2      0.33      0.00
   -2   -4    3      1.47      0.00
   -2   -4    4     -1.71      0.00
   -2   -4    5      0.86      0.00
   -2   -4    6     -0.19      0.00
   -2   -4    7      0.13      0.00
   -2   -4    8     -0.45      0.00
   -2   -4    9      0.71      0.00
   -2   -4   10     -0.45      0.00
   -2   -4   11     -0.18      0.00
    2    3   13      0.36      0.00
    2    3   12     -0.20      0.00
    2    3   10      1.52      0.00
    2    3    9     -2.24      0.00
    2    3    8      1.90      0.00
    2    3    7     -0.40      0.00
    2    3    6     -0.88      0.00
    2    3    5      0.82      0.00
    2    3    4     -0.53      0.00
    2    3    3      1.67      0.00
    2    3    2     -3.72      0.00
    2    3    1      4.29      0.00
    2    3    0     -1.63      0.00
   -2   -3    1     -3.31      0.00
   -2   -3    2      7.29      0.00
   -2   -3    3     -7.67      0.00
   -2   -3    4      5.03      0.00
   -2   -3    5     -1.98      0.00
   -2   -3    6      0.26      0.00
   -2   -3    7      0.22      0.00
   -2   -3    8     -0.29      0.00
   -2   -3    9      0.51      0.00
   -2   -3   10     -0.70      0.00
   -2   -3   11      0.51      0.00
   -2   -3   12     -0.16      0.00
    2    2   12      0.14      0.00
    2    2   11      0.32      0.00
    2    2   10     -0.45      0.00
    2    2    9     -0.01      0.00
    2    2    8      0.93      0.00
    2    2    7     -1.33      0.00
    2    2    6     -0.46      0.00
    2    2    5      4.26      0.00
    2    2    4     -5.69      0.00
    2    2    3     -0.70      0.00
    2    2    2     14.06      0.00
    2    2    1    -25.60      0.00
    2    2    0     26.98      0.00
   -2   -2    1    -19.00      0.00
   -2   -2    2      9.40      0.00
   -2   -2    3     -3.86      0.00
   -2   -2    4      2.24      0.00
   -2   -2    5     -1.83      0.00
   -2   -2    6      1.04      0.00
   -2   -2    7     -0.06      0.00
   -2   -2    8     -0.29      0.00
   -2   -2    9     -0.01      0.00
   -2   -2   10      0.21      0.00
   -2   -2   11     -0.06      0.00
   -2   -2   12     -0.04      0.00
    2    1   11     -0.35      0.00
    2    1   10     -0.17      0.00
    2    1    9      1.89      0.00
    2    1    8     -4.29      0.00
    2    1    7      5.37      0.00
    2    1    6     -3.30      0.00
    2    1    5     -1.03      0.00
    2    1    4      4.18      0.00
    2    1    3     -4.02      0.00
    2    1    2      2.97      0.00
    2    1    1     -5.25      0.00
    2    1    0     10.84      0.00
   -2   -1    1    -14.45      0.00
   -2   -1    2     11.90      0.00
   -2   -1    3     -5.12      0.00
   -2   -1    4     -0.63      0.00
   -2   -1    5      2.47      0.00
   -2   -1    6     -1.45      0.00
   -2   -1    7      0.01      0.00
   -2   -1    8      0.59      0.00
   -2   -1    9     -0.55      0.00
   -2   -1   10      0.22      0.00
   -2   -1   11      0.31      0.00
   -2   -1   12     -0.68      0.00
   -2   -1   13      0.51      0.00
    2    0   11      0.98      0.00
    2    0   10     -0.24      0.00
    2    0    9     -0.52      0.00
    2    0    8      0.11      0.00
    2    0    7      1.44      0.00
    2    0    6     -2.38      0.00
    2    0    5      0.49      0.00
    2    0    4      5.16      0.00
    2    0    3    -11.45      0.00
    2    0    2     10.32      0.00
    2    0    1      3.55      0.00
    2    0    0    -22.89      0.00
   -2    0    1     32.55      0.00
   -2    0    2    -26.37      0.00
   -2    0    3     12.93      0.00
   -2    0    4     -3.29      0.00
   -2    0    5      0.22      0.00
   -2    0    6     -0.35      0.00
   -2    0    7      0.60      0.00
   -2    0    8     -0.19      0.00
   -2    0    9     -0.30      0.00
   -2    0   10      0.24      0.00
   -2    0   11      0.22      0.00
   -2    0   12     -0.48      0.00
   -2    0   13      0.38      0.00
   -2    0   14     -0.18      0.00
    2   -1   10      0.30      0.00
    2   -1    9     -0.52      0.00
    2   -1    8      1.52      0.00
    2   -1    7     -3.09      0.00
    2   -1    6      4.38      0.00
    2   -1    5     -3.88      0.00
    2   -1    4      0.81      0.00
    2   -1    3      1.66      0.00
    2   -1    2      1.73      0.00
    2   -1    1     -9.83      0.00
   -2    1    0     13.44      0.00
   -2    1    1     -6.83      0.00
   -2    1    2     -4.29      0.00
   -2    1    3     10.56      0.00
   -2    1    4     -9.50      0.00
   -2    1    5      5.04      0.00
   -2    1    6     -1.41      0.00
   -2    1    7      0.19      0.00
   -2    1    8     -0.65      0.00
   -2    1    9      1.23      0.00
   -2    1   10     -1.21      0.00
   -2    1   11      0.79      0.00
   -2    1   12     -0.05      0.00
   -2    1   13     -0.79      0.00
   -2    1   14      1.03      0.00
    2   -2    9     -2.24      0.00
    2   -2    8      1.64      0.00
    2   -2    7     -0.61      0.00
    2   -2    6      0.29      0.00
    2   -2    5     -1.17      0.00
    2   -2    4      2.27      0.00
    2   -2    3     -1.98      0.00
    2   -2    2      0.73      0.00
    2   -2    1     -2.01      0.00
   -2    2    0      8.65      0.00
   -2    2    1    -17.97      0.00
   -2    2    2     23.18      0.00
   -2    2    3    -20.05      0.00
   -2    2    4     11.11      0.00
   -2    2    5     -2.69      0.00
   -2    2    6     -1.12      0.00
   -2    2    7      1.08      0.00
   -2    2    8     -0.17      0.00
   -2    2    9     -0.05      0.00
   -2    2   10     -0.14      0.00
   -2    2   11      0.29      0.00
   -2    2   12     -0.28      0.00
   -2    2   13      0.09      0.00
   -2    2   14      0.13      0.00
   -2    2   15     -0.15      0.00
    2   -3    8      0.20      0.00
    2   -3    7     -0.39      0.00
    2   -3    6     -0.35      0.00
    2   -3    5      1.23      0.00
    2   -3    4     -0.55      0.00
    2   -3    3     -2.76      0.00
    2   -3    2      7.31      0.00
    2   -3    1     -8.89      0.00
   -2    3    0      4.34      0.00
   -2    3    1      3.76      0.00
   -2    3    2     -8.54      0.00
   -2    3    3      6.25      0.00
   -2    3    4     -0.14      0.00
   -2    3    5     -3.97      0.00
   -2    3    6      4.02      0.00
   -2    3    7     -2.12      0.00
   -2    3    8      0.78      0.00
   -2    3    9     -0.69      0.00
   -2    3   10      1.22      0.00
   -2    3   11     -1.59      0.00
   -2    3   12      1.38      0.00
   -2    3   13     -0.70      0.00
   -2    3   14     -0.05      0.00
   -2    3   15      0.48      0.00
    2   -4    6     -0.58      0.00
    2   -4    5     -0.62      0.00
    2   -4    4      0.99      0.00
    2   -4    3     -0.05      0.00
    2   -4    2     -1.23      0.00
    2   -4    1      1.52      0.00
   -2    4    0     -0.98      0.00
   -2    4    1      1.29      0.00
   -2    4    2     -3.64      0.00
   -2    4    3      6.99      0.00
   -2    4    4     -8.64      0.00
   -2    4    5      6.90      0.00
   -2    4    6     -3.08      0.00
   -2    4    7      0.02      0.00
   -2    4    8      0.98      0.00
   -2    4    9     -0.66      0.00
   -2    4   10      0.10      0.00
   -2    4   11      0.26      0.00
   -2    4   12     -0.31      0.00
   -2    4   13      0.10      0.00
   -2    4   14      0.15      0.00
   -2    4   15     -0.22      0.00
    2   -5    5     -0.05      0.00
    2   -5    4      0.09      0.00
    2   -5    3     -0.36      0.00
    2   -5    2     -0.80      0.00
    2   -5    1      3.85      0.00
   -2    5    0     -6.92      0.00
   -2    5    1      7.26      0.00
   -2    5    2     -3.71      0.00
   -2    5    3     -1.59      0.00
   -2    5    4      4.72      0.00
   -2    5    5     -3.98      0.00
   -2    5    6      1.40      0.00
   -2    5    7      0.38      0.00
   -2    5    8     -0.81      0.00
   -2    5    9      0.72      0.00
   -2    5   10     -0.78      0.00
   -2    5   11      1.14      0.00
   -2    5   12     -1.39      0.00
   -2    5   13      1.10      0.00
   -2    5   14     -0.50      0.00
   -2    5   15      0.15      0.00
   -2    5   16     -0.07      0.00
    2   -6    6      2.02      0.00
    2   -6    5     -2.01      0.00
    2   -6    4      0.91      0.00
    2   -6    3      0.30      0.00
    2   -6    2     -0.40      0.00
    2   -6    1     -0.33      0.00
   -2    6    0      0.45      0.00
   -2    6    1      0.87      0.00
   -2    6    2     -2.70      0.00
   -2    6    3      3.14      0.00
   -2    6    4     -1.27      0.00
   -2    6    5     -1.71      0.00
   -2    6    6      3.60      0.00
   -2    6    7     -3.40      0.00
   -2    6    8      1.86      0.00
   -2    6    9     -0.49      0.00
   -2    6   10      0.09      0.00
   -2    6   11     -0.28      0.00
   -2    6   12      0.39      0.00
   -2    6   13     -0.36      0.00
   -2    6   14      0.42      0.00
   -2    6   15     -0.40      0.00
    2   -7    5      0.05      0.00
    2   -7    4      0.52      0.00
    2   -7    3     -0.62      0.00
    2   -7    2     -0.17      0.00
    2   -7    1      1.04      0.00
   -2    7    0     -0.94      0.00
   -2    7    2      1.09      0.00
   -2    7    3     -1.05      0.00
   -2    7    4      0.03      0.00
   -2    7    5      1.03      0.00
   -2    7    6     -1.18      0.00
   -2    7    7      0.39      0.00
   -2    7    8      0.53      0.00
   -2    7    9     -0.89      0.00
   -2    7   10      0.80      0.00
   -2    7   11     -0.68      0.00
   -2    7   12      0.61      0.00
   -2    7   13     -0.48      0.00
   -2    7   14      0.34      0.00
   -2    7   15     -0.34      0.00
    2   -8    5      0.37      0.00
    2   -8    4     -0.64      0.00
    2   -8    3      0.75      0.00
    2   -8    2     -0.39      0.00
    2   -8    1      0.14      0.00
   -2    8    2     -2.06      0.00
   -2    8    3      1.43      0.00
   -2    8    4      0.13      0.00
   -2    8    5     -1.62      0.00
   -2    8    6      2.12      0.00
   -2    8    7     -1.62      0.00
   -2    8    8      0.94      0.00
   -2    8    9     -0.68      0.00
   -2    8   10      0.63      0.00
   -2    8   11     -0.33      0.00
   -2    8   12     -0.22      0.00
   -2    8   13      0.65      0.00
   -2    8   14     -0.71      0.00
   -2    8   15      0.44      0.00
    2   -9    4      0.83      0.00
    2   -9    3     -0.45      0.00
    2   -9    2     -0.24      0.00
   -2    9    3      0.36      0.00
   -2    9    4     -1.08      0.00
   -2    9    5      0.98      0.00
   -2    9    6     -0.26      0.00
   -2    9    7     -0.49      0.00
   -2    9    8      0.91      0.00
   -2    9    9     -1.05      0.00
   -2    9   10      0.93      0.00
   -2    9   11     -0.52      0.00
   -2    9   12      0.04      0.00
   -2    9   13      0.15      0.00
   -2    9   14     -0.17      0.00
   -2   10    3     -1.57      0.00
   -2   10    4      1.71      0.00
   -2   10    5     -1.33      0.00
   -2   10    6      0.48      0.00
   -2   10    7      0.44      0.00
   -2   10    8     -0.89      0.00
   -2   10    9      0.62      0.00
   -2   10   10      0.02      0.00
   -2   10   11     -0.38      0.00
   -2   10   12      0.20      0.00
   -2   10   13      0.07      0.00
   -2   10   14     -0.02      0.00
   -2   11    4      0.04      0.00
   -2   11    5     -0.74      0.00
   -2   11    6      1.25      0.00
   -2   11    7     -1.22      0.00
   -2   11    8      0.82      0.00
   -2   11    9     -0.44      0.00
   -2   11   10      0.33      0.00
   -2   11   11     -0.47      0.00
   -2   11   12      0.58      0.00
   -2   11   13     -0.43      0.00
   -2   12    5      0.67      0.00
   -2   12    6     -0.34      0.00
   -2   12    7      0.09      0.00
   -2   12    8      0.12      0.00
   -2   12    9     -0.38      0.00
   -2   12   10      0.51      0.00
   -2   12   11     -0.38      0.00
   -2   12   12      0.17      0.00
   -2   13    5     -0.09      0.00
   -2   13    6      0.12      0.00
   -2   13    7      0.08      0.00
   -2   13    8     -0.33      0.00
   -2   13    9      0.33      0.00
   -2   13   10     -0.08      0.00
   -2   13   11     -0.03      0.00
   -2   13   12     -0.10      0.00
   -2   14    6      0.53      0.00
   -2   14    7     -0.77      0.00
   -2   14    8      0.63      0.00
   -2   14    9     -0.25      0.00
   -2   14   10     -0.06      0.00
   -2   14   11      0.04      0.00
   -2   15    7      0.04      0.00
   -2   15    8      0.11      0.00
   -2   15    9     -0.26      0.00
   -2   16    8     -0.32      0.00
    1   16    7      0.06      0.00
    1   15    8      0.06      0.00
    1   15    7     -0.10      0.00
    1   15    6     -0.06      0.00
    1   15    5      0.16      0.00
    1   14    9     -0.17      0.00
    1   14    8     -0.05      0.00
    1   14    7      0.16      0.00
    1   14    6     -0.16      0.00
    1   14    5      0.30      0.00
    1   14    4     -0.47      0.00
    1   14    3      0.30      0.00
    1   14    2      0.23      0.00
    1   14    1     -0.54      0.00
    1   14    0      0.16      0.00
   -1  -14    1      0.52      0.00
   -1  -14    2     -0.79      0.00
    1   13   10      0.23      0.00
    1   13    9     -0.32      0.00
    1   13    8      0.08      0.00
    1   13    7      0.14      0.00
    1   13    6     -0.09      0.00
    1   13    5     -0.11      0.00
    1   13    4      0.22      0.00
    1   13    3     -0.24      0.00
    1   13    2      0.35      0.00
    1   13    1     -0.45      0.00
    1   13    0      0.24      0.00
   -1  -13    1      0.39      0.00
   -1  -13    2     -1.01      0.00
   -1  -13    3      1.01      0.00
    1   12   11     -0.02      0.00
    1   12   10      0.09      0.00
    1   12    9      0.14      0.00
    1   12    8     -0.51      0.00
    1   12    7      0.67      0.00
    1   12    6     -0.61      0.00
    1   12    5      0.54      0.00
    1   12    4     -0.42      0.00
    1   12    3      0.14      0.00
    1   12    2      0.25      0.00
    1   12    1     -0.52      0.00
    1   12    0      0.46      0.00
   -1  -12    1     -0.11      0.00
   -1  -12    2     -0.22      0.00
   -1  -12    3      0.08      0.00
   -1  -12    4      0.46      0.00
   -1  -12    5     -0.80      0.00
    1   11    9     -0.14      0.00
    1   11    8      0.27      0.00
    1   11    7     -0.43      0.00
    1   11    6      0.28      0.00
    1   11    5      0.40      0.00
    1   11    4     -1.23      0.00
    1   11    3      1.55      0.00
    1   11    2     -1.25      0.00
    1   11    1      0.74      0.00
    1   11    0     -0.40      0.00
   -1  -11    1      0.32      0.00
   -1  -11    2     -0.44      0.00
   -1  -11    3      0.51      0.00
   -1  -11    4     -0.14      0.00
   -1  -11    5     -0.45      0.00
   -1  -11    6      0.55      0.00
    1   10   10     -0.03      0.00
    1   10    9      0.27      0.00
    1   10    8     -0.28      0.00
    1   10    7     -0.22      0.00
    1   10    6      1.17      0.00
    1   10    5     -1.95      0.00
    1   10    4      1.99      0.00
    1   10    3     -1.37      0.00
    1   10    2      0.56      0.00
    1   10    1      0.10      0.00
    1   10    0     -0.42      0.00
   -1  -10    1      0.41      0.00
   -1  -10    2     -0.25      0.00
   -1  -10    3      0.26      0.00
   -1  -10    4     -0.53      0.00
   -1  -10    5      0.67      0.00
   -1  -10    6     -0.42      0.00
    1    9   11     -0.01      0.00
    1    9   10      0.09      0.00
    1    9    9     -0.15      0.00
    1    9    8     -0.14      0.00
    1    9    7      0.75      0.00
    1    9    6     -1.09      0.00
    1    9    5      0.62      0.00
    1    9    4      0.62      0.00
    1    9    3     -2.07      0.00
    1    9    2      2.88      0.00
    1    9    1     -2.41      0.00
    1    9    0      1.12      0.00
   -1   -9    1     -0.21      0.00
   -1   -9    2      0.15      0.00
   -1   -9    3     -0.36      0.00
   -1   -9    4      0.38      0.00
   -1   -9    5     -0.27      0.00
   -1   -9    6      0.15      0.00
   -1   -9    7     -0.01      0.00
    1    8   12     -0.93      0.00
    1    8   11      1.08      0.00
    1    8   10     -1.20      0.00
    1    8    9      1.05      0.00
    1    8    8     -0.36      0.00
    1    8    7     -0.72      0.00
    1    8    6      1.48      0.00
    1    8    5     -1.22      0.00
    1    8    4     -0.06      0.00
    1    8    3      1.52      0.00
    1    8    2     -2.06      0.00
    1    8    1      1.42      0.00
    1    8    0     -0.42      0.00
   -1   -8    1     -0.09      0.00
   -1   -8    2      0.15      0.00
   -1   -8    3     -0.10      0.00
   -1   -8    4      0.08      0.00
   -1   -8    5     -0.16      0.00
   -1   -8    6      0.33      0.00
   -1   -8    7     -0.35      0.00
   -1   -8    8      0.08      0.00
    1    7   12     -1.05      0.00
    1    7   11      1.17      0.00
    1    7   10     -1.09      0.00
    1    7    9      1.00      0.00
    1    7    8     -1.07      0.00
    1    7    7      1.14      0.00
    1    7    6     -0.80      0.00
    1    7    5     -0.11      0.00
    1    7    4      1.11      0.00
    1    7    3     -1.27      0.00
    1    7    2      0.07      0.00
    1    7    1      1.78      0.00
    1    7    0     -2.80      0.00
   -1   -7    1      2.25      0.00
   -1   -7    2     -0.90      0.00
   -1   -7    3      0.10      0.00
   -1   -7    4     -0.14      0.00
   -1   -7    5      0.39      0.00
   -1   -7    6     -0.45      0.00
   -1   -7    7      0.51      0.00
   -1   -7    8     -0.47      0.00
   -1   -7    9      0.19      0.00
    1    6   12      0.79      0.00
    1    6   11     -0.64      0.00
    1    6   10      0.15      0.00
    1    6    9      0.06      0.00
    1    6    8      0.34      0.00
    1    6    7     -0.65      0.00
    1    6    6     -0.25      0.00
    1    6    5      2.30      0.00
    1    6    4     -3.83      0.00
    1    6    3      3.23      0.00
    1    6    2     -0.66      0.00
    1    6    1     -2.06      0.00
    1    6    0      3.06      0.00
   -1   -6    1     -1.96      0.00
   -1   -6    2      0.10      0.00
   -1   -6    3      0.86      0.00
   -1   -6    4     -0.73      0.00
   -1   -6    5      0.41      0.00
   -1   -6    6     -0.39      0.00
   -1   -6    7      0.55      0.00
   -1   -6    8     -0.70      0.00
   -1   -6    9      0.68      0.00
   -1   -6   10     -0.46      0.00
    1    5   11     -0.50      0.00
    1    5   10      0.62      0.00
    1    5    9     -0.17      0.00
    1    5    8     -0.39      0.00
    1    5    7      0.21      0.00
    1    5    6      1.65      0.00
    1    5    5     -4.73      0.00
    1    5    4      6.44      0.00
    1    5    3     -4.61      0.00
    1    5    2      0.47      0.00
    1    5    1      2.50      0.00
    1    5    0     -2.25      0.00
   -1   -5    1      0.01      0.00
   -1   -5    2      1.46      0.00
   -1   -5    3     -0.93      0.00
   -1   -5    4     -0.37      0.00
   -1   -5    5      0.86      0.00
   -1   -5    6     -0.41      0.00
   -1   -5    7     -0.27      0.00
   -1   -5    8      0.78      0.00
   -1   -5    9     -0.78      0.00
   -1   -5   10      0.03      0.00
   -1   -5   11      0.93      0.00
    1    4   11      1.93      0.00
    1    4   10     -2.27      0.00
    1    4    9      1.80      0.00
    1    4    8     -0.54      0.00
    1    4    7     -0.43      0.00
    1    4    6      0.57      0.00
    1    4    5     -1.87      0.00
    1    4    4      6.12      0.00
    1    4    3    -10.72      0.00
    1    4    2     10.82      0.00
    1    4    1     -5.31      0.00
    1    4    0     -2.08      0.00
   -1   -4    1      6.82      0.00
   -1   -4    2     -7.11      0.00
   -1   -4    3      4.47      0.00
   -1   -4    4     -1.83      0.00
   -1   -4    5      0.76      0.00
   -1   -4    6     -0.70      0.00
   -1   -4    7      0.61      0.00
   -1   -4    8     -0.17      0.00
   -1   -4    9     -0.40      0.00
   -1   -4   10      0.61      0.00
   -1   -4   11     -0.16      0.00
    1    3   10     -1.00      0.00
    1    3    9      1.73      0.00
    1    3    8     -1.60      0.00
    1    3    7     -0.49      0.00
    1    3    6      3.72      0.00
    1    3    5     -4.74      0.00
    1    3    4      0.82      0.00
    1    3    3      6.30      0.00
    1    3    2    -11.12      0.00
    1    3    1      9.65      0.00
    1    3    0     -3.57      0.00
   -1   -3    1     -1.53      0.00
   -1   -3    2      2.27      0.00
   -1   -3    3     -0.20      0.00
   -1   -3    4     -1.45      0.00
   -1   -3    5      1.55      0.00
   -1   -3    6     -0.88      0.00
   -1   -3    7      0.46      0.00
   -1   -3    8     -0.68      0.00
   -1   -3    9      1.11      0.00
   -1   -3   10     -1.05      0.00
   -1   -3   11      0.55      0.00
   -1   -3   12     -0.17      0.00
    1    2   10      1.96      0.00
    1    2    9     -3.07      0.00
    1    2    8      2.87      0.00
    1    2    7     -1.02      0.00
    1    2    6     -1.04      0.00
    1    2    5      0.78      0.00
    1    2    4      2.18      0.00
    1    2    3     -4.57      0.00
    1    2    2      3.15      0.00
    1    2    1      0.40      0.00
    1    2    0     -0.90      0.00
   -1   -2    1     -3.62      0.00
   -1   -2    2      9.23      0.00
   -1   -2    3    -10.94      0.00
   -1   -2    4      7.92      0.00
   -1   -2    5     -3.03      0.00
   -1   -2    6     -0.52      0.00
   -1   -2    7      1.54      0.00
   -1   -2    8     -1.04      0.00
   -1   -2    9      0.52      0.00
   -1   -2   10     -0.26      0.00
   -1   -2   11     -0.08      0.00
   -1   -2   12      0.19      0.00
   -1   -2   13      0.16      0.00
    1    1    9     -0.40      0.00
    1    1    8      1.13      0.00
    1    1    7     -1.47      0.00
    1    1    6     -0.61      0.00
    1    1    5      5.59      0.00
    1    1    4     -9.07      0.00
    1    1    3      3.06      0.00
    1    1    2     15.66      0.00
    1    1    1    -38.10      0.00
    1    1    0     48.64      0.00
   -1   -1    1    -40.68      0.00
   -1   -1    2     23.16      0.00
   -1   -1    3     -9.34      0.00
   -1   -1    4      3.75      0.00
   -1   -1    5     -2.51      0.00
   -1   -1    6      1.52      0.00
   -1   -1    7     -0.20      0.00
   -1   -1    8     -0.58      0.00
   -1   -1    9      0.53      0.00
   -1   -1   10     -0.01      0.00
   -1   -1   11     -0.60      0.00
   -1   -1   12      0.94      0.00
   -1   -1   13     -0.79      0.00
    1    0   10      0.23      0.00
    1    0    9      1.07      0.00
    1    0    8     -3.19      0.00
    1    0    7      4.57      0.00
    1    0    6     -3.92      0.00
    1    0    5      1.75      0.00
    1    0    4     -1.32      0.00
    1    0    3      6.73      0.00
    1    0    2    -16.11      0.00
    1    0    1     19.11      0.00
   -1    0    1     -8.59      0.00
   -1    0    2     17.21      0.00
   -1    0    3    -13.44      0.00
   -1    0    4      5.36      0.00
   -1    0    5     -0.65      0.00
   -1    0    6      0.06      0.00
   -1    0    7     -1.11      0.00
   -1    0    8      1.86      0.00
   -1    0    9     -1.62      0.00
   -1    0   10      0.76      0.00
   -1    0   11      0.06      0.00
   -1    0   12     -0.62      0.00
   -1    0   13      0.78      0.00
   -1    0   14     -0.39      0.00
    1   -1    9     -0.02      0.00
    1   -1    8      0.25      0.00
    1   -1    7      0.83      0.00
    1   -1    6     -2.73      0.00
    1   -1    5      4.10      0.00
    1   -1    4     -3.88      0.00
    1   -1    3      4.30      0.00
    1   -1    2    -11.89      0.00
    1   -1    1     29.73      0.00
   -1    1    0    -48.47      0.00
   -1    1    1     52.72      0.00
   -1    1    2    -38.29      0.00
   -1    1    3     16.57      0.00
   -1    1    4     -1.06      0.00
   -1    1    5     -4.14      0.00
   -1    1    6      2.91      0.00
   -1    1    7     -0.45      0.00
   -1    1    8     -0.49      0.00
   -1    1    9      0.08      0.00
   -1    1   10      0.27      0.00
   -1    1   11      0.06      0.00
   -1    1   12     -0.68      0.00
   -1    1   13      1.07      0.00
   -1    1   14     -0.92      0.00
   -1    1   15      0.34      0.00
    1   -2    8      0.21      0.00
    1   -2    7     -1.02      0.00
    1   -2    6      1.16      0.00
    1   -2    5      1.02      0.00
    1   -2    4     -6.36      0.00
    1   -2    3     13.20      0.00
    1   -2    2    -17.09      0.00
    1   -2    1     14.26      0.00
   -1    2    0     -6.47      0.00
   -1    2    1      0.30      0.00
   -1    2    2     -0.23      0.00
   -1    2    3      3.83      0.00
   -1    2    4     -5.34      0.00
   -1    2    5      2.75      0.00
   -1    2    6      0.65      0.00
   -1    2    7     -1.36      0.00
   -1    2    8     -0.30      0.00
   -1    2    9      1.89      0.00
   -1    2   10     -2.21      0.00
   -1    2   11      1.71      0.00
   -1    2   12     -0.99      0.00
   -1    2   13      0.26      0.00
   -1    2   14      0.31      0.00
   -1    2   15     -0.53      0.00
    1   -3    7      0.00      0.00
    1   -3    6     -1.18      0.00
    1   -3    5      1.78      0.00
    1   -3    4     -1.98      0.00
    1   -3    3      2.90      0.00
    1   -3    2     -5.40      0.00
    1   -3    1      7.39      0.00
   -1    3    0     -4.29      0.00
   -1    3    1     -5.27      0.00
   -1    3    2     15.56      0.00
   -1    3    3    -18.83      0.00
   -1    3    4     13.66      0.00
   -1    3    5     -5.71      0.00
   -1    3    6      0.73      0.00
   -1    3    7      0.42      0.00
   -1    3    8     -0.03      0.00
   -1    3    9     -0.28      0.00
   -1    3   10      0.28      0.00
   -1    3   11     -0.07      0.00
   -1    3   12     -0.20      0.00
   -1    3   13      0.20      0.00
   -1    3   14      0.20      0.00
   -1    3   15     -0.72      0.00
   -1    3   16      0.86      0.00
    1   -4    6     -0.57      0.00
    1   -4    5      1.37      0.00
    1   -4    4     -1.92      0.00
    1   -4    3      0.65      0.00
    1   -4    2      2.49      0.00
    1   -4    1     -5.03      0.00
   -1    4    0      4.28      0.00
   -1    4    1     -0.20      0.00
   -1    4    2     -4.19      0.00
   -1    4    3      5.22      0.00
   -1    4    4     -2.11      0.00
   -1    4    5     -1.96      0.00
   -1    4    6      3.36      0.00
   -1    4    7     -2.03      0.00
   -1    4    8      0.52      0.00
   -1    4    9     -0.34      0.00
   -1    4   10      0.99      0.00
   -1    4   11     -1.47      0.00
   -1    4   12      1.26      0.00
   -1    4   13     -0.59      0.00
   -1    4   14      0.17      0.00
   -1    4   15     -0.36      0.00
   -1    4   16      0.71      0.00
    1   -5    6     -1.75      0.00
    1   -5    5      0.76      0.00
    1   -5    4     -0.13      0.00
    1   -5    3      1.08      0.00
    1   -5    2     -2.83      0.00
    1   -5    1      3.25      0.00
   -1    5    0     -1.22      0.00
   -1    5    1     -2.02      0.00
   -1    5    2      3.67      0.00
   -1    5    3     -1.92      0.00
   -1    5    4     -1.69      0.00
   -1    5    5      3.77      0.00
   -1    5    6     -3.06      0.00
   -1    5    7      1.27      0.00
   -1    5    8     -0.21      0.00
   -1    5    9      0.11      0.00
   -1    5   10     -0.48      0.00
   -1    5   11      0.80      0.00
   -1    5   12     -0.71      0.00
   -1    5   13      0.34      0.00
   -1    5   14      0.09      0.00
   -1    5   15     -0.55      0.00
   -1    5   16      0.86      0.00
    1   -6    5      0.65      0.00
    1   -6    4     -0.62      0.00
    1   -6    3      0.04      0.00
    1   -6    2     -0.07      0.00
    1   -6    1      1.40      0.00
   -1    6    1      2.93      0.00
   -1    6    2     -0.35      0.00
   -1    6    3     -3.39      0.00
   -1    6    4      5.62      0.00
   -1    6    5     -4.79      0.00
   -1    6    6      1.90      0.00
   -1    6    7      0.68      0.00
   -1    6    8     -1.64      0.00
   -1    6    9      1.44      0.00
   -1    6   10     -1.20      0.00
   -1    6   11      1.28      0.00
   -1    6   12     -1.25      0.00
   -1    6   13      0.84      0.00
   -1    6   14     -0.34      0.00
   -1    6   15      0.03      0.00
   -1    6   16      0.13      0.00
    1   -7    5     -0.78      0.00
    1   -7    4      0.53      0.00
    1   -7    3      0.16      0.00
    1   -7    2     -0.39      0.00
    1   -7    1     -0.54      0.00
   -1    7    1     -2.63      0.00
   -1    7    2      2.03      0.00
   -1    7    3     -0.81      0.00
   -1    7    4     -0.10      0.00
   -1    7    5      0.25      0.00
   -1    7    6     -0.03      0.00
   -1    7    7      0.04      0.00
   -1    7    8     -0.40      0.00
   -1    7    9      0.70      0.00
   -1    7   10     -0.63      0.00
   -1    7   11      0.25      0.00
   -1    7   12      0.21      0.00
   -1    7   13     -0.62      0.00
   -1    7   14      0.83      0.00
   -1    7   15     -0.72      0.00
   -1    7   16      0.36      0.00
    1   -8    4     -0.14      0.00
    1   -8    3     -0.14      0.00
    1   -8    2     -0.07      0.00
   -1    8    2      1.88      0.00
   -1    8    3     -2.69      0.00
   -1    8    4      1.94      0.00
   -1    8    5     -0.07      0.00
   -1    8    6     -1.65      0.00
   -1    8    7      2.21      0.00
   -1    8    8     -1.71      0.00
   -1    8    9      0.95      0.00
   -1    8   10     -0.48      0.00
   -1    8   11      0.29      0.00
   -1    8   12     -0.16      0.00
   -1    8   13     -0.15      0.00
   -1    8   14      0.71      0.00
   -1    8   15     -1.19      0.00
   -1    8   16      1.09      0.00
    1   -9    4     -0.74      0.00
   -1    9    2     -1.93      0.00
   -1    9    3      1.95      0.00
   -1    9    4     -1.05      0.00
   -1    9    5     -0.08      0.00
   -1    9    6      0.66      0.00
   -1    9    7     -0.51      0.00
   -1    9    8      0.08      0.00
   -1    9    9      0.19      0.00
   -1    9   10     -0.32      0.00
   -1    9   11      0.52      0.00
   -1    9   12     -0.75      0.00
   -1    9   13      0.84      0.00
   -1    9   14     -0.60      0.00
   -1    9   15      0.03      0.00
   -1    9   16      0.40      0.00
   -1   10    3      0.11      0.00
   -1   10    4     -1.00      0.00
   -1   10    5      1.66      0.00
   -1   10    6     -1.79      0.00
   -1   10    7      1.42      0.00
   -1   10    8     -0.79      0.00
   -1   10    9      0.20      0.00
   -1   10   10      0.01      0.00
   -1   10   11      0.31      0.00
   -1   10   12     -0.78      0.00
   -1   10   13      0.85      0.00
   -1   10   14     -0.54      0.00
   -1   10   15      0.29      0.00
   -1   11    3     -1.32      0.00
   -1   11    4      1.61      0.00
   -1   11    5     -1.21      0.00
   -1   11    6      0.23      0.00
   -1   11    7      0.69      0.00
   -1   11    8     -1.01      0.00
   -1   11    9      0.74      0.00
   -1   11   10     -0.26      0.00
   -1   11   11      0.02      0.00
   -1   11   12     -0.11      0.00
   -1   11   13      0.23      0.00
   -1   11   14     -0.05      0.00
   -1   11   15     -0.19      0.00
   -1   12    4      0.08      0.00
   -1   12    5     -0.31      0.00
   -1   12    6      0.26      0.00
   -1   12    7     -0.11      0.00
   -1   12    8      0.10      0.00
   -1   12    9     -0.23      0.00
   -1   12   10      0.44      0.00
   -1   12   11     -0.65      0.00
   -1   12   12      0.63      0.00
   -1   12   13     -0.31      0.00
   -1   12   14      0.05      0.00
   -1   13    5      0.72      0.00
   -1   13    6     -0.88      0.00
   -1   13    7      0.82      0.00
   -1   13    8     -0.42      0.00
   -1   13    9     -0.11      0.00
   -1   13   10      0.40      0.00
   -1   13   11     -0.42      0.00
   -1   13   12      0.39      0.00
   -1   13   13     -0.34      0.00
   -1   14    5     -0.26      0.00
   -1   14    6      0.05      0.00
   -1   14    7      0.16      0.00
   -1   14    8     -0.18      0.00
   -1   14    9      0.00      0.00
   -1   14   10      0.26      0.00
   -1   14   11     -0.33      0.00
   -1   14   12      0.09      0.00
   -1   15    6      0.39      0.00
   -1   15    7     -0.54      0.00
   -1   15    8      0.61      0.00
   -1   15    9     -0.52      0.00
   -1   15   10      0.27      0.00
   -1   15   11     -0.05      0.00
   -1   16    7     -0.16      0.00
   -1   16    8      0.41      0.00
   -1   16    9     -0.57      0.00
   -1   16   10      0.47      0.00
    0   16    8     -0.51      0.00
    0   16    7      0.26      0.00
    0   16    6     -0.17      0.00
    0   16    5      0.12      0.00
    0   15    9      0.62      0.00
    0   15    8     -0.34      0.00
    0   15    7      0.11      0.00
    0   15    6      0.08      0.00
    0   15    5     -0.29      0.00
    0   15    4      0.43      0.00
    0   15    3     -0.30      0.00
    0   14   10     -0.56      0.00
    0   14    9      0.38      0.00
    0   14    8     -0.17      0.00
    0   14    7      0.15      0.00
    0   14    6     -0.32      0.00
    0   14    5      0.38      0.00
    0   14    4     -0.19      0.00
    0   14    3      0.02      0.00
    0   14    2     -0.13      0.00
    0   14    1      0.32      0.00
    0   14    0     -0.22      0.00
    0  -14    1     -0.11      0.00
    0  -14    2      0.24      0.00
    0  -14    3     -0.02      0.00
    0   13   10     -0.19      0.00
    0   13    9     -0.09      0.00
    0   13    8      0.27      0.00
    0   13    7     -0.24      0.00
    0   13    6      0.10      0.00
    0   13    5      0.03      0.00
    0   13    4     -0.11      0.00
    0   13    3      0.08      0.00
    0   13    2      0.03      0.00
    0   13    1     -0.03      0.00
    0   13    0     -0.13      0.00
    0  -13    1      0.25      0.00
    0  -13    2     -0.16      0.00
    0  -13    3      0.05      0.00
    0  -13    4     -0.14      0.00
    0   12    9      0.14      0.00
    0   12    8     -0.09      0.00
    0   12    7     -0.01      0.00
    0   12    6      0.26      0.00
    0   12    5     -0.68      0.00
    0   12    4      1.03      0.00
    0   12    3     -1.05      0.00
    0   12    2      0.81      0.00
    0   12    1     -0.56      0.00
    0   12    0      0.34      0.00
    0  -12    1     -0.04      0.00
    0  -12    2     -0.24      0.00
    0  -12    3      0.33      0.00
    0  -12    4     -0.28      0.00
    0  -12    5      0.24      0.00
    0   11    8     -0.44      0.00
    0   11    7      0.91      0.00
    0   11    6     -1.30      0.00
    0   11    5      1.28      0.00
    0   11    4     -0.69      0.00
    0   11    3     -0.04      0.00
    0   11    2      0.36      0.00
    0   11    1     -0.23      0.00
    0   11    0     -0.01      0.00
    0  -11    1      0.23      0.00
    0  -11    2     -0.34      0.00
    0  -11    3      0.13      0.00
    0  -11    4      0.25      0.00
    0  -11    5     -0.22      0.00
    0  -11    6     -0.23      0.00
    0   10   10      0.13      0.00
    0   10    9     -0.44      0.00
    0   10    8      0.84      0.00
    0   10    7     -1.11      0.00
    0   10    6      0.71      0.00
    0   10    5      0.41      0.00
    0   10    4     -1.57      0.00
    0   10    3      2.06      0.00
    0   10    2     -1.73      0.00
    0   10    1      1.05      0.00
    0   10    0     -0.63      0.00
    0  -10    1      0.73      0.00
    0  -10    2     -1.09      0.00
    0  -10    3      1.20      0.00
    0  -10    4     -0.90      0.00
    0  -10    5      0.53      0.00
    0  -10    6     -0.50      0.00
    0  -10    7      0.68      0.00
    0    9   11     -0.54      0.00
    0    9   10      0.38      0.00
    0    9    9     -0.07      0.00
    0    9    8     -0.21      0.00
    0    9    7      0.08      0.00
    0    9    6      0.66      0.00
    0    9    5     -1.66      0.00
    0    9    4      2.25      0.00
    0    9    3     -1.90      0.00
    0    9    2      0.76      0.00
    0    9    1      0.33      0.00
    0    9    0     -0.67      0.00
    0   -9    1      0.51      0.00
    0   -9    2     -0.42      0.00
    0   -9    3      0.46      0.00
    0   -9    4     -0.46      0.00
    0   -9    5      0.50      0.00
    0   -9    6     -0.54      0.00
    0   -9    7      0.37      0.00
    0   -9    8     -0.09      0.00
    0    8   12      0.82      0.00
    0    8   11     -0.59      0.00
    0    8   10      0.64      0.00
    0    8    9     -0.86      0.00
    0    8    8      0.83      0.00
    0    8    7     -0.25      0.00
    0    8    6     -0.64      0.00
    0    8    5      1.15      0.00
    0    8    4     -0.75      0.00
    0    8    3     -0.56      0.00
    0    8    2      1.96      0.00
    0    8    1     -2.35      0.00
    0    8    0      1.45      0.00
    0   -8    1     -0.19      0.00
    0   -8    2     -0.35      0.00
    0   -8    3      0.01      0.00
    0   -8    4      0.56      0.00
    0   -8    5     -0.81      0.00
    0   -8    6      0.78      0.00
    0   -8    7     -0.68      0.00
    0   -8    8      0.53      0.00
    0   -8    9     -0.29      0.00
    0    7   12     -0.23      0.00
    0    7   11      0.19      0.00
    0    7   10      0.03      0.00
    0    7    9     -0.26      0.00
    0    7    8      0.55      0.00
    0    7    7     -1.28      0.00
    0    7    6      2.23      0.00
    0    7    5     -2.34      0.00
    0    7    4      0.85      0.00
    0    7    3      1.54      0.00
    0    7    2     -3.14      0.00
    0    7    1      2.92      0.00
    0    7    0     -1.42      0.00
    0   -7    1      0.09      0.00
    0   -7    2      0.19      0.00
    0   -7    3      0.10      0.00
    0   -7    4     -0.08      0.00
    0   -7    5     -0.33      0.00
    0   -7    6      0.61      0.00
    0   -7    7     -0.53      0.00
    0   -7    8      0.17      0.00
    0   -7    9      0.40      0.00
    0    6   12     -0.12      0.00
    0    6   11      0.20      0.00
    0    6   10      0.27      0.00
    0    6    9     -0.84      0.00
    0    6    8      0.61      0.00
    0    6    7      0.78      0.00
    0    6    6     -2.52      0.00
    0    6    5      3.23      0.00
    0    6    4     -2.34      0.00
    0    6    3      0.82      0.00
    0    6    2     -0.22      0.00
    0    6    1      1.12      0.00
    0    6    0     -2.60      0.00
    0   -6    1      3.16      0.00
    0   -6    2     -2.24      0.00
    0   -6    3      0.79      0.00
    0   -6    4     -0.09      0.00
    0   -6    5      0.33      0.00
    0   -6    6     -0.90      0.00
    0   -6    7      1.37      0.00
    0   -6    8     -1.49      0.00
    0   -6    9      1.15      0.00
    0   -6   10     -0.65      0.00
    0    5   12      1.47      0.00
    0    5   11     -1.66      0.00
    0    5   10      1.36      0.00
    0    5    9     -0.98      0.00
    0    5    8      0.99      0.00
    0    5    7     -1.17      0.00
    0    5    6      0.10      0.00
    0    5    5      3.52      0.00
    0    5    4     -8.07      0.00
    0    5    3      9.54      0.00
    0    5    2     -6.00      0.00
    0    5    1      0.05      0.00
    0    5    0      3.92      0.00
    0   -5    1     -3.78      0.00
    0   -5    2      0.95      0.00
    0   -5    3      1.38      0.00
    0   -5    4     -1.46      0.00
    0   -5    5      0.43      0.00
    0   -5    6     -0.16      0.00
    0   -5    7      0.82      0.00
    0   -5    8     -1.44      0.00
    0   -5    9      1.43      0.00
    0   -5   10     -0.93      0.00
    0   -5   11      0.31      0.00
    0    4   11     -0.67      0.00
    0    4   10      0.98      0.00
    0    4    9     -0.59      0.00
    0    4    8     -0.49      0.00
    0    4    7      1.52      0.00
    0    4    6     -0.61      0.00
    0    4    5     -2.83      0.00
    0    4    4      6.00      0.00
    0    4    3     -5.49      0.00
    0    4    2      1.54      0.00
    0    4    1      2.38      0.00
    0    4    0     -3.51      0.00
    0   -4    1      2.07      0.00
    0   -4    2     -0.38      0.00
    0   -4    3      0.22      0.00
    0   -4    4     -1.03      0.00
    0   -4    5      1.28      0.00
    0   -4    6     -0.66      0.00
    0   -4    7     -0.15      0.00
    0   -4    8      0.84      0.00
    0   -4    9     -1.11      0.00
    0   -4   10      0.53      0.00
    0   -4   11      0.56      0.00
    0   -4   12     -1.13      0.00
    0    3   10     -2.47      0.00
    0    3    9      2.28      0.00
    0    3    8     -1.23      0.00
    0    3    7      0.45      0.00
    0    3    6     -1.36      0.00
    0    3    5      3.03      0.00
    0    3    4     -2.25      0.00
    0    3    3     -2.41      0.00
    0    3    2      7.49      0.00
    0    3    1     -7.57      0.00
    0    3    0      1.36      0.00
    0   -3    1      6.43      0.00
    0   -3    2    -10.03      0.00
    0   -3    3      8.26      0.00
    0   -3    4     -4.23      0.00
    0   -3    5      1.16      0.00
    0   -3    6     -0.06      0.00
    0   -3    7      0.19      0.00
    0   -3    8     -0.31      0.00
    0   -3    9     -0.14      0.00
    0   -3   10      0.54      0.00
    0   -3   11     -0.39      0.00
    0   -3   12      0.10      0.00
    0    2   10     -0.59      0.00
    0    2    9      1.71      0.00
    0    2    8     -2.62      0.00
    0    2    7      1.47      0.00
    0    2    6      1.99      0.00
    0    2    5     -3.88      0.00
    0    2    4     -1.08      0.00
    0    2    3     12.44      0.00
    0    2    2    -21.74      0.00
    0    2    1     20.57      0.00
    0    2    0    -10.16      0.00
    0   -2    1     -0.22      0.00
    0   -2    2      3.62      0.00
    0   -2    3     -1.22      0.00
    0   -2    4     -1.91      0.00
    0   -2    5      2.81      0.00
    0   -2    6     -1.83      0.00
    0   -2    7      0.58      0.00
    0   -2    8     -0.17      0.00
    0   -2    9      0.54      0.00
    0   -2   10     -1.07      0.00
    0   -2   11      1.35      0.00
    0   -2   12     -1.17      0.00
    0   -2   13      0.56      0.00
    0    1    9     -2.09      0.00
    0    1    8      1.41      0.00
    0    1    7      0.56      0.00
    0    1    6     -2.02      0.00
    0    1    5      0.19      0.00
    0    1    4      7.00      0.00
    0    1    3    -18.58      0.00
    0    1    2     28.79      0.00
    0   -1    1    -15.31      0.00
    0   -1    2     11.17      0.00
    0   -1    3     -9.53      0.00
    0   -1    4      6.25      0.00
    0   -1    5     -1.16      0.00
    0   -1    6     -2.81      0.00
    0   -1    7      3.86      0.00
    0   -1    8     -2.60      0.00
    0   -1    9      0.83      0.00
    0   -1   10      0.13      0.00
    0   -1   11     -0.21      0.00
    0   -1   12     -0.06      0.00
    0   -1   13      0.37      0.00
    0   -1   14     -0.57      0.00
    0    0    9      0.80      0.00
    0    0    8     -0.90      0.00
    0    0    7      0.55      0.00
    0    0    6     -0.53      0.00
    0    0    5      1.33      0.00
    0    0    4      0.13      0.00
    0    0    3    -12.94      0.00
    0    0    2     43.74      0.00
    0    0   10     -0.19      0.00
    0    0   11     -0.45      0.00
    0    0   12      0.90      0.00
    0    0   13     -1.17      0.00
    0    0   14      1.08      0.00
    0    1    1    -30.62      0.00
    0    1   10      1.43      0.00
    0    1   11     -0.39      0.00
    0    1   12     -0.26      0.00
    0    1   13      0.19      0.00
    0    1   14      0.30      0.00
    0    1   15     -0.54      0.00
    0    2   11      0.27      0.00
    0    2   12     -0.54      0.00
    0    2   13      0.69      0.00
    0    2   14     -0.40      0.00
    0    2   15      0.07      0.00
    0    3   11      1.92      0.00
    0    3   12     -1.09      0.00
    0    3   13      0.25      0.00
    0    3   14      0.27      0.00
    0    3   15     -0.20      0.00
    0    3   16     -0.23      0.00
    0    4   12      0.00      0.00
    0    4   13      0.33      0.00
    0    4   14     -0.08      0.00
    0    4   15     -0.14      0.00
    0    4   16     -0.03      0.00
    0    5   13     -0.88      0.00
    0    5   14      0.39      0.00
    0    5   15     -0.20      0.00
    0    5   16      0.12      0.00
    0    6   13     -0.23      0.00
    0    6   14      0.46      0.00
    0    6   15     -0.48      0.00
    0    6   16      0.39      0.00
    0    7   13      0.23      0.00
    0    7   14     -0.48      0.00
    0    7   15      0.78      0.00
    0    7   16     -0.71      0.00
    0    8   13     -0.99      0.00
    0    8   14      0.65      0.00
    0    8   15      0.16      0.00
    0    8   16     -0.67      0.00
    0    9   12      0.55      0.00
    0    9   13     -0.54      0.00
    0    9   14      0.64      0.00
    0    9   15     -0.70      0.00
    0    9   16      0.46      0.00
    0   10   11      0.16      0.00
    0   10   12     -0.42      0.00
    0   10   13      0.54      0.00
    0   10   14     -0.48      0.00
    0   10   15      0.19      0.00
    0   10   16      0.19      0.00
    0   11    9      0.10      0.00
    0   11   10     -0.07      0.00
    0   11   11      0.41      0.00
    0   11   12     -0.77      0.00
    0   11   13      0.72      0.00
    0   11   14     -0.45      0.00
    0   11   15      0.37      0.00
    0   12   10     -0.31      0.00
    0   12   11      0.66      0.00
    0   12   12     -0.94      0.00
    0   12   13      0.69      0.00
    0   12   14     -0.05      0.00
    0   12   15     -0.29      0.00
    0   13   11      0.32      0.00
    0   13   12     -0.31      0.00
    0   13   13      0.36      0.00
    0   13   14     -0.37      0.00
    0   14   11      0.52      0.00
    0   14   12     -0.20      0.00
    0   14   13     -0.17      0.00
    0   15   10     -0.71      0.00
    0   15   11      0.46      0.00
    0   15   12     -0.14      0.00
    0   16    9      0.72      0.00
   -1   16    6      0.05      0.00
   -1   16    5     -0.06      0.00
   -1   15    5     -0.20      0.00
   -1   15    4      0.08      0.00
   -1   15    3     -0.13      0.00
   -1   15    2      0.26      0.00
   -1   14    4      0.19      0.00
   -1   14    3      0.08      0.00
   -1   14    2     -0.13      0.00
   -1   14    1     -0.20      0.00
    1  -14    1     -0.14      0.00
    1  -14    2     -0.42      0.00
    1  -14    3      0.59      0.00
   -1   13    4     -0.55      0.00
   -1   13    3      0.45      0.00
   -1   13    2     -0.36      0.00
   -1   13    1      0.17      0.00
   -1   13    0      0.11      0.00
    1  -13    1     -0.26      0.00
    1  -13    2      0.01      0.00
    1  -13    3      0.43      0.00
    1  -13    4     -0.59      0.00
   -1   12    3      0.07      0.00
   -1   12    2      0.18      0.00
   -1   12    1     -0.50      0.00
   -1   12    0      0.41      0.00
    1  -12    1     -0.01      0.00
    1  -12    2     -0.26      0.00
    1  -12    3      0.28      0.00
    1  -12    4     -0.22      0.00
    1  -12    5      0.09      0.00
   -1   11    2      0.84      0.00
   -1   11    1     -0.63      0.00
   -1   11    0      0.61      0.00
    1  -11    1     -0.53      0.00
    1  -11    2      0.43      0.00
    1  -11    3     -0.40      0.00
    1  -11    4      0.33      0.00
    1  -11    5     -0.22      0.00
    1  -11    6      0.23      0.00
   -1   10    2      0.47      0.00
   -1   10    1     -0.42      0.00
   -1   10    0      0.00      0.00
    1  -10    1      0.27      0.00
    1  -10    2     -0.15      0.00
    1  -10    3     -0.18      0.00
    1  -10    4      0.49      0.00
    1  -10    5     -0.57      0.00
    1  -10    6      0.36      0.00
    1  -10    7     -0.09      0.00
   -1    9    1      1.06      0.00
   -1    9    0     -0.27      0.00
    1   -9    1      0.23      0.00
    1   -9    2     -0.64      0.00
    1   -9    3      0.87      0.00
    1   -9    5      0.49      0.00
    1   -9    6     -0.41      0.00
    1   -9    7      0.53      0.00
    1   -9    8     -0.60      0.00
   -1    8    1     -0.34      0.00
   -1    8    0     -0.67      0.00
    1   -8    1      0.61      0.00
    1   -8    5      0.45      0.00
    1   -8    6     -0.44      0.00
    1   -8    7      0.24      0.00
    1   -8    8     -0.06      0.00
    1   -8    9     -0.02      0.00
   -1    7    0      1.98      0.00
    1   -7    6      0.73      0.00
    1   -7    7     -0.79      0.00
    1   -7    8      0.73      0.00
    1   -7    9     -0.38      0.00
    1   -7   10      0.11      0.00
   -1    6    0     -2.99      0.00
    1   -6    6      0.03      0.00
    1   -6    7     -0.69      0.00
    1   -6    8      0.67      0.00
    1   -6    9      0.10      0.00
    1   -6   10     -0.99      0.00
    1   -5    7      1.94      0.00
    1   -5    8     -1.41      0.00
    1   -5    9      0.62      0.00
    1   -5   10      0.08      0.00
    1   -5   11     -0.34      0.00
    1   -4    7      0.43      0.00
    1   -4    8     -0.81      0.00
    1   -4    9      1.15      0.00
    1   -4   10     -1.01      0.00
    1   -4   11      0.52      0.00
    1   -4   12     -0.19      0.00
    1   -3    8      1.18      0.00
    1   -3    9     -1.61      0.00
    1   -3   10      1.11      0.00
    1   -3   11     -0.23      0.00
    1   -3   12     -0.55      0.00
    1   -2    9      0.16      0.00
    1   -2   10      0.03      0.00
    1   -2   11     -0.45      0.00
    1   -2   12      0.83      0.00
    1   -2   13     -0.88      0.00
    1   -1   10     -0.86      0.00
    1   -1   11      1.30      0.00
    1   -1   12     -1.07      0.00
    1   -1   13      0.67      0.00
    1   -1   14     -0.36      0.00
    1    0    0     -8.36      0.00
    1    0   11     -0.48      0.00
    1    0   12      0.37      0.00
    1    0   13     -0.09      0.00
    1    0   14     -0.37      0.00
    1    1   10      0.23      0.00
    1    1   11     -0.48      0.00
    1    1   12      0.83      0.00
    1    1   13     -0.95      0.00
    1    1   14      0.65      0.00
    1    1   15     -0.19      0.00
    1    2   11     -0.58      0.00
    1    2   12     -0.21      0.00
    1    2   13      0.22      0.00
    1    2   14      0.10      0.00
    1    2   15     -0.22      0.00
    1    3   11      0.37      0.00
    1    3   12     -0.14      0.00
    1    3   13      0.20      0.00
    1    3   14     -0.20      0.00
    1    3   15      0.01      0.00
    1    3   16      0.10      0.00
    1    4   12     -1.14      0.00
    1    4   13      0.29      0.00
    1    4   14      0.15      0.00
    1    4   15     -0.12      0.00
    1    4   16     -0.01      0.00
    1    5   12     -0.16      0.00
    1    5   13      0.75      0.00
    1    5   14     -0.79      0.00
    1    5   15      0.47      0.00
    1    5   16     -0.20      0.00
    1    5   17      0.11      0.00
    1    6   13     -0.52      0.00
    1    6   14      0.19      0.00
    1    6   15     -0.07      0.00
    1    6   16      0.09      0.00
    1    7   13      0.68      0.00
    1    7   14     -0.09      0.00
    1    7   15     -0.45      0.00
    1    7   16      0.59      0.00
    1    8   13      0.87      0.00
    1    8   14     -0.82      0.00
    1    8   15      0.46      0.00
    1    8   16      0.12      0.00
    1    9   12      0.05      0.00
    1    9   13     -0.14      0.00
    1    9   14      0.15      0.00
    1    9   15     -0.03      0.00
    1    9   16     -0.04      0.00
    1   10   11     -0.17      0.00
    1   10   12      0.14      0.00
    1   10   13      0.03      0.00
    1   10   14      0.13      0.00
    1   10   15     -0.67      0.00
    1   10   16      0.91      0.00
    1   11   10      0.07      0.00
    1   11   11      0.04      0.00
    1   11   12     -0.21      0.00
    1   11   13      0.46      0.00
    1   11   14     -0.53      0.00
    1   11   15      0.16      0.00
    1   12   12     -0.01      0.00
    1   12   13     -0.13      0.00
    1   12   14      0.14      0.00
    1   12   15      0.08      0.00
    1   13   11      0.15      0.00
    1   13   12     -0.41      0.00
    1   13   13      0.18      0.00
    1   13   14      0.32      0.00
    1   14   10      0.18      0.00
    1   14   11      0.03      0.00
    1   14   12     -0.15      0.00
    1   14   13      0.12      0.00
    1   15    9      0.19      0.00
    1   15   10     -0.34      0.00
    1   15   11      0.22      0.00
   -2   16    7      0.09      0.00
   -2   15   10      0.23      0.00
   -2   15    6     -0.07      0.00
   -2   15    5     -0.06      0.00
   -2   15    4      0.31      0.00
   -2   15    3     -0.50      0.00
   -2   14    5     -0.07      0.00
   -2   14    4     -0.15      0.00
   -2   14    3     -0.13      0.00
   -2   14    2      0.50      0.00
   -2   14    1     -0.36      0.00
   -2   13    4     -0.11      0.00
   -2   13    3      0.30      0.00
   -2   13    2     -0.30      0.00
   -2   13    1      0.09      0.00
   -2   13    0      0.09      0.00
    2  -13    1      0.03      0.00
    2  -13    2     -0.28      0.00
    2  -13    3      0.32      0.00
    2  -13    4     -0.11      0.00
   -2   12    4     -0.79      0.00
   -2   12    3      0.48      0.00
   -2   12    2     -0.10      0.00
   -2   12    1      0.06      0.00
   -2   12    0     -0.23      0.00
    2  -12    1      0.26      0.00
    2  -12    2     -0.13      0.00
    2  -12    3     -0.02      0.00
    2  -12    4      0.15      0.00
    2  -12    5     -0.23      0.00
   -2   11    3      0.18      0.00
   -2   11    2      0.24      0.00
   -2   11    1     -0.67      0.00
   -2   11    0      0.51      0.00
    2  -11    1     -0.07      0.00
    2  -11    2      0.02      0.00
    2  -11    3     -0.34      0.00
    2  -11    4      0.50      0.00
    2  -11    5     -0.34      0.00
    2  -11    6      0.14      0.00
   -2   10    2      1.07      0.00
   -2   10    1     -0.51      0.00
   -2   10    0      0.24      0.00
    2  -10    1     -0.36      0.00
    2  -10    2      0.73      0.00
    2  -10    3     -1.10      0.00
    2  -10    4      1.06      0.00
    2  -10    5     -0.52      0.00
    2  -10    6     -0.02      0.00
    2  -10    7      0.11      0.00
   -2    9    2      0.52      0.00
   -2    9    1     -0.67      0.00
   -2    9    0      0.04      0.00
    2   -9    1      0.48      0.00
    2   -9    5     -0.61      0.00
    2   -9    6      0.10      0.00
    2   -9    7      0.18      0.00
    2   -9    8     -0.11      0.00
   -2    8    1      1.56      0.00
   -2    8    0     -0.61      0.00
    2   -8    6     -0.48      0.00
    2   -8    7      0.82      0.00
    2   -8    8     -0.84      0.00
    2   -8    9      0.58      0.00
   -2    7    1     -0.12      0.00
    2   -7    6     -0.39      0.00
    2   -7    7      0.39      0.00
    2   -7    8     -0.13      0.00
    2   -7    9     -0.27      0.00
    2   -7   10      0.43      0.00
    2   -6    7     -1.22      0.00
    2   -6    8      0.33      0.00
    2   -6    9      0.35      0.00
    2   -6   10     -0.62      0.00
    2   -5    6      0.78      0.00
    2   -5    7     -1.42      0.00
    2   -5    8      1.33      0.00
    2   -5    9     -0.60      0.00
    2   -5   10     -0.37      0.00
    2   -5   11      0.97      0.00
    2   -4    7      1.49      0.00
    2   -4    8     -1.43      0.00
    2   -4    9      0.51      0.00
    2   -4   10      0.42      0.00
    2   -4   11     -0.71      0.00
    2   -4   12      0.55      0.00
    2   -3    9      0.44      0.00
    2   -3   10     -0.78      0.00
    2   -3   11      0.87      0.00
    2   -3   12     -0.87      0.00
    2   -2   10      1.91      0.00
    2   -2   11     -0.99      0.00
    2   -2   12      0.10      0.00
    2   -2   13      0.39      0.00
    2   -1   11     -0.36      0.00
    2   -1   12      0.21      0.00
    2   -1   13     -0.02      0.00
    2   -1   14     -0.01      0.00
    2    0   12     -1.15      0.00
    2    0   13      1.04      0.00
    2    0   14     -0.80      0.00
    2    1   12      0.17      0.00
    2    1   13      0.10      0.00
    2    1   14     -0.18      0.00
    2    1   15      0.07      0.00
    2    2   13     -0.47      0.00
    2    2   14      0.47      0.00
    2    2   15     -0.33      0.00
    2    3   11     -0.54      0.00
    2    3   14      0.04      0.00
    2    3   15     -0.38      0.00
    2    3   16      0.27      0.00
    2    4   12      0.34      0.00
    2    4   13     -0.43      0.00
    2    4   14      0.25      0.00
    2    4   15     -0.19      0.00
    2    4   16      0.12      0.00
    2    5   12     -0.87      0.00
    2    5   13      0.29      0.00
    2    5   14      0.11      0.00
    2    5   15     -0.14      0.00
    2    5   16     -0.02      0.00
    2    5   17      0.05      0.00
    2    6   12      1.01      0.00
    2    6   13     -0.31      0.00
    2    6   14     -0.14      0.00
    2    6   15      0.32      0.00
    2    6   16     -0.32      0.00
    2    6   17      0.22      0.00
    2    7   13     -1.19      0.00
    2    7   14      0.91      0.00
    2    7   15     -0.34      0.00
    2    7   16     -0.17      0.00
    2    8   13      0.11      0.00
    2    8   14      0.47      0.00
    2    8   15     -0.67      0.00
    2    8   16      0.24      0.00
    2    9   13      0.04      0.00
    2    9   14      0.02      0.00
    2    9   15      0.11      0.00
    2    9   16     -0.18      0.00
    2   10   12      0.34      0.00
    2   10   13     -0.18      0.00
    2   10   14      0.14      0.00
    2   10   15      0.03      0.00
    2   11   12      0.33      0.00
    2   11   13      0.20      0.00
    2   11   14     -0.26      0.00
    2   11   15     -0.20      0.00
    2   12   11     -0.11      0.00
    2   12   12     -0.17      0.00
    2   12   13      0.77      0.00
    2   12   14     -1.00      0.00
    2   12   15      0.52      0.00
    2   13   10     -0.30      0.00
    2   13   11      0.12      0.00
    2   13   12     -0.19      0.00
    2   13   13      0.36      0.00
    2   13   14     -0.43      0.00
    2   14    6     -0.42      0.00
    2   14    9     -0.55      0.00
    2   14   10      0.25      0.00
    2   14   11      0.29      0.00
    2   14   12     -0.56      0.00
    2   14   13      0.38      0.00
    2   15    5      0.41      0.00
    2   15    6     -0.14      0.00
    2   15    7      0.11      0.00
    2   15    8     -0.15      0.00
    2   15    9     -0.04      0.00
    2   15   10      0.25      0.00
    2   15   11     -0.12      0.00
   -3   15   10     -0.69      0.00
   -3   15    9      0.72      0.00
   -3   15    8     -0.41      0.00
   -3   15    7     -0.11      0.00
   -3   15    6      0.65      0.00
   -3   15    5     -0.94      0.00
   -3   14    6     -0.01      0.00
   -3   14    5     -0.17      0.00
   -3   14    4      0.60      0.00
   -3   14    3     -0.78      0.00
   -3   14    2      0.44      0.00
   -3   14    1      0.07      0.00
   -3   13    5      0.02      0.00
   -3   13    4     -0.05      0.00
   -3   13    3     -0.07      0.00
   -3   13    2      0.23      0.00
   -3   13    1     -0.27      0.00
   -3   13    0      0.13      0.00
    3  -13    1      0.01      0.00
    3  -13    2     -0.01      0.00
    3  -13    3      0.04      0.00
    3  -13    4     -0.27      0.00
   -3   12    4     -0.26      0.00
   -3   12    3      0.02      0.00
   -3   12    2     -0.22      0.00
   -3   12    1      0.46      0.00
   -3   12    0     -0.31      0.00
    3  -12    1      0.09      0.00
    3  -12    2     -0.22      0.00
    3  -12    3      0.50      0.00
    3  -12    4     -0.51      0.00
    3  -12    5      0.30      0.00
    3  -12    6     -0.16      0.00
   -3   11    3      0.59      0.00
   -3   11    2     -0.09      0.00
   -3   11    1      0.15      0.00
   -3   11    0     -0.48      0.00
    3  -11    1      0.57      0.00
    3  -11    2     -0.49      0.00
    3  -11    3      0.47      0.00
    3  -11    4     -0.26      0.00
    3  -11    5     -0.25      0.00
    3  -11    6      0.67      0.00
   -3   10    2     -0.09      0.00
   -3   10    1     -0.12      0.00
   -3   10    0      0.10      0.00
    3  -10    1      0.13      0.00
    3  -10    2     -0.28      0.00
    3  -10    3      0.27      0.00
    3  -10    4     -0.23      0.00
    3  -10    5      0.14      0.00
    3  -10    6      0.10      0.00
    3  -10    7     -0.31      0.00
   -3    9    1      0.01      0.00
   -3    9    0     -0.17      0.00
    3   -9    5     -0.28      0.00
    3   -9    6      0.36      0.00
    3   -9    7     -0.54      0.00
    3   -9    8      0.50      0.00
    3   -8    6      0.31      0.00
    3   -8    7     -0.40      0.00
    3   -8    8      0.37      0.00
    3   -8    9     -0.01      0.00
    3   -7    6     -0.90      0.00
    3   -7    7      0.49      0.00
    3   -7    8     -0.02      0.00
    3   -7    9     -0.26      0.00
    3   -7   10      0.11      0.00
    3   -6    6     -1.31      0.00
    3   -6    7      1.27      0.00
    3   -6    8     -0.68      0.00
    3   -6    9      0.04      0.00
    3   -6   10      0.41      0.00
    3   -5    6      1.69      0.00
    3   -5    7     -0.87      0.00
    3   -5    8     -0.19      0.00
    3   -5    9      0.86      0.00
    3   -5   10     -0.93      0.00
    3   -5   11      0.47      0.00
    3   -4    7     -0.36      0.00
    3   -4    8      0.75      0.00
    3   -4    9     -0.77      0.00
    3   -4   10      0.59      0.00
    3   -4   11     -0.53      0.00
    3   -4   12      0.53      0.00
    3   -3    9      1.14      0.00
    3   -3   10     -0.06      0.00
    3   -3   11     -0.33      0.00
    3   -3   12      0.28      0.00
    3   -2   10     -0.80      0.00
    3   -2   11      0.73      0.00
    3   -2   12     -0.43      0.00
    3   -2   13      0.15      0.00
    3   -1   11     -0.67      0.00
    3   -1   12      0.15      0.00
    3   -1   13     -0.17      0.00
    3   -1   14      0.30      0.00
    3    0   12      0.00      0.00
    3    0   13      0.24      0.00
    3    0   14     -0.28      0.00
    3    1   13      0.37      0.00
    3    1   14      0.03      0.00
    3    1   15     -0.17      0.00
    3    2   14      0.38      0.00
    3    2   15     -0.42      0.00
    3    3   14      0.53      0.00
    3    3   15     -0.51      0.00
    3    3   16      0.35      0.00
    3    4   13      0.61      0.00
    3    4   14     -0.46      0.00
    3    4   15      0.08      0.00
    3    4   16      0.02      0.00
    3    5   13      0.23      0.00
    3    5   14     -0.18      0.00
    3    5   15      0.22      0.00
    3    5   16     -0.19      0.00
    3    5   17      0.10      0.00
    3    6   12     -1.41      0.00
    3    6   13      0.83      0.00
    3    6   14     -0.54      0.00
    3    6   15      0.54      0.00
    3    6   16     -0.51      0.00
    3    6   17      0.26      0.00
    3    7   12      0.88      0.00
    3    7   13     -0.55      0.00
    3    7   14     -0.13      0.00
    3    7   15      0.66      0.00
    3    7   16     -0.59      0.00
    3    7   17      0.21      0.00
    3    8   13     -0.88      0.00
    3    8   14      0.71      0.00
    3    8   15     -0.21      0.00
    3    8   16     -0.12      0.00
    3    9   13     -0.42      0.00
    3    9   14      0.87      0.00
    3    9   15     -0.94      0.00
    3   10   12     -0.45      0.00
    3   10   13     -0.37      0.00
    3   10   14      0.76      0.00
    3   10   15     -0.51      0.00
    3   11   11      0.11      0.00
    3   11   12     -0.16      0.00
    3   11   13     -0.21      0.00
    3   11   14      0.60      0.00
    3   11   15     -0.51      0.00
    3   12    6      0.43      0.00
    3   12   10      0.17      0.00
    3   12   11     -0.10      0.00
    3   12   12      0.16      0.00
    3   12   13     -0.36      0.00
    3   12   14      0.63      0.00
    3   13    7      0.23      0.00
    3   13    8     -0.40      0.00
    3   13    9      0.17      0.00
    3   13   10      0.10      0.00
    3   13   11     -0.07      0.00
    3   13   12     -0.15      0.00
    3   13   13      0.28      0.00
    3   14    4     -0.01      0.00
    3   14    5     -0.09      0.00
    3   14    6      0.21      0.00
    3   14    7     -0.32      0.00
    3   14    8      0.20      0.00
    3   14    9      0.16      0.00
    3   14   10     -0.38      0.00
    3   14   11      0.29      0.00
    3   14   12     -0.13      0.00
    3   15    5     -0.06      0.00
    3   15    6     -0.14      0.00
    3   15    7      0.06      0.00
    3   15    8      0.50      0.00
    3   15    9     -0.86      0.00
   -4   14    6      0.02      0.00
   -4   14    5     -0.49      0.00
   -4   14    4      0.41      0.00
   -4   14    3      0.14      0.00
   -4   13    5     -0.05      0.00
   -4   13    4      0.07      0.00
   -4   13    3      0.04      0.00
   -4   13    2     -0.03      0.00
   -4   13    1     -0.11      0.00
   -4   13    0      0.30      0.00
   -4   12    3      0.07      0.00
   -4   12    2     -0.58      0.00
   -4   12    1      0.21      0.00
   -4   12    0      0.38      0.00
    4  -12    1     -0.45      0.00
    4  -12    2      0.14      0.00
    4  -12    3      0.19      0.00
    4  -12    4     -0.59      0.00
    4  -12    5      1.03      0.00
    4  -12    6     -1.08      0.00
   -4   11    2     -0.25      0.00
   -4   11    1      0.37      0.00
   -4   11    0      0.03      0.00
    4  -11    1     -0.36      0.00
    4  -11    2      0.16      0.00
    4  -11    3      0.14      0.00
    4  -11    4     -0.11      0.00
    4  -11    5      0.02      0.00
    4  -11    6     -0.17      0.00
   -4   10    1     -0.01      0.00
   -4   10    0     -0.27      0.00
    4  -10    1      0.49      0.00
    4  -10    2     -0.50      0.00
    4  -10    3      0.37      0.00
    4  -10    4     -0.13      0.00
    4  -10    5     -0.13      0.00
    4  -10    6      0.20      0.00
    4  -10    7     -0.05      0.00
   -4    9    0      0.26      0.00
    4   -9    5      0.33      0.00
    4   -9    6     -0.39      0.00
    4   -9    7      0.54      0.00
    4   -9    8     -0.39      0.00
    4   -8    6      0.24      0.00
    4   -8    7      0.06      0.00
    4   -8    8     -0.61      0.00
    4   -8    9      0.74      0.00
    4   -7    5     -0.30      0.00
    4   -7    6      0.04      0.00
    4   -7    7      0.06      0.00
    4   -7    8     -0.11      0.00
    4   -7    9      0.42      0.00
    4   -7   10     -0.66      0.00
    4   -6    5      1.84      0.00
    4   -6    6     -1.52      0.00
    4   -6    7      0.82      0.00
    4   -6    8      0.03      0.00
    4   -6    9     -0.73      0.00
    4   -6   10      0.84      0.00
    4   -5    6     -1.07      0.00
    4   -5    7      1.02      0.00
    4   -5    8     -0.32      0.00
    4   -5    9     -0.18      0.00
    4   -5   10      0.20      0.00
    4   -5   11     -0.01      0.00
    4   -4    7     -1.57      0.00
    4   -4    8      1.06      0.00
    4   -4    9     -0.56      0.00
    4   -4   10      0.49      0.00
    4   -4   11     -0.56      0.00
    4   -4   12      0.46      0.00
    4   -3    7     -0.33      0.00
    4   -3    8      1.27      0.00
    4   -3    9     -1.56      0.00
    4   -3   10      1.12      0.00
    4   -3   11     -0.71      0.00
    4   -3   12      0.52      0.00
    4   -2    8     -0.88      0.00
    4   -2    9      0.28      0.00
    4   -2   10      0.29      0.00
    4   -2   11     -0.25      0.00
    4   -2   12     -0.22      0.00
    4   -2   13      0.45      0.00
    4   -1    8      0.75      0.00
    4   -1   11      0.28      0.00
    4   -1   12      0.39      0.00
    4   -1   13     -0.94      0.00
    4   -1   14      0.86      0.00
    4    0   12      0.27      0.00
    4    0   13     -0.18      0.00
    4    0   14      0.15      0.00
    4    1   13     -0.02      0.00
    4    1   14     -0.36      0.00
    4    1   15      0.53      0.00
    4    2   13      0.27      0.00
    4    2   14     -0.15      0.00
    4    2   15      0.07      0.00
    4    3   13     -1.07      0.00
    4    3   14      0.60      0.00
    4    3   15     -0.25      0.00
    4    4   13      0.00      0.00
    4    4   14      0.26      0.00
    4    4   15     -0.36      0.00
    4    4   16      0.26      0.00
    4    5   13      0.21      0.00
    4    5   14     -0.47      0.00
    4    5   15      0.19      0.00
    4    5   16      0.07      0.00
    4    6   11      1.04      0.00
    4    6   13      0.34      0.00
    4    6   14     -0.19      0.00
    4    6   15      0.05      0.00
    4    6   16      0.02      0.00
    4    6   17     -0.04      0.00
    4    7   11      0.66      0.00
    4    7   12     -0.55      0.00
    4    7   13      0.49      0.00
    4    7   14     -0.55      0.00
    4    7   15      0.62      0.00
    4    7   16     -0.52      0.00
    4    7   17      0.24      0.00
    4    8   12      0.46      0.00
    4    8   13     -0.08      0.00
    4    8   14     -0.57      0.00
    4    8   15      0.97      0.00
    4    8   16     -0.73      0.00
    4    8   17      0.14      0.00
    4    9    2      1.49      0.00
    4    9    3     -1.12      0.00
    4    9   12     -0.03      0.00
    4    9   13      0.16      0.00
    4    9   14     -0.32      0.00
    4    9   15      0.34      0.00
    4   10   12      0.09      0.00
    4   10   13     -0.05      0.00
    4   10   14     -0.19      0.00
    4   10   15      0.15      0.00
    4   11   11      0.49      0.00
    4   11   12     -0.17      0.00
    4   11   13      0.13      0.00
    4   11   14     -0.45      0.00
    4   12    5      0.10      0.00
    4   12    6     -0.30      0.00
    4   12    9      0.55      0.00
    4   12   10     -0.31      0.00
    4   12   11     -0.20      0.00
    4   12   12      0.42      0.00
    4   12   13     -0.15      0.00
    4   12   14     -0.23      0.00
    4   13    6     -0.55      0.00
    4   13    7      0.56      0.00
    4   13    8     -0.41      0.00
    4   13    9      0.29      0.00
    4   13   10     -0.12      0.00
    4   13   11     -0.27      0.00
    4   13   12      0.61      0.00
    4   13   13     -0.57      0.00
    4   14    4      0.63      0.00
    4   14    5     -0.50      0.00
    4   14    6      0.13      0.00
    4   14    7      0.64      0.00
    4   14    8     -1.38      0.00
    4   14    9      1.27      0.00
    4   14   10     -0.33      0.00
    4   14   11     -0.46      0.00
   -5   13    4      0.07      0.00
   -5   13    3     -0.79      0.00
   -5   13    2      1.22      0.00
   -5   13    1     -1.10      0.00
   -5   12    3     -0.04      0.00
   -5   12    2      1.04      0.00
   -5   12    1     -1.49      0.00
   -5   12    0      1.07      0.00
    5  -12    1     -0.60      0.00
    5  -12    2      0.53      0.00
    5  -12    4      0.02      0.00
    5  -12    5      0.16      0.00
   -5   11    2     -0.02      0.00
   -5   11    1     -0.51      0.00
   -5   11    0      0.76      0.00
    5  -11    1     -0.38      0.00
    5  -11    2     -0.06      0.00
    5  -11    3      0.14      0.00
    5  -11    4     -0.14      0.00
    5  -11    5      0.29      0.00
    5  -11    6     -0.33      0.00
   -5   10    1      0.30      0.00
   -5   10    0      0.24      0.00
    5  -10    1     -0.62      0.00
    5  -10    2      0.58      0.00
    5  -10    3     -0.39      0.00
    5  -10    4      0.38      0.00
    5  -10    5     -0.47      0.00
    5  -10    6      0.40      0.00
    5  -10    7     -0.21      0.00
    5   -9    3      0.03      0.00
    5   -9    4      0.12      0.00
    5   -9    5      0.10      0.00
    5   -9    6     -0.28      0.00
    5   -9    7      0.05      0.00
    5   -9    8      0.29      0.00
    5   -8    4     -0.05      0.00
    5   -8    5     -0.06      0.00
    5   -8    6     -0.17      0.00
    5   -8    7      0.32      0.00
    5   -8    8      0.14      0.00
    5   -8    9     -0.73      0.00
    5   -7    5     -0.99      0.00
    5   -7    6      0.93      0.00
    5   -7    7     -0.67      0.00
    5   -7    8     -0.03      0.00
    5   -7    9      0.61      0.00
    5   -7   10     -0.51      0.00
    5   -6    5     -0.50      0.00
    5   -6    6      0.50      0.00
    5   -6    7     -0.41      0.00
    5   -6    8      0.52      0.00
    5   -6    9     -0.39      0.00
    5   -6   10     -0.11      0.00
    5   -5    6     -1.26      0.00
    5   -5    7      0.75      0.00
    5   -5    8     -0.28      0.00
    5   -5    9      0.03      0.00
    5   -5   10      0.03      0.00
    5   -5   11      0.03      0.00
    5   -4    6     -0.27      0.00
    5   -4    7      0.80      0.00
    5   -4    8     -0.83      0.00
    5   -4    9      0.57      0.00
    5   -4   10     -0.56      0.00
    5   -4   11      0.65      0.00
    5   -4   12     -0.40      0.00
    5   -3    7     -1.15      0.00
    5   -3    8      0.17      0.00
    5   -3    9      0.63      0.00
    5   -3   10     -0.27      0.00
    5   -3   11     -0.60      0.00
    5   -3   12      0.93      0.00
    5   -2    8     -0.40      0.00
    5   -2    9      0.17      0.00
    5   -2   10     -0.20      0.00
    5   -2   11      0.52      0.00
    5   -2   12     -0.79      0.00
    5   -2   13      0.84      0.00
    5   -1    8     -0.99      0.00
    5   -1    9      1.12      0.00
    5   -1   10     -0.65      0.00
    5   -1   11      0.29      0.00
    5   -1   12     -0.56      0.00
    5   -1   13      0.99      0.00
    5    0    8      0.37      0.00
    5    0    9     -1.09      0.00
    5    0   10      0.57      0.00
    5    0   11      0.27      0.00
    5    0   12     -0.46      0.00
    5    0   13      0.01      0.00
    5    0   14      0.34      0.00
    5    1    9     -0.24      0.00
    5    1   10      0.76      0.00
    5    1   11     -0.79      0.00
    5    1   12      0.24      0.00
    5    1   13      0.35      0.00
    5    1   14     -0.45      0.00
    5    2    9     -0.47      0.00
    5    2   10     -0.32      0.00
    5    2   11      0.68      0.00
    5    2   12     -0.59      0.00
    5    2   13      0.27      0.00
    5    2   14     -0.12      0.00
    5    2   15      0.11      0.00
    5    3   10      0.63      0.00
    5    3   11     -0.66      0.00
    5    3   12      0.20      0.00
    5    3   13      0.24      0.00
    5    3   14     -0.23      0.00
    5    3   15      0.03      0.00
    5    4   10     -0.57      0.00
    5    4   11      0.03      0.00
    5    4   12      0.44      0.00
    5    4   13     -0.62      0.00
    5    4   14      0.42      0.00
    5    4   15     -0.04      0.00
    5    4   16     -0.20      0.00
    5    5   10      0.92      0.00
    5    5   11     -0.21      0.00
    5    5   12     -0.30      0.00
    5    5   13      0.49      0.00
    5    5   14     -0.34      0.00
    5    5   15      0.14      0.00
    5    5   16     -0.16      0.00
    5    6   10      0.65      0.00
    5    6   11     -0.50      0.00
    5    6   12      0.09      0.00
    5    6   13      0.21      0.00
    5    6   14     -0.15      0.00
    5    6   15     -0.06      0.00
    5    6   16      0.11      0.00
    5    7   10     -0.60      0.00
    5    7   11      0.52      0.00
    5    7   12     -0.26      0.00
    5    7   13     -0.18      0.00
    5    7   14      0.62      0.00
    5    7   15     -0.69      0.00
    5    7   16      0.34      0.00
    5    7   17      0.00      0.00
    5    8    1      1.29      0.00
    5    8    2     -0.54      0.00
    5    8    3     -0.37      0.00
    5    8    4      0.71      0.00
    5    8   10      0.01      0.00
    5    8   11     -0.31      0.00
    5    8   12      0.37      0.00
    5    8   13     -0.55      0.00
    5    8   14      0.58      0.00
    5    8   15     -0.22      0.00
    5    8   16     -0.20      0.00
    5    8   17      0.26      0.00
    5    9    2      0.55      0.00
    5    9    3     -0.04      0.00
    5    9    4     -0.18      0.00
    5    9   10      0.26      0.00
    5    9   11     -0.34      0.00
    5    9   12      0.37      0.00
    5    9   13     -0.58      0.00
    5    9   14      0.65      0.00
    5    9   15     -0.23      0.00
    5   10    3     -0.68      0.00
    5   10    6      0.19      0.00
    5   10    8      0.25      0.00
    5   10    9     -0.21      0.00
    5   10   10      0.00      0.00
    5   10   11      0.32      0.00
    5   10   12     -0.38      0.00
    5   10   13     -0.11      0.00
    5   10   14      0.74      0.00
    5   11    7     -0.42      0.00
    5   11    8      0.36      0.00
    5   11    9      0.08      0.00
    5   11   10     -0.69      0.00
    5   11   11      0.95      0.00
    5   11   12     -0.64      0.00
    5   11   13      0.04      0.00
    5   11   14      0.45      0.00
    5   12    5      0.61      0.00
    5   12    6     -0.73      0.00
    5   12    7      0.69      0.00
    5   12    8     -0.52      0.00
    5   12    9      0.44      0.00
    5   12   10     -0.61      0.00
    5   12   11      0.84      0.00
    5   12   12     -0.75      0.00
    5   12   13      0.34      0.00
    5   13    6     -0.53      0.00
    5   13    7      0.23      0.00
    5   13    8     -0.07      0.00
    5   13    9      0.21      0.00
    5   13   10     -0.32      0.00
    5   13   11      0.20      0.00
    5   13   12     -0.08      0.00
    5   14    7      1.64      0.00
    5   14    8     -0.96      0.00
    5   14    9     -0.05      0.00
    5   14   10      0.49      0.00
   -6   12    2      0.38      0.00
   -6   12    1      0.37      0.00
   -6   12    0     -0.53      0.00
    6  -12    1     -0.13      0.00
   -6   11    1     -0.13      0.00
   -6   11    0     -0.48      0.00
    6  -11    1      0.60      0.00
    6  -11    2     -0.01      0.00
    6  -11    3     -0.37      0.00
    6  -11    4      0.11      0.00
    6  -11    5      0.24      0.00
    6  -11    6     -0.23      0.00
   -6   10    0      0.68      0.00
    6  -10    1     -0.38      0.00
    6  -10    2      0.07      0.00
    6  -10    3     -0.01      0.00
    6  -10    4      0.15      0.00
    6  -10    5     -0.28      0.00
    6  -10    6      0.27      0.00
    6  -10    7     -0.12      0.00
    6   -9    3     -0.45      0.00
    6   -9    4      0.34      0.00
    6   -9    5     -0.49      0.00
    6   -9    6      0.68      0.00
    6   -9    7     -0.48      0.00
    6   -9    8      0.02      0.00
    6   -8    4     -0.47      0.00
    6   -8    5      0.45      0.00
    6   -8    6     -0.36      0.00
    6   -8    7     -0.13      0.00
    6   -8    8      0.63      0.00
    6   -8    9     -0.59      0.00
    6   -7    4     -0.41      0.00
    6   -7    5      0.37      0.00
    6   -7    6     -0.37      0.00
    6   -7    7      0.45      0.00
    6   -7    8     -0.13      0.00
    6   -7    9     -0.52      0.00
    6   -6    5     -0.82      0.00
    6   -6    6      0.37      0.00
    6   -6    7      0.02      0.00
    6   -6    8     -0.47      0.00
    6   -6    9      0.91      0.00
    6   -6   10     -0.93      0.00
    6   -5    5     -0.25      0.00
    6   -5    6      0.17      0.00
    6   -5    7      0.05      0.00
    6   -5    8      0.00      0.00
    6   -5    9     -0.25      0.00
    6   -5   10      0.22      0.00
    6   -5   11      0.17      0.00
    6   -4    6     -1.51      0.00
    6   -4    7      0.88      0.00
    6   -4    8      0.00      0.00
    6   -4    9     -0.24      0.00
    6   -4   10      0.01      0.00
    6   -4   11      0.12      0.00
    6   -3    6      0.08      0.00
    6   -3    7      0.12      0.00
    6   -3    8      0.07      0.00
    6   -3    9     -0.46      0.00
    6   -3   10      0.54      0.00
    6   -3   11     -0.30      0.00
    6   -3   12      0.16      0.00
    6   -2    7     -1.13      0.00
    6   -2    8      1.31      0.00
    6   -2    9     -0.81      0.00
    6   -2   10      0.41      0.00
    6   -2   11     -0.58      0.00
    6   -2   12      0.81      0.00
    6   -2   13     -0.65      0.00
    6   -1    7      0.16      0.00
    6   -1    8     -0.39      0.00
    6   -1    9      0.09      0.00
    6   -1   10      0.13      0.00
    6   -1   11      0.01      0.00
    6   -1   12     -0.39      0.00
    6   -1   13      0.59      0.00
    6    0    8      0.03      0.00
    6    0    9      0.81      0.00
    6    0   10     -1.17      0.00
    6    0   11      0.72      0.00
    6    0   12     -0.03      0.00
    6    0   13     -0.15      0.00
    6    0   14      0.01      0.00
    6    1    8      0.72      0.00
    6    1    9     -1.11      0.00
    6    1   10      0.56      0.00
    6    1   11      0.29      0.00
    6    1   12     -0.64      0.00
    6    1   13      0.31      0.00
    6    1   14      0.11      0.00
    6    2    8      0.42      0.00
    6    2    9     -0.27      0.00
    6    2   10      0.10      0.00
    6    2   11     -0.01      0.00
    6    2   12     -0.05      0.00
    6    2   13      0.30      0.00
    6    2   14     -0.55      0.00
    6    3    9     -0.31      0.00
    6    3   10     -0.16      0.00
    6    3   11      0.48      0.00
    6    3   12     -0.52      0.00
    6    3   13      0.27      0.00
    6    3   14     -0.05      0.00
    6    3   15      0.02      0.00
    6    4    9      0.75      0.00
    6    4   10      0.06      0.00
    6    4   11     -0.51      0.00
    6    4   12      0.60      0.00
    6    4   13     -0.37      0.00
    6    4   14      0.09      0.00
    6    4   15     -0.05      0.00
    6    5    9      0.68      0.00
    6    5   10     -0.34      0.00
    6    5   11     -0.14      0.00
    6    5   12      0.52      0.00
    6    5   13     -0.57      0.00
    6    5   14      0.28      0.00
    6    5   15      0.11      0.00
    6    5   16     -0.29      0.00
    6    6    9     -1.07      0.00
    6    6   10      0.71      0.00
    6    6   11     -0.30      0.00
    6    6   12      0.09      0.00
    6    6   13      0.10      0.00
    6    6   14     -0.32      0.00
    6    6   15      0.36      0.00
    6    6   16     -0.23      0.00
    6    7    8      1.25      0.00
    6    7    9     -0.82      0.00
    6    7   10      0.36      0.00
    6    7   11     -0.07      0.00
    6    7   12     -0.03      0.00
    6    7   13      0.03      0.00
    6    7   14     -0.04      0.00
    6    7   15      0.13      0.00
    6    7   16     -0.21      0.00
    6    8    1      0.01      0.00
    6    8    2      0.26      0.00
    6    8    3     -0.35      0.00
    6    8    4      0.07      0.00
    6    8    6     -0.72      0.00
    6    8    7      0.44      0.00
    6    8    8      0.12      0.00
    6    8    9     -0.33      0.00
    6    8   10      0.05      0.00
    6    8   11      0.17      0.00
    6    8   12     -0.05      0.00
    6    8   13     -0.15      0.00
    6    8   14      0.18      0.00
    6    8   15     -0.10      0.00
    6    9    2     -0.54      0.00
    6    9    3      0.30      0.00
    6    9    4     -0.07      0.00
    6    9    6     -0.39      0.00
    6    9    7      0.60      0.00
    6    9    8     -0.47      0.00
    6    9    9      0.05      0.00
    6    9   10      0.34      0.00
    6    9   11     -0.55      0.00
    6    9   12      0.61      0.00
    6    9   13     -0.45      0.00
    6    9   14      0.03      0.00
    6   10    3      0.02      0.00
    6   10    4     -0.55      0.00
    6   10    6     -0.51      0.00
    6   10    7      0.38      0.00
    6   10    8     -0.20      0.00
    6   10    9     -0.18      0.00
    6   10   10      0.52      0.00
    6   10   11     -0.63      0.00
    6   10   12      0.63      0.00
    6   10   13     -0.61      0.00
    6   10   14      0.37      0.00
    6   11    3     -0.26      0.00
    6   11    4      0.28      0.00
    6   11    5     -0.28      0.00
    6   11    6      0.34      0.00
    6   11    7     -0.33      0.00
    6   11    8      0.12      0.00
    6   11    9      0.13      0.00
    6   11   10     -0.20      0.00
    6   11   11      0.14      0.00
    6   11   12     -0.02      0.00
    6   11   13     -0.21      0.00
    6   12    4     -0.39      0.00
    6   12    5      0.41      0.00
    6   12    6     -0.17      0.00
    6   12    7     -0.27      0.00
    6   12    8      0.51      0.00
    6   12    9     -0.21      0.00
    6   12   10     -0.35      0.00
    6   12   11      0.50      0.00
    6   12   12     -0.09      0.00
    6   13    5     -0.08      0.00
    6   13    6      0.04      0.00
    6   13    7     -0.17      0.00
    6   13    8      0.18      0.00
    6   13    9      0.00      0.00
    6   13   10     -0.16      0.00
    6   13   11      0.16      0.00
    6   14    6     -0.32      0.00
    6   14    7     -0.48      0.00
    6   14    8      1.09      0.00
   -7   11    0     -0.24      0.00
    7  -11    1     -0.70      0.00
    7  -11    2      1.22      0.00
    7  -10    1      0.33      0.00
    7  -10    2     -0.08      0.00
    7  -10    3     -0.18      0.00
    7  -10    4      0.10      0.00
    7  -10    5      0.21      0.00
    7  -10    6     -0.37      0.00
    7  -10    7      0.33      0.00
    7   -9    2      0.32      0.00
    7   -9    3     -0.09      0.00
    7   -9    4     -0.04      0.00
    7   -9    5      0.09      0.00
    7   -9    6     -0.24      0.00
    7   -9    7      0.48      0.00
    7   -9    8     -0.55      0.00
    7   -8    3     -0.30      0.00
    7   -8    4      0.36      0.00
    7   -8    5     -0.17      0.00
    7   -8    6     -0.03      0.00
    7   -8    7      0.31      0.00
    7   -8    8     -0.65      0.00
    7   -7    4     -0.49      0.00
    7   -7    5      0.21      0.00
    7   -7    6      0.01      0.00
    7   -7    7     -0.45      0.00
    7   -7    8      0.98      0.00
    7   -7    9     -0.94      0.00
    7   -6    4     -0.32      0.00
    7   -6    5      0.31      0.00
    7   -6    6     -0.05      0.00
    7   -6    7     -0.29      0.00
    7   -6    8      0.64      0.00
    7   -6    9     -0.91      0.00
    7   -6   10      0.82      0.00
    7   -5    5     -1.07      0.00
    7   -5    6      0.70      0.00
    7   -5    7     -0.30      0.00
    7   -5    8      0.11      0.00
    7   -5    9      0.23      0.00
    7   -5   10     -0.76      0.00
    7   -4    5      0.16      0.00
    7   -4    6      0.24      0.00
    7   -4    7     -0.39      0.00
    7   -4    8      0.30      0.00
    7   -4    9     -0.26      0.00
    7   -4   10      0.15      0.00
    7   -4   11      0.20      0.00
    7   -3    6     -1.05      0.00
    7   -3    7      0.93      0.00
    7   -3    8     -0.48      0.00
    7   -3    9      0.19      0.00
    7   -3   10     -0.11      0.00
    7   -3   11     -0.04      0.00
    7   -3   12      0.30      0.00
    7   -2    6      0.31      0.00
    7   -2    7     -0.43      0.00
    7   -2    8      0.04      0.00
    7   -2    9      0.17      0.00
    7   -2   10      0.01      0.00
    7   -2   11     -0.25      0.00
    7   -2   12      0.33      0.00
    7   -1    7     -0.14      0.00
    7   -1    8      0.88      0.00
    7   -1    9     -0.98      0.00
    7   -1   10      0.68      0.00
    7   -1   11     -0.16      0.00
    7   -1   12     -0.25      0.00
    7   -1   13      0.35      0.00
    7    0    7      0.84      0.00
    7    0    8     -0.93      0.00
    7    0    9      0.50      0.00
    7    0   10      0.24      0.00
    7    0   11     -0.46      0.00
    7    0   12     -0.27      0.00
    7    0   13      1.02      0.00
    7    1    7     -0.03      0.00
    7    1    8     -0.23      0.00
    7    1    9      0.47      0.00
    7    1   10     -0.41      0.00
    7    1   11      0.11      0.00
    7    1   12      0.10      0.00
    7    1   13      0.01      0.00
    7    1   14     -0.23      0.00
    7    2    7      0.24      0.00
    7    2    8      0.42      0.00
    7    2    9     -0.62      0.00
    7    2   10      0.62      0.00
    7    2   11     -0.39      0.00
    7    2   12     -0.10      0.00
    7    2   13      0.41      0.00
    7    2   14     -0.27      0.00
    7    3    7     -1.42      0.00
    7    3    8      0.85      0.00
    7    3    9     -0.39      0.00
    7    3   10      0.25      0.00
    7    3   11     -0.24      0.00
    7    3   12      0.06      0.00
    7    3   13      0.27      0.00
    7    3   14     -0.52      0.00
    7    4    7     -1.04      0.00
    7    4    8      0.86      0.00
    7    4    9     -0.47      0.00
    7    4   10      0.22      0.00
    7    4   11     -0.16      0.00
    7    4   12     -0.06      0.00
    7    4   13      0.34      0.00
    7    4   14     -0.35      0.00
    7    4   15      0.21      0.00
    7    5    7      0.69      0.00
    7    5    8     -0.61      0.00
    7    5    9      0.24      0.00
    7    5   10      0.20      0.00
    7    5   11     -0.31      0.00
    7    5   12     -0.03      0.00
    7    5   13      0.54      0.00
    7    5   14     -0.85      0.00
    7    5   15      0.80      0.00
    7    6    7      0.31      0.00
    7    6    8     -0.03      0.00
    7    6    9      0.02      0.00
    7    6   10     -0.02      0.00
    7    6   11      0.00      0.00
    7    6   12     -0.25      0.00
    7    6   13      0.70      0.00
    7    6   14     -0.89      0.00
    7    6   15      0.76      0.00
    7    7    1     -0.33      0.00
    7    7    2      0.29      0.00
    7    7    3     -0.27      0.00
    7    7    7     -0.61      0.00
    7    7    8      0.71      0.00
    7    7    9     -0.66      0.00
    7    7   10      0.40      0.00
    7    7   11     -0.04      0.00
    7    7   12     -0.24      0.00
    7    7   13      0.39      0.00
    7    7   14     -0.46      0.00
    7    7   16     -0.18      0.00
    7    8    1     -0.14      0.00
    7    8    2     -0.05      0.00
    7    8    3      0.01      0.00
    7    8    7     -0.76      0.00
    7    8    8      0.89      0.00
    7    8    9     -0.50      0.00
    7    8   10     -0.11      0.00
    7    8   11      0.42      0.00
    7    8   12     -0.32      0.00
    7    8   13      0.01      0.00
    7    8   14      0.24      0.00
    7    9    2     -0.24      0.00
    7    9    3     -0.27      0.00
    7    9    4      0.40      0.00
    7    9    6     -0.06      0.00
    7    9    7     -0.02      0.00
    7    9    8      0.10      0.00
    7    9    9      0.13      0.00
    7    9   10     -0.49      0.00
    7    9   11      0.57      0.00
    7    9   12     -0.31      0.00
    7    9   13      0.02      0.00
    7    9   14      0.09      0.00
    7   10    3      0.34      0.00
    7   10    4     -0.11      0.00
    7   10    6      0.18      0.00
    7   10    7     -0.20      0.00
    7   10    8      0.18      0.00
    7   10    9     -0.10      0.00
    7   10   10      0.09      0.00
    7   10   11     -0.28      0.00
    7   10   12      0.44      0.00
    7   10   13     -0.29      0.00
    7   11    3     -0.32      0.00
    7   11    4      0.12      0.00
    7   11    5     -0.14      0.00
    7   11    6      0.16      0.00
    7   11    7      0.05      0.00
    7   11    8     -0.22      0.00
    7   11    9      0.02      0.00
    7   11   10      0.34      0.00
    7   11   11     -0.46      0.00
    7   11   12      0.36      0.00
    7   11   13     -0.23      0.00
    7   12    4     -0.17      0.00
    7   12    5     -0.06      0.00
    7   12    6      0.34      0.00
    7   12    7     -0.19      0.00
    7   12    8     -0.32      0.00
    7   12    9      0.70      0.00
    7   12   10     -0.65      0.00
    7   12   11      0.46      0.00
    7   13    5      0.49      0.00
    7   13    6     -0.28      0.00
    7   13    7      0.35      0.00
    7   13    8     -0.54      0.00
    7   13    9      0.65      0.00
    7   13   10     -0.74      0.00
    8  -10    1      0.06      0.00
    8  -10    2      0.55      0.00
    8  -10    3     -0.79      0.00
    8  -10    5     -0.59      0.00
    8  -10    6      0.40      0.00
    8   -9    2      0.20      0.00
    8   -9    3     -0.25      0.00
    8   -9    4      0.48      0.00
    8   -9    5     -0.62      0.00
    8   -9    6      0.46      0.00
    8   -9    7     -0.11      0.00
    8   -8    3     -0.74      0.00
    8   -8    4      0.48      0.00
    8   -8    5     -0.29      0.00
    8   -8    6      0.00      0.00
    8   -8    7      0.47      0.00
    8   -8    8     -0.68      0.00
    8   -7    4      0.54      0.00
    8   -7    5     -0.18      0.00
    8   -7    6     -0.47      0.00
    8   -7    7      1.13      0.00
    8   -7    8     -1.49      0.00
    8   -7    9      1.21      0.00
    8   -6    4     -0.68      0.00
    8   -6    5      0.56      0.00
    8   -6    6     -0.51      0.00
    8   -6    7      0.47      0.00
    8   -6    8     -0.17      0.00
    8   -6    9     -0.23      0.00
    8   -5    5      0.38      0.00
    8   -5    6     -0.76      0.00
    8   -5    7      0.73      0.00
    8   -5    8     -0.46      0.00
    8   -5    9      0.13      0.00
    8   -5   10      0.15      0.00
    8   -4    5     -0.90      0.00
    8   -4    6      0.48      0.00
    8   -4    7     -0.13      0.00
    8   -4    8      0.06      0.00
    8   -4    9      0.25      0.00
    8   -4   10     -0.96      0.00
    8   -4   11      1.37      0.00
    8   -3    6     -0.26      0.00
    8   -3    7     -0.31      0.00
    8   -3    8      0.75      0.00
    8   -3    9     -0.52      0.00
    8   -3   10     -0.18      0.00
    8   -3   11      0.66      0.00
    8   -2    6     -0.03      0.00
    8   -2    7      0.47      0.00
    8   -2    8     -0.39      0.00
    8   -2    9      0.40      0.00
    8   -2   10     -0.61      0.00
    8   -2   11      0.44      0.00
    8   -2   12      0.20      0.00
    8   -1    7     -1.05      0.00
    8   -1    8      0.55      0.00
    8   -1    9      0.10      0.00
    8   -1   10     -0.62      0.00
    8   -1   11      0.39      0.00
    8   -1   12      0.43      0.00
    8    0    7     -0.23      0.00
    8    0    8      0.50      0.00
    8    0    9     -0.57      0.00
    8    0   10      0.23      0.00
    8    0   11      0.26      0.00
    8    0   12     -0.25      0.00
    8    0   13     -0.26      0.00
    8    1    7      0.48      0.00
    8    1    8     -0.51      0.00
    8    1    9      0.18      0.00
    8    1   10      0.14      0.00
    8    1   11     -0.20      0.00
    8    1   12     -0.05      0.00
    8    1   13      0.35      0.00
    8    2    7      0.37      0.00
    8    2    8     -0.08      0.00
    8    2    9     -0.17      0.00
    8    2   10      0.23      0.00
    8    2   11     -0.07      0.00
    8    2   12     -0.03      0.00
    8    2   13      0.05      0.00
    8    2   14     -0.12      0.00
    8    3    8      0.22      0.00
    8    3    9     -0.52      0.00
    8    3   10      0.38      0.00
    8    3   11      0.05      0.00
    8    3   12     -0.38      0.00
    8    3   13      0.50      0.00
    8    3   14     -0.47      0.00
    8    4    8      0.61      0.00
    8    4    9     -0.24      0.00
    8    4   10      0.17      0.00
    8    4   11     -0.15      0.00
    8    4   12      0.07      0.00
    8    4   13     -0.03      0.00
    8    4   14     -0.03      0.00
    8    5    8      0.39      0.00
    8    5    9     -0.25      0.00
    8    5   10      0.21      0.00
    8    5   11     -0.40      0.00
    8    5   12      0.64      0.00
    8    5   13     -0.59      0.00
    8    5   14      0.35      0.00
    8    6    8     -0.40      0.00
    8    6    9      0.37      0.00
    8    6   10     -0.06      0.00
    8    6   11     -0.24      0.00
    8    6   12      0.35      0.00
    8    6   13     -0.29      0.00
    8    6   14      0.09      0.00
    8    6   15      0.12      0.00
    8    7    1     -0.48      0.00
    8    7    2      0.24      0.00
    8    7    8      0.10      0.00
    8    7    9     -0.17      0.00
    8    7   10      0.22      0.00
    8    7   11     -0.21      0.00
    8    7   12      0.07      0.00
    8    7   13      0.15      0.00
    8    7   14     -0.25      0.00
    8    8    1     -0.21      0.00
    8    8    2     -0.11      0.00
    8    8    3      0.25      0.00
    8    8    7     -0.37      0.00
    8    8    8      0.57      0.00
    8    8    9     -0.71      0.00
    8    8   10      0.73      0.00
    8    8   11     -0.53      0.00
    8    8   12      0.25      0.00
    8    8   13     -0.14      0.00
    8    8   14      0.14      0.00
    8    9    2     -0.17      0.00
    8    9    3      0.26      0.00
    8    9    7     -0.07      0.00
    8    9    8      0.26      0.00
    8    9    9     -0.26      0.00
    8    9   10      0.07      0.00
    8    9   11      0.11      0.00
    8    9   12     -0.06      0.00
    8    9   13     -0.16      0.00
    8   10    3      0.08      0.00
    8   10    4     -0.19      0.00
    8   10    6     -0.34      0.00
    8   10    7      0.09      0.00
    8   10    8     -0.10      0.00
    8   10    9      0.38      0.00
    8   10   10     -0.52      0.00
    8   10   11      0.33      0.00
    8   10   12      0.00      0.00
    8   10   13     -0.24      0.00
    8   11    3     -0.06      0.00
    8   11    4      0.02      0.00
    8   11    5      0.15      0.00
    8   11    6     -0.17      0.00
    8   11    7     -0.08      0.00
    8   11    8      0.23      0.00
    8   11    9     -0.06      0.00
    8   11   10     -0.06      0.00
    8   11   11     -0.28      0.00
    8   11   12      0.74      0.00
    8   12    4      0.02      0.00
    8   12    5      0.10      0.00
    8   12    6     -0.21      0.00
    8   12    7      0.21      0.00
    8   12    8     -0.10      0.00
    8   12    9     -0.09      0.00
    8   12   10      0.39      0.00
    8   13    5      0.40      0.00
    8   13    6     -0.49      0.00
    8   13    7      0.29      0.00
    9   -9    2     -0.38      0.00
    9   -9    3      0.14      0.00
    9   -9    4     -0.11      0.00
    9   -9    5      0.40      0.00
    9   -9    6     -0.55      0.00
    9   -9    7      0.31      0.00
    9   -8    3      0.47      0.00
    9   -8    4     -0.30      0.00
    9   -8    5      0.10      0.00
    9   -8    6     -0.02      0.00
    9   -8    7     -0.10      0.00
    9   -8    8      0.25      0.00
    9   -7    4      0.30      0.00
    9   -7    5     -0.05      0.00
    9   -7    6     -0.12      0.00
    9   -7    7      0.13      0.00
    9   -7    8      0.00      0.00
    9   -6    5     -0.25      0.00
    9   -6    6     -0.04      0.00
    9   -6    7      0.30      0.00
    9   -6    8     -0.33      0.00
    9   -6    9      0.26      0.00
    9   -5    5      0.23      0.00
    9   -5    6      0.07      0.00
    9   -5    7     -0.04      0.00
    9   -5    8      0.08      0.00
    9   -5    9     -0.44      0.00
    9   -4    6     -0.13      0.00
    9   -4    7      0.39      0.00
    9   -4    8     -0.55      0.00
    9   -4    9      0.36      0.00
    9   -4   10      0.06      0.00
    9   -3    6      0.34      0.00
    9   -3    7     -0.32      0.00
    9   -3    8      0.03      0.00
    9   -3    9      0.21      0.00
    9   -3   10     -0.36      0.00
    9   -3   11      0.56      0.00
    9   -2    7      0.15      0.00
    9   -2    8      0.23      0.00
    9   -2    9     -0.05      0.00
    9   -2   10     -0.23      0.00
    9   -2   11      0.43      0.00
    9   -1    7      0.28      0.00
    9   -1    8     -0.19      0.00
    9   -1    9      0.37      0.00
    9   -1   10     -0.41      0.00
    9   -1   11      0.19      0.00
    9   -1   12     -0.12      0.00
    9    0    7     -0.63      0.00
    9    0    8      0.57      0.00
    9    0    9     -0.12      0.00
    9    0   10     -0.30      0.00
    9    0   11      0.16      0.00
    9    0   12      0.30      0.00
    9    1    8      0.09      0.00
    9    1    9      0.01      0.00
    9    1   10     -0.02      0.00
    9    1   11     -0.02      0.00
    9    1   12      0.01      0.00
    9    2    8     -0.19      0.00
    9    2    9      0.17      0.00
    9    2   10      0.15      0.00
    9    2   11     -0.49      0.00
    9    2   12      0.39      0.00
    9    2   13      0.03      0.00
    9    3    8      0.04      0.00
    9    3    9     -0.03      0.00
    9    3   10      0.12      0.00
    9    3   11     -0.35      0.00
    9    3   12      0.30      0.00
    9    3   13      0.07      0.00
    9    4    8      0.14      0.00
    9    4    9     -0.04      0.00
    9    4   10     -0.11      0.00
    9    4   11      0.27      0.00
    9    4   12     -0.38      0.00
    9    4   13      0.47      0.00
    9    5    8      0.63      0.00
    9    5    9     -0.21      0.00
    9    5   10     -0.02      0.00
    9    5   11      0.13      0.00
    9    5   12     -0.45      0.00
    9    5   13      0.79      0.00
    9    5   14     -0.70      0.00
    9    6    0     -0.32      0.00
    9    6    8      0.13      0.00
    9    6    9     -0.14      0.00
    9    6   10      0.13      0.00
    9    6   11     -0.16      0.00
    9    6   12      0.10      0.00
    9    6   13      0.23      0.00
    9    7    1      0.25      0.00
    9    7    8     -0.14      0.00
    9    7    9      0.17      0.00
    9    7   10     -0.23      0.00
    9    7   11      0.22      0.00
    9    7   12     -0.20      0.00
    9    7   13      0.28      0.00
    9    8    1     -0.27      0.00
    9    8    2      0.13      0.00
    9    8    8      0.47      0.00
    9    8    9     -0.59      0.00
    9    8   10      0.42      0.00
    9    8   11     -0.02      0.00
    9    8   12     -0.25      0.00
    9    8   13      0.28      0.00
    9    9    2     -0.04      0.00
    9    9    6     -0.07      0.00
    9    9    7      0.13      0.00
    9    9    8      0.14      0.00
    9    9    9     -0.48      0.00
    9    9   10      0.50      0.00
    9    9   11     -0.12      0.00
    9    9   12     -0.29      0.00
    9   10    3      0.39      0.00
    9   10    4     -0.30      0.00
    9   10    5      0.18      0.00
    9   10    6     -0.28      0.00
    9   10    7      0.48      0.00
    9   10    8     -0.39      0.00
    9   10    9      0.05      0.00
    9   10   10      0.03      0.00
    9   10   11      0.32      0.00
    9   10   12     -0.62      0.00
    9   11    3     -0.52      0.00
    9   11    4      0.15      0.00
    9   11    5      0.12      0.00
    9   11    6     -0.17      0.00
    9   11    7      0.26      0.00
    9   11    8     -0.50      0.00
    9   11    9      0.62      0.00
    9   11   10     -0.50      0.00
    9   11   11      0.36      0.00
    9   12    4      0.58      0.00
    9   12    5     -0.63      0.00
    9   12    6      0.58      0.00
    9   12    7     -0.49      0.00
    9   12    8      0.33      0.00
    9   12    9     -0.16      0.00
   10   -8    3      0.24      0.00
   10   -8    4     -0.27      0.00
   10   -8    5      0.35      0.00
   10   -8    6     -0.26      0.00
   10   -8    7      0.00      0.00
   10   -7    4     -0.23      0.00
   10   -7    5      0.09      0.00
   10   -7    6      0.11      0.00
   10   -7    7     -0.27      0.00
   10   -7    8      0.35      0.00
   10   -6    5      0.27      0.00
   10   -6    6     -0.29      0.00
   10   -6    7     -0.01      0.00
   10   -6    8      0.21      0.00
   10   -6    9     -0.15      0.00
   10   -5    6     -0.37      0.00
   10   -5    7      0.30      0.00
   10   -5    8      0.03      0.00
   10   -5    9     -0.06      0.00
   10   -5   10     -0.26      0.00
   10   -4    6     -0.06      0.00
   10   -4    7      0.11      0.00
   10   -4    8      0.04      0.00
   10   -4    9     -0.14      0.00
   10   -4   10      0.00      0.00
   10   -3    7      0.17      0.00
   10   -3    8     -0.01      0.00
   10   -3    9     -0.25      0.00
   10   -3   10      0.17      0.00
   10   -2    7     -0.35      0.00
   10   -2    8      0.16      0.00
   10   -2    9     -0.17      0.00
   10   -2   10      0.07      0.00
   10   -1    7      0.33      0.00
   10   -1    8     -0.15      0.00
   10   -1    9     -0.07      0.00
   10   -1   10      0.04      0.00
   10   -1   11      0.38      0.00
   10    0    8     -0.12      0.00
   10    0    9      0.10      0.00
   10    0   10     -0.17      0.00
   10    0   11      0.40      0.00
   10    1    8      0.30      0.00
   10    1    9     -0.20      0.00
   10    1   10     -0.26      0.00
   10    1   11      0.78      0.00
   10    1   12     -0.79      0.00
   10    2    8     -0.13      0.00
   10    2    9      0.00      0.00
   10    2   10     -0.08      0.00
   10    2   11      0.39      0.00
   10    2   12     -0.46      0.00
   10    2   13      0.16      0.00
   10    3    8     -0.26      0.00
   10    3    9      0.08      0.00
   10    3   10      0.20      0.00
   10    3   11     -0.23      0.00
   10    3   12      0.12      0.00
   10    3   13     -0.14      0.00
   10    4    8     -0.27      0.00
   10    4    9      0.16      0.00
   10    4   10      0.08      0.00
   10    4   11     -0.56      0.00
   10    4   12      0.96      0.00
   10    4   13     -0.88      0.00
   10    5    9      0.06      0.00
   10    5   10     -0.09      0.00
   10    5   11     -0.22      0.00
   10    5   12      0.67      0.00
   10    5   13     -0.95      0.00
   10    6    8      0.74      0.00
   10    6    9     -0.32      0.00
   10    6   10      0.17      0.00
   10    6   11     -0.37      0.00
   10    6   12      0.47      0.00
   10    6   13     -0.26      0.00
   10    7    8     -0.16      0.00
   10    7    9      0.22      0.00
   10    7   10     -0.11      0.00
   10    7   11     -0.25      0.00
   10    7   12      0.45      0.00
   10    7   13     -0.28      0.00
   10    8    6     -0.26      0.00
   10    8    7      0.17      0.00
   10    8    8     -0.11      0.00
   10    8    9      0.32      0.00
   10    8   10     -0.53      0.00
   10    8   11      0.38      0.00
   10    8   12     -0.09      0.00
   10    9    4     -0.41      0.00
   10    9    5      0.48      0.00
   10    9    6     -0.12      0.00
   10    9    7     -0.29      0.00
   10    9    8      0.39      0.00
   10    9    9     -0.16      0.00
   10    9   10     -0.24      0.00
   10    9   11      0.48      0.00
   10    9   12     -0.39      0.00
   10   10    3      0.23      0.00
   10   10    4     -0.16      0.00
   10   10    5      0.19      0.00
   10   10    6     -0.14      0.00
   10   10    7     -0.17      0.00
   10   10    8      0.44      0.00
   10   10    9     -0.27      0.00
   10   10   10     -0.22      0.00
   10   10   11      0.56      0.00
   10   11    2     -0.25      0.00
   10   11    3      0.84      0.00
   10   11    4     -1.18      0.00
   10   11    5      1.15      0.00
   10   11    6     -0.98      0.00
   10   11    7      0.68      0.00
   10   11    8     -0.25      0.00
   10   11    9     -0.02      0.00
   11   -7    4     -0.04      0.00
   11   -7    5     -0.06      0.00
   11   -7    7      0.07      0.00
   11   -6    5     -0.08      0.00
   11   -6    6      0.37      0.00
   11   -6    7     -0.15      0.00
   11   -6    8     -0.21      0.00
   11   -5    6     -0.13      0.00
   11   -5    7     -0.25      0.00
   11   -5    8      0.13      0.00
   11   -5    9      0.10      0.00
   11   -4    6     -0.22      0.00
   11   -4    7      0.04      0.00
   11   -4    8     -0.15      0.00
   11   -4    9      0.34      0.00
   11   -3    7     -0.06      0.00
   11   -3    8      0.21      0.00
   11   -3    9      0.20      0.00
   11   -2    7      0.00      0.00
   11   -2    8      0.18      0.00
   11   -2    9      0.00      0.00
   11   -2   10     -0.38      0.00
   11   -1    8      0.53      0.00
   11   -1    9     -0.10      0.00
   11   -1   10     -0.42      0.00
   11    0    8      0.11      0.00
   11    0    9     -0.38      0.00
   11    0   10      0.34      0.00
   11    0   11     -0.12      0.00
   11    1    8      0.04      0.00
   11    1    9     -0.11      0.00
   11    1   10      0.00      0.00
   11    1   11      0.19      0.00
   11    1   12     -0.37      0.00
   11    2    9     -0.30      0.00
   11    2   10     -0.14      0.00
   11    2   11      0.60      0.00
   11    2   12     -0.83      0.00
   11    3    9     -0.39      0.00
   11    3   10      0.10      0.00
   11    3   11      0.47      0.00
   11    3   12     -0.77      0.00
   11    4    9     -0.08      0.00
   11    4   10      0.08      0.00
   11    4   11      0.17      0.00
   11    4   12     -0.51      0.00
   11    5    9      0.24      0.00
   11    5   10     -0.23      0.00
   11    5   11      0.08      0.00
   11    5   12      0.24      0.00
   11    6    8      0.09      0.00
   11    6    9      0.21      0.00
   11    6   10     -0.35      0.00
   11    6   11      0.18      0.00
   11    6   12      0.16      0.00
   11    7    7     -0.59      0.00
   11    7    8      0.47      0.00
   11    7    9     -0.22      0.00
   11    7   10      0.08      0.00
   11    7   11     -0.14      0.00
   11    7   12      0.27      0.00
   11    8    5      0.00      0.00
   11    8    6     -0.29      0.00
   11    8    7      0.21      0.00
   11    8    8     -0.05      0.00
   11    8    9     -0.07      0.00
   11    8   10      0.32      0.00
   11    8   11     -0.56      0.00
   11    9    2     -0.36      0.00
   11    9    3      0.38      0.00
   11    9    4     -0.27      0.00
   11    9    5      0.34      0.00
   11    9    6     -0.57      0.00
   11    9    7      0.61      0.00
   11    9    8     -0.37      0.00
   11    9    9      0.05      0.00
   11    9   10      0.20      0.00
   11    9   11     -0.39      0.00
   11   10    2      0.27      0.00
   11   10    3     -0.13      0.00
   11   10    4     -0.20      0.00
   11   10    5      0.39      0.00
   11   10    6     -0.32      0.00
   11   10    7      0.27      0.00
   11   10    8     -0.40      0.00
   11   10    9      0.47      0.00
   11   11    3      0.17      0.00
   11   11    4     -0.11      0.00
   11   11    5      0.15      0.00
   11   11    6     -0.06      0.00
   11   11    7     -0.17      0.00
   12   -6    5     -0.62      0.00
   12   -5    6      0.52      0.00
   12   -5    7      0.13      0.00
   12   -5    8     -0.53      0.00
   12   -4    6      0.34      0.00
   12   -4    7      0.13      0.00
   12   -4    8     -0.50      0.00
   12   -3    7     -0.18      0.00
   12   -3    8     -0.50      0.00
   12   -2    7      0.24      0.00
   12   -2    8     -0.05      0.00
   12   -2    9      0.10      0.00
   12   -1    8     -0.42      0.00
   12   -1    9      0.56      0.00
   12   -1   10     -0.51      0.00
   12   -1   11      0.24      0.00
   12    0    8      0.42      0.00
   12    0    9      0.19      0.00
   12    0   10     -0.56      0.00
   12    0   11      0.45      0.00
   12    1    8      0.11      0.00
   12    1    9     -0.08      0.00
   12    1   10      0.02      0.00
   12    1   11     -0.01      0.00
   12    1   12      0.07      0.00
   12    2    9      0.55      0.00
   12    2   10     -0.48      0.00
   12    2   11      0.21      0.00
   12    2   12     -0.08      0.00
   12    3    9      0.47      0.00
   12    3   10     -0.56      0.00
   12    3   11      0.29      0.00
   12    3   12     -0.05      0.00
   12    4    9      0.46      0.00
   12    4   10     -0.08      0.00
   12    4   11     -0.22      0.00
   12    4   12      0.15      0.00
   12    5    8     -0.27      0.00
   12    5    9      0.40      0.00
   12    5   10     -0.10      0.00
   12    5   11     -0.33      0.00
   12    5   12      0.38      0.00
   12    6    6     -0.02      0.00
   12    6    7     -0.03      0.00
   12    6    8     -0.07      0.00
   12    6    9      0.09      0.00
   12    6   10      0.09      0.00
   12    6   11     -0.35      0.00
   12    7    5      0.25      0.00
   12    7    6      0.05      0.00
   12    7    7     -0.14      0.00
   12    7    8     -0.01      0.00
   12    7    9      0.26      0.00
   12    7   10     -0.35      0.00
   12    7   11      0.11      0.00
   12    8    2      0.41      0.00
   12    8    3     -0.01      0.00
   12    8    4     -0.22      0.00
   12    8    5     -0.12      0.00
   12    8    6      0.57      0.00
   12    8    7     -0.53      0.00
   12    8    8      0.12      0.00
   12    8    9      0.23      0.00
   12    8   10     -0.41      0.00
   12    9    2      0.27      0.00
   12    9    3     -0.30      0.00
   12    9    4      0.15      0.00
   12    9    5     -0.03      0.00
   12    9    6      0.07      0.00
   12    9    7     -0.10      0.00
   12    9    8     -0.01      0.00
   12    9    9      0.16      0.00
   12   10    3      0.25      0.00
   12   10    4     -0.31      0.00
   12   10    5      0.23      0.00
   12   10    6     -0.30      0.00
   12   10    7      0.44      0.00
   12   10    8     -0.35      0.00
   13   -4    6     -0.35      0.00
   13   -4    7      0.43      0.00
   13   -3    7      0.85      0.00
   13    0   10      0.29      0.00
   13    1    9     -0.46      0.00
   13    1   10      0.34      0.00
   13    1   11     -0.05      0.00
   13    2    9     -0.77      0.00
   13    2   10      0.75      0.00
   13    2   11     -0.10      0.00
   13    3    9     -0.42      0.00
   13    3   10      0.22      0.00
   13    3   11      0.15      0.00
   13    4    8      0.34      0.00
   13    4    9     -0.63      0.00
   13    4   10      0.36      0.00
   13    4   11      0.17      0.00
   13    5    6     -0.60      0.00
   13    5    7      0.57      0.00
   13    5    8     -0.38      0.00
   13    5    9      0.11      0.00
   13    5   10      0.18      0.00
   13    5   11     -0.29      0.00
   13    6    5      0.10      0.00
   13    6    6     -0.33      0.00
   13    6    7      0.27      0.00
   13    6    8     -0.11      0.00
   13    6    9      0.10      0.00
   13    6   10     -0.13      0.00
   13    6   11      0.04      0.00
   13    7    5      0.59      0.00
   13    7    6     -0.68      0.00
   13    7    7      0.37      0.00
   13    7    8     -0.04      0.00
   13    7    9     -0.05      0.00
   13    7   10      0.09      0.00
   13    8    5      0.10      0.00
   13    8    6     -0.28      0.00
   13    8    7      0.19      0.00
   13    8    8      0.04      0.00
   13    8    9     -0.03      0.00
   13    9    5     -0.24      0.00
   13    9    6      0.35      0.00
   13    9    7     -0.16      0.00
   13    9    8     -0.10      0.00
   14    6    9      0.69      0.00
    0    1    0     23.71      0.00
  -13    4    0     -0.01      0.00
  -13    5    0     -0.04      0.00
  -12    6    0      0.22      0.00
  -12    7    0     -0.12      0.00
  -11    8    0     -0.69      0.00
  -11    9    0     -0.94      0.00
  -10   10    0     -0.18      0.00
   10   10    0     -0.39      0.00
   -9   11    0      0.28      0.00
   -8   11    0      0.14      0.00
    9   11    0      0.28      0.00
   -8   12    0      0.04      0.00
   -7   12    0      0.63      0.00
   -6   13    0     -0.65      0.00
   -5   13    0      0.82      0.00
   -4   14    0      0.09      0.00
   -3   14    0     -0.20      0.00
   -2   14    0     -0.22      0.00
   -1   14    0      0.44      0.00
    2  -14    1      0.50      0.00
    3  -14    1     -0.05      0.00
    4  -13    1     -0.44      0.00
    5  -13    1     -0.65      0.00
    6  -13    1      0.38      0.00
    7  -12    1     -0.85      0.00
    8  -11    1     -0.33      0.00
    9  -11    1      0.10      0.00
    9  -10    1      0.08      0.00
   10  -10    1      0.20      0.00
  -10   -9    1      0.07      0.00
   10   -9    1      0.11      0.00
   11   -9    1      0.39      0.00
  -11   -8    1      0.10      0.00
   11   -8    1      0.21      0.00
   12   -7    1      0.23      0.00
   12   -6    1      0.14      0.00
   13   -5    1     -0.29      0.00
   13   -4    1     -0.30      0.00
   14   -1    1      0.52      0.00
    0    0    1    -81.26      0.00
   14    0    1      0.05      0.00
  -13    3    1     -1.05      0.00
  -13    4    1      0.22      0.00
  -13    5    1      0.40      0.00
  -12    6    1     -0.22      0.00
  -12    7    1      0.08      0.00
  -11    8    1      0.80      0.00
  -11    9    1      1.03      0.00
  -10   10    1     -0.04      0.00
   -9   11    1     -0.51      0.00
   -8   12    1     -0.14      0.00
   -7   12    1      0.16      0.00
   -7   13    1      0.01      0.00
   -6   13    1      0.91      0.00
   -5   14    1     -0.41      0.00
   -4   14    1      0.30      0.00
   -2   15    1     -0.03      0.00
   -1   15    1     -0.29      0.00
    0   15    1      0.25      0.00
    1   15    1     -0.44      0.00
    4  -13    2      0.41      0.00
    5  -13    2      0.51      0.00
   -6  -12    2      0.42      0.00
    6  -12    2      0.63      0.00
    7  -12    2      0.42      0.00
   -8  -11    2     -0.34      0.00
    8  -11    2      0.06      0.00
   -9  -10    2      0.41      0.00
    9  -10    2     -0.04      0.00
  -10   -9    2     -0.08      0.00
   10   -9    2      0.10      0.00
  -10   -8    2      0.23      0.00
   11   -8    2      0.19      0.00
  -11   -7    2      0.03      0.00
   12   -7    2     -0.13      0.00
   12   -6    2     -0.33      0.00
   13   -5    2      0.36      0.00
   13   -4    2      0.47      0.00
  -13   -3    2      0.02      0.00
  -13   -2    2      0.07      0.00
   14   -2    2     -0.16      0.00
   14   -1    2     -0.59      0.00
  -13    4    2     -0.27      0.00
  -12    5    2      0.25      0.00
  -12    6    2     -0.06      0.00
  -12    7    2     -0.19      0.00
  -11    8    2     -0.43      0.00
  -11    9    2     -0.62      0.00
  -10   10    2      0.25      0.00
   -9   11    2      0.21      0.00
   -8   12    2     -0.53      0.00
   -7   13    2     -0.36      0.00
   -6   13    2     -0.75      0.00
   -5   14    2      0.37      0.00
   -4   14    2     -0.50      0.00
   -3   15    2     -0.20      0.00
   -2   15    2      0.39      0.00
    0   15    2     -0.03      0.00
    1   15    2      0.49      0.00
    2   15    2     -0.05      0.00
   -3  -13    3      0.18      0.00
    4  -13    3     -0.14      0.00
   -5  -12    3     -0.03      0.00
    5  -12    3     -0.39      0.00
    6  -12    3     -0.52      0.00
   -7  -11    3      0.36      0.00
   -6  -11    3      0.34      0.00
    7  -11    3     -0.94      0.00
    8  -11    3      0.06      0.00
   -8  -10    3     -0.04      0.00
    9  -10    3      0.04      0.00
   -9   -9    3      0.25      0.00
   10   -9    3     -0.14      0.00
  -10   -8    3     -0.41      0.00
   11   -8    3     -0.23      0.00
  -10   -7    3     -0.13      0.00
   11   -7    3      0.04      0.00
   12   -7    3     -0.10      0.00
  -11   -6    3     -0.13      0.00
   12   -6    3     -0.04      0.00
   13   -5    3     -0.38      0.00
  -12   -4    3     -0.27      0.00
   13   -4    3     -0.47      0.00
   14   -2    3     -0.02      0.00
  -12    5    3      0.18      0.00
  -12    6    3      0.19      0.00
  -11    7    3     -0.25      0.00
   13    7    3     -0.04      0.00
  -11    8    3     -0.03      0.00
  -10   10    3     -0.38      0.00
   -9   11    3      0.22      0.00
   -8   12    3      1.20      0.00
   -7   13    3      0.37      0.00
   -6   13    3      0.20      0.00
   -5   14    3     -0.05      0.00
    4   14    3     -0.61      0.00
   -3   15    3     -0.19      0.00
    1   15    3     -0.25      0.00
    2   15    3      0.45      0.00
   -4  -12    4      0.47      0.00
   -5  -11    4     -0.04      0.00
    7  -11    4      0.44      0.00
   -7  -10    4     -0.07      0.00
   -6  -10    4     -0.49      0.00
    8  -10    4      0.73      0.00
    9  -10    4     -0.09      0.00
   -8   -9    4      0.70      0.00
   10   -9    4     -0.04      0.00
   -9   -8    4     -0.84      0.00
   11   -8    4      0.07      0.00
  -10   -7    4      0.23      0.00
  -10   -6    4      0.00      0.00
   12   -6    4      0.59      0.00
  -11   -5    4      0.16      0.00
   13   -4    4      0.34      0.00
  -12   -3    4     -0.40      0.00
  -12   -2    4     -0.18      0.00
   14   -2    4      0.41      0.00
  -12    5    4     -0.46      0.00
   14    5    4     -0.21      0.00
  -12    6    4     -0.04      0.00
   13    6    4      0.11      0.00
  -11    7    4      0.34      0.00
   13    7    4     -0.23      0.00
  -11    8    4      0.15      0.00
  -10    9    4      0.67      0.00
  -10   10    4      0.50      0.00
   -9   11    4     -0.30      0.00
   -8   12    4     -0.95      0.00
   10   12    4     -0.23      0.00
   -5   14    4     -0.08      0.00
   -3   15    4      0.73      0.00
    1   15    4     -0.03      0.00
    2   15    4     -0.61      0.00
    3   15    4      0.05      0.00
    5   15    4     -0.22      0.00
   -4  -11    5     -0.52      0.00
   -6  -10    5      0.29      0.00
   -5  -10    5      0.32      0.00
   -7   -9    5      0.11      0.00
   -8   -8    5     -0.50      0.00
   -9   -7    5      0.43      0.00
  -10   -6    5     -0.03      0.00
   -9   -6    5     -0.48      0.00
  -10   -5    5     -0.05      0.00
   12   -5    5     -0.71      0.00
  -11   -4    5      0.01      0.00
   13   -4    5     -0.02      0.00
  -11   -3    5     -0.39      0.00
  -12   -1    5     -0.70      0.00
   14    5    5     -0.18      0.00
  -11    6    5     -0.06      0.00
  -11    7    5     -0.41      0.00
  -10    9    5     -0.58      0.00
   -9   11    5      0.17      0.00
   -8   12    5      0.22      0.00
   10   12    5      0.67      0.00
    9   13    5     -0.01      0.00
   -5   14    5     -0.26      0.00
    4   15    5     -0.10      0.00
    5   15    5      0.03      0.00
    6   15    5      0.29      0.00
    1   16    5     -0.23      0.00
    2   16    5      0.43      0.00
   -2  -11    6     -0.88      0.00
   -4  -10    6     -0.27      0.00
   -6   -9    6      0.24      0.00
   -5   -9    6      0.03      0.00
   -7   -8    6     -0.42      0.00
   -8   -7    6     -0.55      0.00
   -9   -6    6      0.56      0.00
  -10   -4    6     -0.28      0.00
  -10   -3    6     -0.58      0.00
  -11   -2    6      0.05      0.00
   14    4    6      0.77      0.00
  -11    5    6     -0.31      0.00
   14    5    6      0.45      0.00
  -11    6    6     -0.07      0.00
  -11    7    6      0.31      0.00
  -10    8    6      0.85      0.00
  -10    9    6      0.45      0.00
   -9   10    6     -0.14      0.00
   -8   12    6      0.10      0.00
   10   12    6     -0.77      0.00
    9   13    6      0.12      0.00
    7   14    6      0.33      0.00
    8   14    6     -0.28      0.00
    4   15    6      0.27      0.00
    5   15    6     -0.12      0.00
    6   15    6     -0.77      0.00
    1   16    6      0.09      0.00
    2   16    6     -0.27      0.00
   -3  -10    7      0.11      0.00
   -2  -10    7      0.27      0.00
   -1  -10    7      0.08      0.00
   -5   -9    7     -0.20      0.00
   -4   -9    7      0.13      0.00
   -6   -8    7      0.06      0.00
   -5   -8    7     -0.35      0.00
   -7   -7    7     -0.06      0.00
   -8   -6    7      0.74      0.00
   -9   -5    7     -0.66      0.00
  -10   -3    7      0.06      0.00
  -11    0    7      0.49      0.00
  -11    3    7     -0.14      0.00
   14    3    7     -0.16      0.00
  -11    4    7     -0.26      0.00
   14    4    7     -0.81      0.00
  -11    5    7      0.03      0.00
  -10    6    7     -0.31      0.00
  -10    7    7      0.21      0.00
  -10    8    7     -0.45      0.00
   -9   10    7     -0.08      0.00
   10   12    7      0.62      0.00
    9   13    7     -0.15      0.00
    7   14    7     -0.20      0.00
    8   14    7      0.29      0.00
    4   15    7     -0.57      0.00
    5   15    7      0.76      0.00
    6   15    7      0.73      0.00
    2   16    7     -0.01      0.00
    3   16    7     -0.19      0.00
    1  -10    8      0.02      0.00
    2  -10    8      0.10      0.00
    3  -10    8      0.30      0.00
   -3   -9    8     -0.39      0.00
   -2   -9    8      0.26      0.00
   -1   -9    8     -0.12      0.00
   -5   -8    8      0.21      0.00
   -4   -8    8      0.40      0.00
   -3   -8    8     -0.50      0.00
   -6   -7    8     -0.60      0.00
   -5   -7    8     -0.05      0.00
   -7   -6    8      0.75      0.00
   -6   -6    8     -0.21      0.00
   -8   -5    8     -0.04      0.00
   -9   -3    8      0.10      0.00
   13   -2    8     -0.32      0.00
   13   -1    8     -0.32      0.00
   13    0    8     -0.77      0.00
  -10    3    8     -0.02      0.00
  -10    4    8     -0.37      0.00
  -10    5    8      0.11      0.00
  -10    6    8      0.42      0.00
  -10    7    8     -0.21      0.00
   -9    8    8     -0.73      0.00
   -9    9    8      0.33      0.00
   -8   11    8      0.06      0.00
   11   11    8      0.20      0.00
   10   12    8     -0.48      0.00
    8   13    8     -0.13      0.00
    9   13    8      0.04      0.00
    7   14    8     -0.43      0.00
    8   14    8     -0.17      0.00
    4   15    8      0.35      0.00
    5   15    8     -1.33      0.00
    6   15    8     -0.04      0.00
    1   16    8     -0.06      0.00
    2   16    8      0.11      0.00
    0   -9    9      0.01      0.00
    1   -9    9      0.37      0.00
    2   -9    9     -0.02      0.00
    3   -9    9     -0.31      0.00
   -3   -8    9      0.30      0.00
   -2   -8    9     -0.32      0.00
   -1   -8    9      0.21      0.00
   -4   -7    9      0.28      0.00
   -3   -7    9      0.10      0.00
   -5   -6    9      0.01      0.00
   -6   -5    9     -0.82      0.00
   -7   -4    9      0.38      0.00
   -8   -3    9     -0.29      0.00
   12   -3    9      0.59      0.00
   13    0    9      0.08      0.00
   -9    3    9      0.49      0.00
   -9    4    9     -0.17      0.00
   -9    5    9      0.58      0.00
   -9    6    9      0.12      0.00
   -9    7    9     -0.13      0.00
   -9    8    9      0.55      0.00
   -8   10    9     -0.30      0.00
   11   11    9      0.02      0.00
   10   12    9      0.50      0.00
    8   13    9      0.23      0.00
    9   13    9     -0.03      0.00
   -4   14    9      0.48      0.00
   -3   14    9     -0.28      0.00
    6   14    9     -0.75      0.00
    7   14    9      0.77      0.00
    8   14    9      0.01      0.00
    4   15    9      0.33      0.00
    5   15    9      0.99      0.00
    6   15    9     -0.52      0.00
    1   -8   10     -0.03      0.00
    2   -8   10     -0.35      0.00
    3   -8   10     -0.21      0.00
    4   -8   10     -0.33      0.00
   -2   -7   10     -0.38      0.00
   -1   -7   10      0.03      0.00
    0   -7   10     -0.77      0.00
    6   -7   10      0.72      0.00
   -4   -6   10     -0.53      0.00
   -3   -6   10      0.01      0.00
    8   -6   10      0.29      0.00
   -5   -5   10      0.23      0.00
   -4   -5   10      0.29      0.00
    9   -5   10      0.65      0.00
   -6   -4   10      0.51      0.00
   -7   -3   10     -0.58      0.00
   11   -3   10     -0.55      0.00
   -9    2   10      0.27      0.00
   -9    3   10     -0.78      0.00
   -9    4   10     -0.09      0.00
   -9    5   10     -0.27      0.00
   -8    8   10      0.08      0.00
   12    9   10     -0.20      0.00
   11   10   10     -0.32      0.00
   10   11   10     -0.09      0.00
    9   12   10      0.06      0.00
   10   12   10     -0.57      0.00
    8   13   10     -0.29      0.00
    9   13   10      0.22      0.00
   -3   14   10     -0.07      0.00
    6   14   10      0.07      0.00
    7   14   10     -0.52      0.00
    3   15   10      0.36      0.00
    4   15   10     -0.63      0.00
    5   15   10     -0.03      0.00
    1   -7   11     -0.05      0.00
    2   -7   11     -0.14      0.00
    3   -7   11      0.10      0.00
   -2   -6   11      0.71      0.00
   -1   -6   11      0.32      0.00
    0   -6   11      0.40      0.00
    1   -6   11      1.15      0.00
    2   -6   11      0.41      0.00
    3   -6   11     -0.48      0.00
    4   -6   11     -0.38      0.00
    5   -6   11      0.41      0.00
    6   -6   11      0.49      0.00
   -3   -5   11      0.00      0.00
   -2   -5   11     -0.36      0.00
    7   -5   11      0.89      0.00
    8   -5   11     -0.22      0.00
   -5   -4   11      0.06      0.00
   -4   -4   11     -0.59      0.00
    9   -4   11     -0.28      0.00
   10   -3   11      0.04      0.00
   10   -2   11      0.16      0.00
   11   -2   11      0.37      0.00
   11   -1   11      0.46      0.00
   -8    2   11     -0.65      0.00
   -8    3   11     -0.53      0.00
   -8    4   11      0.13      0.00
   -8    5   11     -0.27      0.00
   -8    6   11     -0.03      0.00
   12    8   11      0.43      0.00
   11   10   11      0.12      0.00
   10   11   11      0.35      0.00
    8   12   11     -0.62      0.00
    9   12   11     -0.04      0.00
   -4   13   11      0.06      0.00
   -3   13   11      0.37      0.00
    7   13   11      0.76      0.00
    8   13   11      0.06      0.00
    5   14   11     -0.33      0.00
    6   14   11      0.03      0.00
    7   14   11      0.21      0.00
    3   15   11      0.47      0.00
    4   15   11      0.20      0.00
   -1   -5   12     -1.14      0.00
    0   -5   12     -0.01      0.00
    1   -5   12      0.13      0.00
    2   -5   12     -0.72      0.00
    3   -5   12      0.05      0.00
    4   -5   12     -0.09      0.00
    5   -5   12     -0.13      0.00
    6   -5   12     -0.43      0.00
   -3   -4   12     -0.21      0.00
   -2   -4   12      0.43      0.00
   -1   -4   12     -0.46      0.00
    6   -4   12     -0.15      0.00
    7   -4   12     -0.44      0.00
    8   -4   12     -0.99      0.00
   -4   -3   12      0.52      0.00
   -3   -3   12     -0.12      0.00
    8   -3   12     -0.61      0.00
    9   -3   12     -0.65      0.00
   -5   -2   12     -0.49      0.00
    9   -2   12     -0.49      0.00
   10   -2   12     -0.13      0.00
   10   -1   12     -0.58      0.00
   10    0   12     -0.61      0.00
   11    0   12     -0.05      0.00
   -7    3   12     -0.21      0.00
   -7    4   12     -0.04      0.00
   -7    5   12     -0.13      0.00
   -7    6   12      0.06      0.00
   12    6   12      0.44      0.00
   11    8   12      0.50      0.00
   11    9   12      0.43      0.00
   10   10   12     -0.53      0.00
    9   11   12     -0.36      0.00
   10   11   12     -0.39      0.00
   -4   12   12     -0.16      0.00
   -3   12   12     -0.10      0.00
    7   12   12     -0.44      0.00
    8   12   12      0.62      0.00
    9   12   12      0.08      0.00
   -3   13   12     -0.12      0.00
    6   13   12      0.04      0.00
    7   13   12     -0.51      0.00
    4   14   12      0.50      0.00
    5   14   12      0.17      0.00
    6   14   12      0.22      0.00
    0   -4   13      0.83      0.00
    1   -4   13      0.13      0.00
    2   -4   13     -0.39      0.00
    3   -4   13     -0.41      0.00
    4   -4   13     -0.31      0.00
    5   -4   13      0.04      0.00
   -2   -3   13      0.13      0.00
   -1   -3   13      0.05      0.00
    0   -3   13     -0.05      0.00
    1   -3   13      0.89      0.00
    2   -3   13      0.57      0.00
    3   -3   13     -0.20      0.00
    4   -3   13     -0.33      0.00
    5   -3   13     -0.63      0.00
    6   -3   13     -0.20      0.00
    7   -3   13     -0.37      0.00
   -3   -2   13     -0.01      0.00
   -2   -2   13      0.01      0.00
    7   -2   13     -0.30      0.00
    8   -2   13     -0.61      0.00
   -4   -1   13      0.13      0.00
    8   -1   13     -0.81      0.00
    9   -1   13      0.19      0.00
    9    0   13     -0.38      0.00
   10    0   13      0.54      0.00
    9    1   13     -0.05      0.00
   10    1   13      0.36      0.00
   11    2   13      0.79      0.00
   11    3   13      0.62      0.00
   -6    4   13      0.03      0.00
   -5    4   13     -0.01      0.00
   11    4   13      0.61      0.00
   -6    5   13      0.16      0.00
   11    5   13     -0.30      0.00
   -6    6   13      0.15      0.00
   11    6   13     -0.32      0.00
   11    7   13     -0.24      0.00
   10    8   13      0.10      0.00
    9    9   13      0.31      0.00
   10    9   13      0.14      0.00
    9   10   13      0.54      0.00
   10   10   13      0.29      0.00
   -3   11   13      0.01      0.00
    8   11   13     -0.76      0.00
    9   11   13      0.36      0.00
   -2   12   13     -0.02      0.00
    6   12   13     -0.31      0.00
    7   12   13      0.46      0.00
    8   12   13     -0.45      0.00
    5   13   13      0.10      0.00
    6   13   13     -0.29      0.00
    3   14   13      0.10      0.00
    4   14   13     -0.11      0.00
    0   -2   14     -0.04      0.00
    1   -2   14      0.56      0.00
    2   -2   14     -0.37      0.00
    3   -2   14      0.08      0.00
    4   -2   14     -0.27      0.00
    5   -2   14     -0.65      0.00
    6   -2   14      0.33      0.00
   -2   -1   14     -0.06      0.00
   -1   -1   14      0.35      0.00
    5   -1   14     -0.93      0.00
    6   -1   14     -0.36      0.00
    7   -1   14     -0.28      0.00
    7    0   14     -0.86      0.00
    8    0   14      0.52      0.00
    8    1   14     -0.32      0.00
    9    1   14      0.15      0.00
    9    2   14     -0.27      0.00
    9    3   14     -0.23      0.00
   10    3   14      0.16      0.00
   -4    4   14      0.16      0.00
    9    4   14     -0.46      0.00
   10    4   14      0.40      0.00
   -4    5   14      0.81      0.00
   10    5   14      0.77      0.00
    9    6   14     -0.57      0.00
   10    6   14      0.01      0.00
    9    7   14     -0.35      0.00
   10    7   14     -0.02      0.00
    9    8   14     -0.24      0.00
   10    8   14     -0.27      0.00
    8    9   14      0.33      0.00
    9    9   14     -0.05      0.00
   -3   10   14     -0.21      0.00
    7   10   14     -0.02      0.00
    8   10   14      0.28      0.00
    9   10   14     -0.25      0.00
   -2   11   14      0.12      0.00
    6   11   14      0.38      0.00
    7   11   14      0.13      0.00
    8   11   14      0.38      0.00
    5   12   14      0.01      0.00
    6   12   14      0.28      0.00
    7   12   14     -0.25      0.00
    3   13   14     -0.22      0.00
    4   13   14      0.28      0.00
    5   13   14     -0.09      0.00
    0    0   15     -0.55      0.00
    1    0   15      0.57      0.00
    2    0   15      0.43      0.00
    3    0   15      0.11      0.00
    4    0   15     -0.05      0.00
    5    0   15     -0.22      0.00
    6    0   15     -0.09      0.00
    5    1   15      0.22      0.00
    6    1   15     -0.16      0.00
    7    1   15      0.21      0.00
    6    2   15      0.46      0.00
    7    2   15      0.01      0.00
    8    2   15      0.14      0.00
    7    3   15      0.53      0.00
    8    3   15      0.23      0.00
    8    4   15      0.16      0.00
    9    4   15      0.22      0.00
   -3    5   15      0.28      0.00
    8    5   15     -0.21      0.00
    9    5   15      0.28      0.00
   -3    6   15      0.27      0.00
    9    6   15      0.52      0.00
    7    7   15      0.39      0.00
    8    7   15      0.14      0.00
    9    7   15      0.27      0.00
    7    8   15     -0.19      0.00
    8    8   15     -0.07      0.00
   -2    9   15      0.25      0.00
    6    9   15      0.36      0.00
    7    9   15     -0.04      0.00
    8    9   15     -0.27      0.00
    5   10   15     -0.80      0.00
    6   10   15      0.02      0.00
    7   10   15      0.20      0.00
    4   11   15      0.55      0.00
    5   11   15     -0.57      0.00
    6   11   15     -0.26      0.00
    3   12   15     -0.67      0.00
    4   12   15      0.32      0.00
    2    2   16      0.28      0.00
    3    2   16      0.33      0.00
    4    2   16     -0.03      0.00
    4    3   16      0.13      0.00
    5    3   16      0.03      0.00
    6    3   16     -0.04      0.00
    6    4   16      0.14      0.00
    7    5   16     -0.49      0.00
    7    6   16     -0.54      0.00
    6    8   16      0.00      0.00
    3    9   16      0.62      0.00
    4    9   16     -0.18      0.00
    5    9   16     -0.26      0.00
    6    9   16     -0.37      0.00
    2   10   16     -0.32      0.00
    3   10   16      0.19      0.00
    4   10   16      0.06      0.00
    0    0    0      0.00      0.00
# SQUEEZE RESULTS (Version = 260221)
# Note: Data are Listed for all Voids in the P1 Unit Cell
# i.e. Centre of Gravity, Solvent Accessible Volume,
# Recovered number of Electrons in the Void and
# Details about the Squeezed Material
loop_
  _platon_squeeze_void_nr
  _platon_squeeze_void_average_x
  _platon_squeeze_void_average_y
  _platon_squeeze_void_average_z
  _platon_squeeze_void_volume
  _platon_squeeze_void_count_electrons
  _platon_squeeze_void_content
   1 -0.036  0.000  0.500       421        96 ' '
# Missing Reflections Below sin(th)/lambda = 0.25
loop_
  _platon_missing_refln_index_h
  _platon_missing_refln_index_k
  _platon_missing_refln_index_l
  _platon_missing_refln_theta
    0    1    0     1.790
    0    0    1     1.771
_platon_squeeze_void_probe_radius                  1.20
_platon_squeeze_details
)
TITL pvl1217_a.res in P-1
CELL   11.0215   12.3323   12.7843     67.31     76.11     84.64
SPGR P-1
# Solvent Accessible Volume =       419
# Electrons Found in S.A.V. =        96
# Note: Atoms in Void are Labelled as Cxxx and Qxxx for all Others
C101 0.677 0.399 0.344 !       3.12 eA-3
C102 0.752 0.253 0.484 !       2.98 eA-3
C103 0.731 0.361 0.420 !       2.83 eA-3
C104 0.187 0.775 0.419 !       2.58 eA-3
C105 0.673 0.169 0.461 !       1.44 eA-3
C106 0.642 0.278 0.390 !       1.25 eA-3
C107 0.584 0.079 0.456 !       1.14 eA-3
C108 0.547 0.931 0.446 !       1.11 eA-3
C109 0.921 0.070 0.469 !       1.01 eA-3
C110 0.631 0.159 0.405 !       0.99 eA-3
C111 0.618 0.986 0.417 !       0.94 eA-3
C112 0.500 1.000 0.500 !       0.93 eA-3
C113 0.860 0.117 0.435 !       0.88 eA-3
C114 0.697 0.038 0.409 !       0.59 eA-3
Q115 0.093 0.361 0.083 !       0.51 eA-3
)
;
_shelx_fab_checksum              58449
_diffrn_radiation_probe          x-ray
_diffrn_radiation_source         'fine-focus sealed tube'
_diffrn_radiation_monochromator  graphite
_diffrn_measurement_device       'four-circle diffractometer'
_diffrn_detector                 'CCD plate'
_diffrn_detector_type            AtlasS2

