 
data_pvl488_auto_a
 
_audit_creation_method            'SHELXL-2018/3'
_shelx_SHELXL_version_number      '2018/3'
_chemical_name_systematic         ?
_chemical_name_common             ?
_chemical_melting_point           ?
_chemical_formula_moiety          ?
_chemical_formula_sum
 'C3.27 H1.82 Cd0.18 N1.45 O0.73 S0.18' 
_chemical_formula_weight          99.42

loop_
 _atom_type_symbol
 _atom_type_description
 _atom_type_scat_dispersion_real
 _atom_type_scat_dispersion_imag
 _atom_type_scat_source
 'C'  'C'   0.0033   0.0016
 'International Tables Vol C Tables 4.2.6.8 and 6.1.1.4'
 'H'  'H'   0.0000   0.0000
 'International Tables Vol C Tables 4.2.6.8 and 6.1.1.4'
 'N'  'N'   0.0061   0.0033
 'International Tables Vol C Tables 4.2.6.8 and 6.1.1.4'
 'O'  'O'   0.0106   0.0060
 'International Tables Vol C Tables 4.2.6.8 and 6.1.1.4'
 'S'  'S'   0.1246   0.1234
 'International Tables Vol C Tables 4.2.6.8 and 6.1.1.4'
 'Cd'  'Cd'  -0.8075   1.2024
 'International Tables Vol C Tables 4.2.6.8 and 6.1.1.4'
 
_space_group_crystal_system       monoclinic
_space_group_IT_number            14
_space_group_name_H-M_alt         'P 21/c'
_space_group_name_Hall            '-P 2ybc'
 
_shelx_space_group_comment
;
The symmetry employed for this shelxl refinement is uniquely defined
by the following loop, which should always be used as a source of
symmetry information in preference to the above space-group names.
They are only intended as comments.
;
 
loop_
 _space_group_symop_operation_xyz
 'x, y, z'
 '-x, y+1/2, -z+1/2'
 '-x, -y, -z'
 'x, -y-1/2, z-1/2'
 
_cell_length_a                    7.2138(3)
_cell_length_b                    19.4940(7)
_cell_length_c                    13.4656(5)
_cell_angle_alpha                 90
_cell_angle_beta                  92.921(3)
_cell_angle_gamma                 90
_cell_volume                      1891.15(13)
_cell_formula_units_Z             22
_cell_measurement_temperature     130(2)
_cell_measurement_reflns_used     ?
_cell_measurement_theta_min       ?
_cell_measurement_theta_max       ?
 
_exptl_crystal_description        ?
_exptl_crystal_colour             ?
_exptl_crystal_density_meas       ?
_exptl_crystal_density_method     ?
_exptl_crystal_density_diffrn     1.920          
_exptl_crystal_F_000              1080
_exptl_transmission_factor_min    ?
_exptl_transmission_factor_max    ?
_exptl_crystal_size_max           ?
_exptl_crystal_size_mid           ?
_exptl_crystal_size_min           ?
_exptl_absorpt_coefficient_mu     1.314
_shelx_estimated_absorpt_T_min    ?
_shelx_estimated_absorpt_T_max    ?
_exptl_absorpt_correction_type    ?
_exptl_absorpt_correction_T_min   ?
_exptl_absorpt_correction_T_max   ?
_exptl_absorpt_process_details    ?
_exptl_absorpt_special_details    ?
_diffrn_ambient_temperature       130(2)
_diffrn_radiation_wavelength      0.71073
_diffrn_radiation_type            MoK\a
_diffrn_source                    ?
_diffrn_measurement_device_type   ?
_diffrn_measurement_method        ?
_diffrn_detector_area_resol_mean  ?
_diffrn_reflns_number             9188
_diffrn_reflns_av_unetI/netI      0.0342
_diffrn_reflns_av_R_equivalents   0.0233
_diffrn_reflns_limit_h_min        -9
_diffrn_reflns_limit_h_max        9
_diffrn_reflns_limit_k_min        -26
_diffrn_reflns_limit_k_max        24
_diffrn_reflns_limit_l_min        -10
_diffrn_reflns_limit_l_max        17
_diffrn_reflns_theta_min          1.840
_diffrn_reflns_theta_max          29.147
_diffrn_reflns_theta_full         25.242
_diffrn_measured_fraction_theta_max   0.830
_diffrn_measured_fraction_theta_full  1.000
_diffrn_reflns_Laue_measured_fraction_max    0.830
_diffrn_reflns_Laue_measured_fraction_full   1.000
_diffrn_reflns_point_group_measured_fraction_max   0.830
_diffrn_reflns_point_group_measured_fraction_full  1.000
_reflns_number_total              4236
_reflns_number_gt                 3692
_reflns_threshold_expression      'I > 2\s(I)'
_reflns_Friedel_coverage          0.000
_reflns_Friedel_fraction_max      .
_reflns_Friedel_fraction_full     .
 
_reflns_special_details
;
 Reflections were merged by SHELXL according to the crystal
 class for the calculation of statistics and refinement.
 
 _reflns_Friedel_fraction is defined as the number of unique
 Friedel pairs measured divided by the number that would be
 possible theoretically, ignoring centric projections and
 systematic absences.
;
 
_computing_data_collection        ?
_computing_cell_refinement        ?
_computing_data_reduction         ?
_computing_structure_solution     'SHELXT 2018/2 (Sheldrick, 2018)'
_computing_structure_refinement 'SHELXL-2018/3 (Sheldrick, 2018)'
_computing_molecular_graphics     ?
_computing_publication_material   ?
_refine_special_details           ?
_refine_ls_structure_factor_coef  Fsqd
_refine_ls_matrix_type            full
_refine_ls_weighting_scheme       calc
_refine_ls_weighting_details
'w=1/[\s^2^(Fo^2^)+(0.0466P)^2^+1.7349P] where P=(Fo^2^+2Fc^2^)/3'
_atom_sites_solution_primary      ?
_atom_sites_solution_secondary    ?
_atom_sites_solution_hydrogens    geom
_refine_ls_hydrogen_treatment     constr
_refine_ls_extinction_method      none
_refine_ls_extinction_coef        .
_refine_ls_number_reflns          4236
_refine_ls_number_parameters      289
_refine_ls_number_restraints      0
_refine_ls_R_factor_all           0.0391
_refine_ls_R_factor_gt            0.0326
_refine_ls_wR_factor_ref          0.0856
_refine_ls_wR_factor_gt           0.0807
_refine_ls_goodness_of_fit_ref    1.048
_refine_ls_restrained_S_all       1.048
_refine_ls_shift/su_max           0.001
_refine_ls_shift/su_mean          0.000
 
loop_
 _atom_site_label
 _atom_site_type_symbol
 _atom_site_fract_x
 _atom_site_fract_y
 _atom_site_fract_z
 _atom_site_U_iso_or_equiv
 _atom_site_adp_type
 _atom_site_occupancy
 _atom_site_site_symmetry_order  
 _atom_site_calc_flag
 _atom_site_refinement_flags_posn
 _atom_site_refinement_flags_adp
 _atom_site_refinement_flags_occupancy
 _atom_site_disorder_assembly
 _atom_site_disorder_group
Cd1 Cd 0.80990(2) 0.60852(2) 0.47184(2) 0.00932(8) Uani 1 1 d . . . . .
S1 S 0.84715(16) 0.68579(4) 0.97217(6) 0.0360(2) Uani 1 1 d . . . . .
O1 O 0.5273(3) 0.65280(10) 0.42843(14) 0.0129(4) Uani 1 1 d . . . . .
O2 O 0.1044(3) 0.86202(10) 0.02476(14) 0.0130(4) Uani 1 1 d . . . . .
O3 O -0.1198(3) 0.80898(10) 0.09929(14) 0.0129(4) Uani 1 1 d . . . . .
O4 O 0.7568(3) 0.69091(10) 0.34121(14) 0.0134(4) Uani 1 1 d . . . . .
N1 N 0.7374(3) 0.51037(12) 0.75947(17) 0.0122(5) Uani 1 1 d . . . . .
N2 N 0.8056(3) 0.53300(12) 1.33886(17) 0.0147(5) Uani 1 1 d . . . . .
N3 N 0.7678(3) 0.50832(12) 1.18160(17) 0.0137(5) Uani 1 1 d . . . . .
N4 N 0.7081(4) 0.45118(13) 1.22969(18) 0.0193(5) Uani 1 1 d . . . . .
N5 N 0.7456(3) 0.53698(12) 0.60306(17) 0.0137(5) Uani 1 1 d . . . . .
N6 N 0.7030(4) 0.45014(12) 0.70945(18) 0.0168(5) Uani 1 1 d . . . . .
N7 N 0.8279(4) 0.63360(13) 1.06405(19) 0.0245(6) Uani 1 1 d . . . . .
N8 N 0.8128(4) 0.63429(13) 0.87970(19) 0.0247(6) Uani 1 1 d . . . . .
C1 C 0.7337(4) 0.46859(15) 1.3237(2) 0.0166(6) Uani 1 1 d . . . . .
H1 H 0.704665 0.438975 1.376759 0.020 Uiso 1 1 calc R U . . .
C2 C 0.8243(4) 0.55641(15) 1.2475(2) 0.0152(6) Uani 1 1 d . . . . .
H2 H 0.870547 0.600424 1.231281 0.018 Uiso 1 1 calc R U . . .
C3 C 0.7615(4) 0.50931(15) 1.0759(2) 0.0148(6) Uani 1 1 d . . . . .
C4 C 0.7911(4) 0.57160(15) 1.0242(2) 0.0157(6) Uani 1 1 d . . . . .
C5 C 0.7823(4) 0.57183(15) 0.9177(2) 0.0148(6) Uani 1 1 d . . . . .
C6 C 0.7442(4) 0.51064(15) 0.8648(2) 0.0138(6) Uani 1 1 d . . . . .
C7 C 0.7165(4) 0.45167(15) 0.9168(2) 0.0169(6) Uani 1 1 d . . . . .
H7 H 0.690872 0.410225 0.881612 0.020 Uiso 1 1 calc R U . . .
C8 C 0.7253(4) 0.45108(15) 1.0226(2) 0.0159(6) Uani 1 1 d . . . . .
H8 H 0.705463 0.409258 1.056670 0.019 Uiso 1 1 calc R U . . .
C9 C 0.7105(4) 0.46873(15) 0.6162(2) 0.0160(6) Uani 1 1 d . . . . .
H9 H 0.693046 0.437490 0.562419 0.019 Uiso 1 1 calc R U . . .
C10 C 0.7615(4) 0.56159(15) 0.6948(2) 0.0152(6) Uani 1 1 d . . . . .
H10 H 0.786157 0.608069 0.712120 0.018 Uiso 1 1 calc R U . . .
C11 C 0.5858(4) 0.68748(14) 0.35699(19) 0.0105(5) Uani 1 1 d . . . . .
C12 C 0.4476(4) 0.72302(14) 0.2885(2) 0.0117(5) Uani 1 1 d . . . . .
C13 C 0.5065(4) 0.75529(15) 0.2034(2) 0.0148(6) Uani 1 1 d . . . . .
H13 H 0.634467 0.755637 0.190021 0.018 Uiso 1 1 calc R U . . .
C14 C 0.3780(4) 0.78701(15) 0.1382(2) 0.0139(6) Uani 1 1 d . . . . .
H14 H 0.417882 0.809493 0.080412 0.017 Uiso 1 1 calc R U . . .
C15 C 0.1893(4) 0.78562(14) 0.1580(2) 0.0114(5) Uani 1 1 d . . . . .
C16 C 0.1311(4) 0.75295(14) 0.2426(2) 0.0133(6) Uani 1 1 d . . . . .
H16 H 0.002862 0.751912 0.255528 0.016 Uiso 1 1 calc R U . . .
C17 C 0.2594(4) 0.72182(14) 0.3081(2) 0.0128(5) Uani 1 1 d . . . . .
H17 H 0.219462 0.699747 0.366163 0.015 Uiso 1 1 calc R U . . .
C18 C 0.0503(4) 0.82051(13) 0.08979(19) 0.0098(5) Uani 1 1 d . . . . .
 
loop_
 _atom_site_aniso_label
 _atom_site_aniso_U_11
 _atom_site_aniso_U_22
 _atom_site_aniso_U_33
 _atom_site_aniso_U_23
 _atom_site_aniso_U_13
 _atom_site_aniso_U_12
Cd1 0.01057(12) 0.01132(12) 0.00584(11) 0.00014(7) -0.00174(7) -0.00024(7)
S1 0.0836(7) 0.0139(4) 0.0100(4) -0.0006(3) -0.0028(4) -0.0118(4)
O1 0.0117(9) 0.0174(10) 0.0094(9) 0.0037(8) -0.0003(7) 0.0008(8)
O2 0.0116(9) 0.0173(10) 0.0099(9) 0.0047(8) -0.0008(7) 0.0016(8)
O3 0.0098(9) 0.0153(10) 0.0134(10) 0.0017(8) -0.0013(7) -0.0003(8)
O4 0.0114(9) 0.0159(10) 0.0128(10) 0.0026(8) 0.0003(7) 0.0008(8)
N1 0.0170(11) 0.0104(11) 0.0094(11) -0.0013(9) 0.0009(9) -0.0020(10)
N2 0.0189(12) 0.0158(12) 0.0092(11) -0.0019(9) -0.0004(9) 0.0022(10)
N3 0.0188(12) 0.0133(11) 0.0091(11) 0.0014(9) 0.0005(9) 0.0015(10)
N4 0.0298(14) 0.0156(12) 0.0123(12) 0.0033(10) -0.0013(10) -0.0023(11)
N5 0.0186(12) 0.0131(11) 0.0093(11) -0.0005(9) 0.0005(9) -0.0028(10)
N6 0.0268(13) 0.0136(12) 0.0102(12) -0.0021(9) 0.0013(10) -0.0039(11)
N7 0.0505(18) 0.0125(12) 0.0100(12) -0.0002(10) -0.0013(12) -0.0050(13)
N8 0.0498(18) 0.0152(13) 0.0091(12) -0.0010(10) -0.0006(12) -0.0032(13)
C1 0.0228(15) 0.0153(14) 0.0116(14) 0.0015(11) -0.0003(11) 0.0028(13)
C2 0.0195(14) 0.0168(14) 0.0091(13) -0.0003(11) -0.0004(11) -0.0015(12)
C3 0.0183(14) 0.0177(14) 0.0083(13) -0.0009(11) 0.0003(10) 0.0031(12)
C4 0.0238(15) 0.0149(14) 0.0084(13) -0.0014(11) 0.0002(11) 0.0009(13)
C5 0.0233(15) 0.0129(13) 0.0081(13) -0.0003(10) 0.0004(11) -0.0015(12)
C6 0.0184(13) 0.0161(14) 0.0068(13) -0.0011(10) 0.0001(10) 0.0008(12)
C7 0.0238(15) 0.0146(13) 0.0123(14) -0.0028(11) 0.0014(11) -0.0039(13)
C8 0.0240(14) 0.0141(14) 0.0095(13) 0.0036(10) 0.0009(11) -0.0014(13)
C9 0.0212(14) 0.0147(14) 0.0122(13) -0.0024(11) 0.0027(11) -0.0024(12)
C10 0.0240(15) 0.0120(13) 0.0096(13) -0.0002(10) 0.0015(11) 0.0001(12)
C11 0.0123(12) 0.0103(12) 0.0088(12) -0.0027(10) -0.0007(10) 0.0010(11)
C12 0.0140(13) 0.0098(12) 0.0111(13) 0.0001(10) -0.0009(10) 0.0005(11)
C13 0.0099(12) 0.0191(14) 0.0156(14) 0.0048(11) 0.0017(10) 0.0009(12)
C14 0.0138(13) 0.0178(14) 0.0102(13) 0.0048(11) 0.0028(10) 0.0007(12)
C15 0.0107(12) 0.0122(13) 0.0111(13) 0.0022(10) -0.0017(10) 0.0000(11)
C16 0.0111(12) 0.0150(14) 0.0140(14) 0.0033(11) 0.0022(10) 0.0013(12)
C17 0.0123(12) 0.0160(14) 0.0101(13) 0.0037(10) 0.0029(10) -0.0011(11)
C18 0.0118(12) 0.0097(12) 0.0077(12) -0.0024(10) -0.0004(9) 0.0011(11)
 
_geom_special_details
;
 All esds (except the esd in the dihedral angle between two l.s. planes)
 are estimated using the full covariance matrix.  The cell esds are taken
 into account individually in the estimation of esds in distances, angles
 and torsion angles; correlations between esds in cell parameters are only
 used when they are defined by crystal symmetry.  An approximate (isotropic)
 treatment of cell esds is used for estimating esds involving l.s. planes.
;
 
loop_
 _geom_bond_atom_site_label_1
 _geom_bond_atom_site_label_2
 _geom_bond_distance
 _geom_bond_site_symmetry_2
 _geom_bond_publ_flag
Cd1 O1 2.2628(19) . ?
Cd1 O2 2.2796(19) 4_676 ?
Cd1 N5 2.316(2) . ?
Cd1 N2 2.317(2) 1_554 ?
Cd1 O3 2.3876(19) 4_676 ?
Cd1 O4 2.3982(19) . ?
Cd1 C11 2.668(3) . ?
Cd1 C18 2.677(3) 4_676 ?
S1 N8 1.609(3) . ?
S1 N7 1.613(3) . ?
O1 C11 1.266(3) . ?
O2 C18 1.268(3) . ?
O3 C18 1.261(3) . ?
O4 C11 1.264(3) . ?
N1 C10 1.342(4) . ?
N1 N6 1.370(3) . ?
N1 C6 1.416(3) . ?
N2 C2 1.325(4) . ?
N2 C1 1.370(4) . ?
N3 C2 1.340(4) . ?
N3 N4 1.369(3) . ?
N3 C3 1.422(3) . ?
N4 C1 1.315(4) . ?
N5 C10 1.325(4) . ?
N5 C9 1.368(4) . ?
N6 C9 1.310(4) . ?
N7 C4 1.344(4) . ?
N8 C5 1.344(4) . ?
C3 C8 1.361(4) . ?
C3 C4 1.421(4) . ?
C4 C5 1.432(4) . ?
C5 C6 1.410(4) . ?
C6 C7 1.366(4) . ?
C7 C8 1.423(4) . ?
C11 C12 1.494(4) . ?
C12 C13 1.392(4) . ?
C12 C17 1.397(4) . ?
C13 C14 1.390(4) . ?
C14 C15 1.401(4) . ?
C15 C16 1.388(4) . ?
C15 C18 1.489(4) . ?
C16 C17 1.386(4) . ?
 
loop_
 _geom_angle_atom_site_label_1
 _geom_angle_atom_site_label_2
 _geom_angle_atom_site_label_3
 _geom_angle
 _geom_angle_site_symmetry_1
 _geom_angle_site_symmetry_3
 _geom_angle_publ_flag
O1 Cd1 O2 142.89(7) . 4_676 ?
O1 Cd1 N5 102.36(8) . . ?
O2 Cd1 N5 97.63(8) 4_676 . ?
O1 Cd1 N2 93.81(8) . 1_554 ?
O2 Cd1 N2 112.15(8) 4_676 1_554 ?
N5 Cd1 N2 102.22(9) . 1_554 ?
O1 Cd1 O3 94.83(7) . 4_676 ?
O2 Cd1 O3 56.31(6) 4_676 4_676 ?
N5 Cd1 O3 84.29(7) . 4_676 ?
N2 Cd1 O3 167.81(8) 1_554 4_676 ?
O1 Cd1 O4 56.43(6) . . ?
O2 Cd1 O4 99.90(7) 4_676 . ?
N5 Cd1 O4 158.75(8) . . ?
N2 Cd1 O4 82.15(8) 1_554 . ?
O3 Cd1 O4 95.52(7) 4_676 . ?
O1 Cd1 C11 28.24(7) . . ?
O2 Cd1 C11 124.28(8) 4_676 . ?
N5 Cd1 C11 130.58(8) . . ?
N2 Cd1 C11 86.26(8) 1_554 . ?
O3 Cd1 C11 97.37(7) 4_676 . ?
O4 Cd1 C11 28.26(7) . . ?
O1 Cd1 C18 120.27(8) . 4_676 ?
O2 Cd1 C18 28.22(7) 4_676 4_676 ?
N5 Cd1 C18 90.42(8) . 4_676 ?
N2 Cd1 C18 140.32(8) 1_554 4_676 ?
O3 Cd1 C18 28.10(7) 4_676 4_676 ?
O4 Cd1 C18 99.41(7) . 4_676 ?
C11 Cd1 C18 113.63(8) . 4_676 ?
N8 S1 N7 100.62(15) . . ?
C11 O1 Cd1 93.97(15) . . ?
C18 O2 Cd1 93.57(15) . 4_475 ?
C18 O3 Cd1 88.80(15) . 4_475 ?
C11 O4 Cd1 87.82(15) . . ?
C10 N1 N6 110.2(2) . . ?
C10 N1 C6 130.4(2) . . ?
N6 N1 C6 119.4(2) . . ?
C2 N2 C1 103.5(2) . . ?
C2 N2 Cd1 120.03(19) . 1_556 ?
C1 N2 Cd1 133.42(19) . 1_556 ?
C2 N3 N4 110.4(2) . . ?
C2 N3 C3 130.3(2) . . ?
N4 N3 C3 119.3(2) . . ?
C1 N4 N3 102.3(2) . . ?
C10 N5 C9 103.8(2) . . ?
C10 N5 Cd1 118.84(18) . . ?
C9 N5 Cd1 136.90(19) . . ?
C9 N6 N1 102.6(2) . . ?
C4 N7 S1 106.5(2) . . ?
C5 N8 S1 107.0(2) . . ?
N4 C1 N2 114.4(3) . . ?
N2 C2 N3 109.4(3) . . ?
C8 C3 C4 119.0(2) . . ?
C8 C3 N3 120.8(3) . . ?
C4 C3 N3 120.2(3) . . ?
N7 C4 C3 127.2(3) . . ?
N7 C4 C5 113.3(2) . . ?
C3 C4 C5 119.5(2) . . ?
N8 C5 C6 127.3(3) . . ?
N8 C5 C4 112.6(2) . . ?
C6 C5 C4 120.1(2) . . ?
C7 C6 C5 118.8(2) . . ?
C7 C6 N1 120.8(3) . . ?
C5 C6 N1 120.4(2) . . ?
C6 C7 C8 121.3(3) . . ?
C3 C8 C7 121.2(3) . . ?
N6 C9 N5 114.2(3) . . ?
N5 C10 N1 109.1(2) . . ?
O4 C11 O1 121.5(2) . . ?
O4 C11 C12 119.9(2) . . ?
O1 C11 C12 118.6(2) . . ?
O4 C11 Cd1 63.92(14) . . ?
O1 C11 Cd1 57.78(13) . . ?
C12 C11 Cd1 172.35(19) . . ?
C13 C12 C17 120.2(3) . . ?
C13 C12 C11 119.7(2) . . ?
C17 C12 C11 120.0(2) . . ?
C14 C13 C12 120.0(2) . . ?
C13 C14 C15 119.6(2) . . ?
C16 C15 C14 120.2(2) . . ?
C16 C15 C18 119.6(2) . . ?
C14 C15 C18 120.2(2) . . ?
C17 C16 C15 120.2(3) . . ?
C16 C17 C12 119.8(3) . . ?
O3 C18 O2 121.3(2) . . ?
O3 C18 C15 118.9(2) . . ?
O2 C18 C15 119.8(2) . . ?
O3 C18 Cd1 63.10(14) . 4_475 ?
O2 C18 Cd1 58.21(13) . 4_475 ?
C15 C18 Cd1 176.05(19) . 4_475 ?
 
_refine_diff_density_max    3.616
_refine_diff_density_min   -0.530
_refine_diff_density_rms    0.125

_shelx_res_file
;
TITL pvl488_auto_a.res in P2(1)/c
    pvl488_auto_a.res
    created by SHELXL-2018/3 at 14:11:10 on 22-Mar-2022
REM Old TITL pvl488_auto in P2(1)/c
REM SHELXT solution in P2(1)/c: R1 0.131, Rweak 0.010, Alpha 0.041
REM <I/s>   0.723 for  126 systematic absences,  Orientation as input
REM Formula found by SHELXT:  C20 N6 O4 S Zn
CELL  0.71073   7.2138  19.4940  13.4656   90.000   92.921   90.000
ZERR   22.000   0.0003   0.0007   0.0005    0.000    0.003    0.000
LATT  1
SYMM -X, 1/2+Y, 1/2-Z
SFAC C H N O S Cd
UNIT 72 40 32 16 4 4
ACTA
TEMP -143
L.S. 10
BOND
LIST 6
FMAP 2
PLAN 20
WGHT    0.046600    1.734900
FVAR       0.24851
CD1   6    0.809901    0.608518    0.471835    11.00000    0.01057    0.01132 =
         0.00584    0.00014   -0.00174   -0.00024
S1    5    0.847154    0.685793    0.972172    11.00000    0.08360    0.01390 =
         0.00996   -0.00055   -0.00281   -0.01183
O1    4    0.527341    0.652804    0.428429    11.00000    0.01171    0.01738 =
         0.00938    0.00372   -0.00031    0.00078
O2    4    0.104402    0.862019    0.024759    11.00000    0.01156    0.01727 =
         0.00989    0.00469   -0.00076    0.00161
O3    4   -0.119838    0.808983    0.099295    11.00000    0.00981    0.01532 =
         0.01344    0.00166   -0.00127   -0.00028
O4    4    0.756842    0.690909    0.341215    11.00000    0.01145    0.01588 =
         0.01279    0.00263    0.00028    0.00079
N1    3    0.737368    0.510370    0.759467    11.00000    0.01695    0.01041 =
         0.00938   -0.00126    0.00091   -0.00201
N2    3    0.805641    0.533000    1.338858    11.00000    0.01894    0.01582 =
         0.00920   -0.00190   -0.00041    0.00217
N3    3    0.767783    0.508317    1.181601    11.00000    0.01879    0.01327 =
         0.00907    0.00137    0.00048    0.00145
N4    3    0.708145    0.451182    1.229693    11.00000    0.02983    0.01565 =
         0.01231    0.00334   -0.00133   -0.00230
N5    3    0.745625    0.536980    0.603059    11.00000    0.01861    0.01308 =
         0.00930   -0.00055    0.00055   -0.00280
N6    3    0.703030    0.450142    0.709452    11.00000    0.02677    0.01359 =
         0.01016   -0.00214    0.00132   -0.00390
N7    3    0.827904    0.633604    1.064054    11.00000    0.05051    0.01255 =
         0.01005   -0.00017   -0.00135   -0.00497
N8    3    0.812840    0.634294    0.879695    11.00000    0.04977    0.01517 =
         0.00909   -0.00095   -0.00064   -0.00322
C1    1    0.733691    0.468595    1.323724    11.00000    0.02278    0.01533 =
         0.01155    0.00148   -0.00031    0.00275
AFIX  43
H1    2    0.704665    0.438975    1.376759    11.00000   -1.20000
AFIX   0
C2    1    0.824310    0.556414    1.247510    11.00000    0.01951    0.01680 =
         0.00915   -0.00031   -0.00043   -0.00149
AFIX  43
H2    2    0.870547    0.600424    1.231281    11.00000   -1.20000
AFIX   0
C3    1    0.761463    0.509306    1.075867    11.00000    0.01830    0.01774 =
         0.00834   -0.00094    0.00029    0.00311
C4    1    0.791085    0.571597    1.024207    11.00000    0.02383    0.01486 =
         0.00835   -0.00137    0.00024    0.00090
C5    1    0.782278    0.571829    0.917723    11.00000    0.02332    0.01294 =
         0.00811   -0.00033    0.00036   -0.00151
C6    1    0.744242    0.510639    0.864765    11.00000    0.01837    0.01614 =
         0.00684   -0.00108    0.00010    0.00084
C7    1    0.716515    0.451674    0.916786    11.00000    0.02382    0.01462 =
         0.01229   -0.00283    0.00138   -0.00394
AFIX  43
H7    2    0.690872    0.410225    0.881612    11.00000   -1.20000
AFIX   0
C8    1    0.725263    0.451083    1.022585    11.00000    0.02398    0.01412 =
         0.00953    0.00363    0.00093   -0.00142
AFIX  43
H8    2    0.705463    0.409258    1.056670    11.00000   -1.20000
AFIX   0
C9    1    0.710511    0.468733    0.616228    11.00000    0.02125    0.01469 =
         0.01218   -0.00236    0.00272   -0.00241
AFIX  43
H9    2    0.693046    0.437490    0.562419    11.00000   -1.20000
AFIX   0
C10   1    0.761549    0.561587    0.694844    11.00000    0.02401    0.01204 =
         0.00964   -0.00020    0.00148    0.00011
AFIX  43
H10   2    0.786157    0.608069    0.712120    11.00000   -1.20000
AFIX   0
C11   1    0.585835    0.687480    0.356986    11.00000    0.01227    0.01031 =
         0.00882   -0.00273   -0.00071    0.00101
C12   1    0.447629    0.723018    0.288475    11.00000    0.01400    0.00978 =
         0.01114    0.00010   -0.00091    0.00050
C13   1    0.506454    0.755290    0.203443    11.00000    0.00990    0.01906 =
         0.01557    0.00480    0.00172    0.00088
AFIX  43
H13   2    0.634467    0.755637    0.190021    11.00000   -1.20000
AFIX   0
C14   1    0.377991    0.787008    0.138164    11.00000    0.01381    0.01780 =
         0.01016    0.00478    0.00278    0.00073
AFIX  43
H14   2    0.417882    0.809493    0.080412    11.00000   -1.20000
AFIX   0
C15   1    0.189256    0.785625    0.158043    11.00000    0.01071    0.01218 =
         0.01113    0.00220   -0.00169   -0.00004
C16   1    0.131051    0.752948    0.242558    11.00000    0.01111    0.01504 =
         0.01400    0.00327    0.00216    0.00132
AFIX  43
H16   2    0.002862    0.751912    0.255528    11.00000   -1.20000
AFIX   0
C17   1    0.259389    0.721821    0.308095    11.00000    0.01232    0.01604 =
         0.01014    0.00371    0.00287   -0.00113
AFIX  43
H17   2    0.219462    0.699747    0.366163    11.00000   -1.20000
AFIX   0
C18   1    0.050350    0.820511    0.089792    11.00000    0.01180    0.00973 =
         0.00771   -0.00244   -0.00038    0.00112
HKLF 4




REM  pvl488_auto_a.res in P2(1)/c
REM wR2 = 0.0856, GooF = S = 1.048, Restrained GooF = 1.048 for all data
REM R1 = 0.0326 for 3692 Fo > 4sig(Fo) and 0.0391 for all 4236 data
REM 289 parameters refined using 0 restraints

END

WGHT      0.0466      1.7349

REM Highest difference peak  3.616,  deepest hole -0.530,  1-sigma level  0.125
Q1    1   0.5579  0.8922  0.0866  11.00000  0.05    3.62
Q2    1   0.5278  0.6871  0.0873  11.00000  0.05    0.96
Q3    1   0.4870  0.6882  0.4620  11.00000  0.05    0.51
Q4    1  -0.1481  0.8416  0.1260  11.00000  0.05    0.48
Q5    1   0.6081  0.8075  0.2225  11.00000  0.05    0.47
Q6    1   0.5180  0.7063  0.3230  11.00000  0.05    0.47
Q7    1   0.2752  0.7850  0.1508  11.00000  0.05    0.46
Q8    1   0.5550  0.5253  0.7209  11.00000  0.05    0.45
Q9    1   0.4487  0.3690  0.8235  11.00000  0.05    0.43
Q10   1   0.1302  0.8040  0.1220  11.00000  0.05    0.42
Q11   1   0.5517  0.3201  1.0039  11.00000  0.05    0.41
Q12   1   0.0186  0.8840  0.0146  11.00000  0.05    0.40
Q13   1   0.4388  0.7646  0.1650  11.00000  0.05    0.40
Q14   1   0.6201  0.5400  0.4496  11.00000  0.05    0.40
Q15   1   0.7613  0.5732  0.9650  11.00000  0.05    0.40
Q16   1   0.6450  0.4474  1.3533  11.00000  0.05    0.38
Q17   1   0.6196  0.4583  0.8229  11.00000  0.05    0.38
Q18   1   0.1613  0.7794  0.2010  11.00000  0.05    0.36
Q19   1   0.5209  0.6359  0.4265  11.00000  0.05    0.36
Q20   1   0.5403  0.4302  1.4332  11.00000  0.05    0.36
;
_shelx_res_checksum   35415

_shelx_hkl_file
;
   0   0   2 1066.98   23.57
   0   0   3   -0.70    0.94
   0   0   4  564.32   14.63
   0   0  -4  583.53   14.85
   0   0   5   -0.19    1.27
   0   0  -5    0.38    0.85
   0   0  -6  114.61    5.58
   0   0   6  132.96    5.71
   0   0   7   -0.33    1.28
   0   0  -7   -0.15    1.03
   0   0  -8   20.93    2.62
   0   0   8   25.95    2.81
   0   0   9    0.97    1.33
   0   0  -9    0.66    1.10
   0   0 -10   21.12    2.85
   0   0  10   23.41    3.12
   0   0  11   -2.42    1.50
   0   0  12   78.24    6.00
   0   0  13   -0.12    1.54
   0   0  14  448.49   17.61
   0   0  15    1.95    1.99
   0   0  16  599.73   22.45
   0   1   1  751.23   16.46
   0  -1  -2   87.63    3.07
   0  -1   2   88.55    3.01
   0   1  -2   88.00    2.94
   0   1   2   93.44    3.14
   0   1  -3    1.93    0.84
   0  -1   3    3.53    1.03
   0  -1  -3    3.20    0.91
   0  -1   4  107.59    4.45
   0   1  -4  111.44    4.32
   0  -1  -4  110.21    4.49
   0  -1  -5  336.26   10.06
   0   1   5  331.14   10.12
   0  -1   5  320.20    9.95
   0   1  -6  738.69   19.63
   0  -1  -6  744.42   19.65
   0   1   6  746.47   19.51
   0  -1   6  748.90   19.40
   0  -1  -7  145.59    6.74
   0   1  -7  149.38    6.65
   0   1   7  158.67    6.71
   0  -1   7  143.17    6.39
   0   1  -8  940.53   25.19
   0   1   8  947.29   24.99
   0  -1  -8  961.38   25.36
   0  -1   8  938.47   24.80
   0  -1  -9    4.24    1.43
   0  -1   9    2.62    1.47
   0   1  -9    3.93    1.58
   0   1   9    3.21    1.53
   0   1  10  535.06   17.22
   0  -1  10  524.12   17.05
   0   1 -10  551.19   17.62
   0  -1  11    2.81    1.59
   0   1  11    4.06    1.80
   0  -1  12  154.99    8.59
   0   1  12  155.33    8.65
   0   1  13  236.06   11.48
   0  -1  13  224.85   11.16
   0  -1  14   59.89    5.78
   0   1  14   68.24    6.23
   0   1  15  168.23   10.33
   0  -1  15  169.69   10.21
   0   1  16   31.22    4.82
   0  -1  16   30.63    4.54
   0   2   0  598.65   13.21
   0   2   1   32.59    1.46
   0   2   1   32.89    1.53
   0  -2   1   33.33    1.39
   0   2  -1   31.97    1.35
   0  -2   2    0.64    0.69
   0  -2  -2    1.54    0.70
   0   2   2    1.95    0.81
   0   2  -2    0.91    0.60
   0  -2  -3   88.68    3.59
   0   2   3   84.08    3.57
   0   2  -3   83.56    3.40
   0  -2   3   85.19    3.37
   0   2  -4   43.49    2.58
   0  -2   4   42.45    2.67
   0   2   4   51.47    3.11
   0  -2  -4   50.61    2.93
   0   2  -5  623.55   16.37
   0  -2   5  623.49   16.41
   0  -2  -5  663.17   16.82
   0  -2   6   48.73    3.25
   0   2  -6   42.48    3.12
   0  -2  -6   42.82    3.19
   0   2   7 1047.46   26.92
   0  -2   7 1081.48   26.77
   0  -2  -7 1065.08   27.13
   0  -2  -8    0.99    1.16
   0  -2   8    2.17    1.46
   0   2  -8    2.50    1.22
   0   2   8    0.31    1.30
   0   2   9  447.45   14.92
   0  -2   9  456.15   14.80
   0   2  -9  462.32   15.10
   0  -2  -9  471.71   15.31
   0   2  10    2.41    1.62
   0   2 -10    2.93    1.48
   0  -2  10    2.76    1.53
   0   2  11   64.59    5.10
   0  -2  11   54.27    4.68
   0  -2  12    9.28    2.60
   0   2  12    7.70    2.29
   0  -2  13   39.36    4.43
   0   2  13   39.08    4.66
   0   2  14   34.50    4.47
   0  -2  14   41.75    4.77
   0  -2  15   49.61    5.59
   0   2  15   52.55    5.76
   0   2  16    5.97    2.04
   0  -2  16    7.69    2.87
   0   3   0    0.45    0.45
   0  -3   0    0.15    0.59
   0   3   1 1626.96   36.28
   0  -3   1 1692.11   36.02
   0   3  -1 1672.59   36.00
   0  -3  -1 1702.67   36.34
   0   3   2  276.20    7.08
   0  -3  -2  250.87    6.85
   0  -3   2  245.24    6.62
   0   3  -2  244.65    6.66
   0   3   3    0.60    1.04
   0  -3   3    0.04    0.88
   0   3  -3    2.03    0.86
   0  -3  -3    1.16    0.86
   0   3  -4  316.53    9.03
   0  -3  -4  325.43    9.38
   0  -3   4  299.72    9.07
   0   3   4  336.28    9.56
   0   3   5   32.49    2.70
   0  -3   5   28.26    2.41
   0   3  -5   28.13    2.26
   0  -3  -5   28.46    2.42
   0   3  -6  274.93    9.26
   0  -3  -6  282.74    9.63
   0  -3   6  297.54    9.36
   0  -3   7    0.92    1.15
   0  -3  -7    2.01    1.20
   0   3  -7    0.93    1.00
   0  -3  -8  384.75   12.88
   0  -3   8  388.92   12.43
   0   3   8  356.16   12.52
   0  -3   9    4.19    1.77
   0  -3  -9    1.81    1.12
   0   3  -9    4.43    1.58
   0   3   9    3.75    1.72
   0   3 -10  653.55   20.02
   0   3  10  649.62   20.04
   0  -3  10  644.01   19.57
   0   3  11    2.13    1.54
   0  -3  11    2.90    1.40
   0  -3  12   90.31    6.37
   0   3  12  102.94    6.97
   0   3  13   40.18    4.62
   0  -3  13   41.39    4.53
   0  -3  14  146.47    9.07
   0   3  14  151.05    9.47
   0  -3  15   20.49    3.68
   0   3  15   28.06    4.42
   0   3  16   18.38    3.86
   0  -3  16    9.91    2.90
   0  -4   0    3.72    0.86
   0   4   0    4.74    0.85
   0  -4   1    2.00    0.74
   0   4   1    1.94    0.74
   0  -4  -1    3.16    1.02
   0   4  -1    3.29    0.72
   0  -4   2 6678.07  139.80
   0   4   2 6564.89  140.25
   0   4  -2 6621.22  139.75
   0   4   2 6627.12  139.95
   0   4   3  500.65   12.51
   0  -4   3  451.76   12.00
   0   4  -3  484.21   12.04
   0  -4  -3  462.70   12.31
   0   4   4  802.86   19.52
   0   4  -4  792.46   18.97
   0  -4  -4  789.36   19.36
   0  -4   4  738.45   18.98
   0  -4  -5  434.53   12.47
   0   4  -5  426.58   12.13
   0   4   5  439.26   12.56
   0  -4   5  429.25   12.03
   0  -4   6   87.54    4.65
   0   4  -6   87.95    4.57
   0   4   6  108.40    5.26
   0  -4  -6   98.09    4.99
   0   4  -7  165.37    6.82
   0  -4  -7  168.42    7.25
   0  -4   7  162.77    6.80
   0  -4  -8    7.80    1.71
   0   4  -8    6.23    1.62
   0  -4   8    4.03    1.52
   0  -4   9  497.87   15.65
   0   4   9  486.52   16.02
   0  -4  -9  512.98   16.32
   0   4 -10   30.96    3.47
   0  -4  10   26.89    3.20
   0   4  10   28.25    3.48
   0   4  11  342.85   13.42
   0  -4  11  318.59   12.57
   0   4  12  176.31    9.75
   0  -4  12  198.28    9.70
   0   4  13  226.24   11.37
   0  -4  13  201.10   10.42
   0   4  14  156.19    9.64
   0  -4  14  150.41    9.17
   0   4  15   40.59    5.20
   0  -4  15   28.76    4.17
   0  -4  16  257.24   13.31
   0   4  16  262.09   13.97
   0  -5   0    1.03    0.86
   0   5   0    0.77    0.72
   0   5  -1  547.62   13.39
   0  -5  -1  569.73   13.77
   0   5   1  558.82   13.72
   0  -5   1  570.34   13.46
   0   5   2  139.91    4.78
   0   5   2  138.91    4.94
   0   5  -2  135.03    4.50
   0  -5   2  123.96    4.40
   0   5   3 3876.16   86.18
   0   5   3 4096.51   85.90
   0  -5   3 3968.85   85.53
   0   5  -3 4000.17   85.48
   0   5  -4   45.03    2.72
   0  -5   4   44.12    2.79
   0   5   4   53.17    3.25
   0  -5  -4   48.72    3.10
   0   5   5 1353.10   31.28
   0   5  -5 1275.54   30.66
   0  -5  -5 1331.55   31.18
   0  -5   5 1247.95   30.34
   0   5  -6    1.09    0.91
   0  -5  -6    2.29    1.10
   0  -5   6   -0.21    1.10
   0   5   6    1.43    1.28
   0  -5   7   51.39    3.61
   0   5  -7   55.38    3.69
   0  -5  -7   54.10    3.91
   0  -5  -8  132.06    6.69
   0  -5   8  128.86    6.22
   0   5  -8  135.16    6.45
   0  -5   9    2.25    1.39
   0  -5  -9    1.20    1.32
   0   5  -9   -0.29    1.13
   0   5  10    1.95    1.28
   0  -5  10    8.57    1.93
   0   5  11  114.33    7.49
   0  -5  11  138.66    7.43
   0  -5  12   59.17    5.08
   0   5  12   64.68    5.65
   0  -5  13  362.51   14.62
   0   5  13  372.64   15.46
   0   5  14    4.57    2.50
   0  -5  14    0.21    1.96
   0  -5  15  314.41   14.43
   0   5  15  320.91   15.19
   0  -5  16    2.09    2.08
   0   5  16    8.74    2.89
   0  -6   0    0.24    0.96
   0   6   0    1.68    0.77
   0  -6  -1   15.47    1.67
   0   6  -1   16.20    1.42
   0  -6   1   15.12    1.50
   0   6   1   13.54    1.54
   0   6   2    0.32    0.98
   0  -6  -2   -0.13    1.10
   0   6   2    0.42    0.91
   0   6  -2    0.82    0.71
   0   6   3  682.22   18.01
   0  -6   3  705.30   17.41
   0   6  -3  718.11   17.48
   0   6   3  759.27   17.94
   0   6  -4 1096.97   25.98
   0  -6   4 1070.06   25.92
   0   6   4 1111.81   26.80
   0   6   4 1132.60   26.51
   0  -6   5 1111.48   27.11
   0   6   5 1174.16   27.77
   0   6  -5 1123.54   27.14
   0  -6  -5 1130.13   27.64
   0  -6  -6   37.60    3.14
   0   6  -6   31.88    2.67
   0  -6   6   32.84    2.79
   0   6   6   42.54    3.34
   0  -6  -7  495.83   15.12
   0  -6   7  484.84   14.49
   0   6  -7  496.56   14.52
   0   6   7  487.64   15.06
   0  -6   8    0.71    1.12
   0  -6  -8    2.97    1.33
   0   6  -8    0.94    0.97
   0  -6   9  571.01   17.19
   0   6  -9  548.94   17.20
   0  -6  -9  590.04   18.09
   0  -6  10    4.60    1.80
   0   6  10    3.15    1.75
   0  -6  11  329.32   12.60
   0   6  11  307.38   13.06
   0   6  12  101.79    7.23
   0  -6  12  105.29    6.89
   0  -6  13  282.87   12.66
   0   6  13  291.85   13.50
   0  -6  14   34.59    4.32
   0   6  14   37.78    4.98
   0  -6  15   60.36    6.25
   0   6  15   57.35    6.07
   0  -6  16   61.29    6.19
   0  -7   0    1.55    1.20
   0   7   0    2.79    0.90
   0  -7  -1    3.14    1.27
   0   7  -1    3.04    0.96
   0  -7   1    2.33    1.05
   0   7   1    3.65    1.01
   0  -7  -2   42.71    2.87
   0   7   2   43.12    2.77
   0   7  -2   47.09    2.59
   0  -7   2   37.22    2.45
   0   7   3 1792.16   40.87
   0   7   3 1760.17   41.41
   0  -7   3 1844.00   40.67
   0   7  -3 1844.70   40.69
   0   7  -4  870.30   21.50
   0  -7   4  886.67   21.59
   0   7   4  896.04   22.03
   0   7   4  875.61   22.42
   0  -7   5    0.70    0.97
   0   7   5    1.79    1.23
   0   7  -5   -0.43    0.87
   0   7   5   -0.69    1.04
   0  -7  -6  169.94    7.27
   0   7   6  181.57    7.42
   0   7   6  172.27    7.55
   0   7  -6  184.27    7.04
   0  -7   6  179.53    6.94
   0  -7   7    3.57    1.19
   0   7  -7    1.75    0.99
   0  -7  -7    2.27    1.34
   0   7   7    1.60    1.30
   0  -7   8  109.93    5.75
   0  -7  -8  109.31    6.12
   0   7  -8  105.35    5.67
   0  -7   9   -0.37    1.11
   0  -7  -9   -0.40    1.15
   0   7  -9   -0.70    1.09
   0  -7  10   73.14    5.17
   0   7 -10   94.86    5.79
   0   7  11    1.01    1.57
   0  -7  11    3.69    1.57
   0  -7  12  536.66   18.37
   0   7  12  539.07   19.38
   0  -7  13    0.99    1.57
   0   7  13    0.26    1.68
   0  -7  14   52.93    5.45
   0   7  14   67.67    6.38
   0   7  15   99.17    8.16
   0  -7  15   84.02    7.13
   0  -7  16    2.23    1.64
   0  -8   0    8.03    1.34
   0   8   0    7.98    1.24
   0   8  -1   13.96    1.59
   0   8   1   10.71    1.46
   0  -8   1   12.28    1.57
   0  -8  -1   12.97    1.63
   0   8   2  107.68    4.83
   0  -8  -2  114.17    4.94
   0  -8   2  118.29    4.64
   0   8  -2  111.57    4.50
   0   8   3    4.18    1.29
   0   8  -3    4.50    1.12
   0   8   3    4.62    1.27
   0  -8   3    3.80    1.05
   0   8   4  323.93   10.12
   0   8  -4  332.63    9.82
   0   8   4  306.51   10.42
   0  -8   4  324.92    9.76
   0   8   5  509.71   15.05
   0   8  -5  503.18   14.06
   0  -8   5  499.92   14.07
   0   8   5  498.73   14.54
   0   8   6   24.77    2.96
   0  -8   6   27.20    2.59
   0   8   6   25.96    2.66
   0   8  -6   28.12    2.55
   0   8  -7  475.22   14.35
   0   8   7  445.73   14.65
   0   8   7  491.04   15.43
   0  -8   7  479.08   14.22
   0   8   8    0.68    1.02
   0  -8  -8    0.31    1.00
   0  -8   8    0.38    1.07
   0   8  -8    2.01    1.31
   0   8   8    1.37    1.42
   0   8  -9  649.54   19.01
   0  -8   9  616.78   18.64
   0   8 -10   25.62    3.24
   0  -8  10   24.78    3.00
   0  -8  11  699.49   21.49
   0   8  12   72.91    6.24
   0  -8  12   71.22    5.67
   0   8  13  240.93   12.34
   0  -8  13  247.12   11.68
   0   8  14   57.41    5.89
   0  -8  14   50.78    5.26
   0   8  15   19.10    3.87
   0  -8  15    5.95    2.41
   0  -8  16   12.25    3.08
   0   9   0   -0.59    0.92
   0  -9   0   -0.52    1.02
   0   9  -1 1078.21   25.92
   0   9   1 1086.80   26.39
   0  -9  -1 1100.22   26.35
   0  -9   1 1121.23   26.18
   0   9   2    6.26    1.40
   0   9  -2    9.40    1.31
   0  -9   2    6.44    1.31
   0  -9  -2    7.32    1.49
   0   9   3 1598.35   36.90
   0   9  -3 1586.71   36.62
   0   9   3 1595.66   37.69
   0  -9   3 1602.69   36.70
   0  -9   4   35.90    2.67
   0   9   4   36.89    3.08
   0   9   4   39.89    2.97
   0   9  -4   36.89    2.70
   0   9   5  870.80   22.46
   0   9  -5  856.40   21.80
   0  -9   5  839.06   21.76
   0   9   5  866.46   23.00
   0   9   6  370.83   12.45
   0   9  -6  381.58   11.98
   0  -9   6  405.98   12.18
   0   9   6  375.01   12.94
   0   9  -7  179.89    7.63
   0  -9   7  161.63    7.17
   0   9   7  179.79    8.31
   0   9   7  186.80    8.22
   0   9   8  243.27   10.29
   0  -9   8  227.00    9.07
   0   9  -8  236.94    9.26
   0   9   8  222.54    9.59
   0  -9   9    3.01    1.40
   0   9  -9    4.11    1.38
   0   9 -10    6.48    1.97
   0  -9  10    7.28    1.98
   0  -9  11  120.22    7.12
   0  -9  12   33.79    3.95
   0   9  12   48.73    5.21
   0  -9  13  188.16    9.90
   0   9  13  175.75   10.46
   0  -9  14   28.64    4.02
   0   9  14   30.16    4.45
   0  -9  15  399.07   16.79
   0   9  15  422.85   18.35
   0  -9  16    7.98    2.28
   0 -10   0  337.57   10.25
   0  10   0  328.73   10.12
   0  10  -1    8.93    1.39
   0 -10  -1    6.73    1.59
   0  10   1    6.51    1.32
   0 -10   1    8.69    1.44
   0 -10  -2  865.95   22.21
   0  10   2  843.49   22.10
   0 -10   2  887.46   21.64
   0  10  -2  865.31   21.52
   0 -10   3  209.78    7.52
   0  10  -3  221.19    7.55
   0  10   3  217.09    8.25
   0  10   3  215.68    7.66
   0 -10   4   51.49    3.33
   0  10   4   59.16    3.65
   0  10  -4   53.23    3.35
   0  10   4   56.05    3.91
   0  10   5  429.51   13.09
   0  10   5  419.03   13.57
   0 -10   5  423.31   12.57
   0  10  -5  403.72   12.45
   0 -10   6  473.77   14.78
   0  10   6  524.02   16.16
   0  10  -6  503.32   14.91
   0  10   6  521.40   15.56
   0  10  -7  328.27   11.31
   0  10   7  341.41   12.47
   0  10   7  331.18   11.82
   0 -10   7  315.92   11.12
   0  10  -8   33.86    3.33
   0  10   8   37.13    3.77
   0 -10   8   30.22    3.11
   0  10  -9    2.40    1.25
   0 -10   9   -1.19    1.35
   0  10   9   -1.23    1.62
   0 -10  10   69.72    5.23
   0 -10  11  206.59    9.70
   0 -10  12   71.02    5.72
   0 -10  13   72.36    6.00
   0  10  13   75.43    6.79
   0 -10  14  182.33   10.21
   0  10  14  183.61   11.20
   0 -10  15   37.50    4.81
   0 -10  16  308.64   14.70
   0  11   0   -0.33    0.75
   0 -11   0    1.04    0.99
   0 -11  -1    1.25    1.27
   0  11   1    1.33    1.06
   0 -11   1    0.67    0.87
   0  11  -1    1.20    0.85
   0 -11  -2   53.63    3.68
   0 -11   2   54.61    3.42
   0  11   2   54.10    3.67
   0  11  -2   54.19    3.36
   0  11  -3  111.37    5.14
   0  11   3  117.17    5.29
   0  11   3  113.36    5.67
   0 -11   3  114.05    5.19
   0  11   4   69.45    4.54
   0  11  -4   61.06    3.81
   0  11   4   72.75    4.21
   0 -11   4   64.87    3.85
   0  11   5  157.97    7.44
   0  11  -5  152.32    6.53
   0  11   5  154.34    6.82
   0 -11   5  151.05    6.49
   0  11   6  616.90   18.10
   0  11   6  605.98   18.63
   0 -11   6  622.17   17.49
   0  11  -6  626.12   17.62
   0  11  -7    4.83    1.48
   0  11   7    4.85    1.57
   0 -11   7    5.89    1.51
   0  11   7    7.40    1.86
   0  11   8  839.10   24.39
   0  11  -8  874.04   23.79
   0 -11   8  861.35   23.60
   0  11   9    0.45    1.30
   0  11  -9    0.15    0.93
   0 -11   9    0.04    1.25
   0 -11  10  930.23   26.20
   0 -11  11    4.97    1.99
   0 -11  12  314.14   13.15
   0 -11  13    7.88    2.34
   0  11  13   12.05    3.23
   0  11  14   72.09    6.95
   0 -11  14   72.18    6.44
   0 -11  15   12.81    3.00
   0 -11  16   21.18    3.85
   0  12   0  528.34   15.21
   0 -12   0  552.19   15.44
   0  12   1   10.64    1.75
   0  12  -1    9.81    1.52
   0 -12  -1   12.26    1.88
   0 -12   1   10.86    1.76
   0 -12  -2   53.42    3.76
   0  12   2   54.51    3.80
   0  12  -2   49.95    3.37
   0 -12   2   62.88    3.80
   0  12   3   81.91    5.01
   0 -12   3   86.00    4.59
   0  12   3   94.99    4.72
   0  12  -3   88.53    4.60
   0  12   4    1.37    1.18
   0 -12   4    0.84    1.01
   0  12  -4    1.82    1.07
   0  12   4    2.09    1.28
   0 -12   5    2.05    1.21
   0  12   5    2.52    1.25
   0  12   5    4.30    1.52
   0  12  -5    2.38    0.95
   0 -12   6   72.55    4.54
   0  12   6   76.00    5.25
   0  12   6   78.88    4.98
   0  12  -6   69.40    4.50
   0  12   7  518.80   16.86
   0 -12   7  556.53   16.42
   0  12  -7  540.81   16.39
   0  12  -8   12.52    2.12
   0 -12   8   11.51    2.14
   0  12   8   11.06    2.38
   0  12   9  490.86   16.95
   0 -12   9  482.07   15.91
   0  12  -9  483.68   16.00
   0 -12  10   -0.77    1.25
   0 -12  11  174.27    8.97
   0 -12  12   31.35    3.90
   0 -12  13   56.66    5.35
   0  12  13   68.96    6.52
   0 -12  14   14.35    3.14
   0  12  14   33.73    4.87
   0 -12  15   38.26    4.90
   0 -12  16   73.09    6.81
   0  13   0   -0.81    0.99
   0 -13   0    1.73    1.02
   0  13  -1  745.61   20.45
   0 -13   1  802.05   20.78
   0  13   1  762.65   20.84
   0 -13  -1  795.38   21.06
   0  13  -2   43.81    3.24
   0  13   2   42.14    3.50
   0 -13  -2   47.53    3.68
   0 -13   2   42.30    3.30
   0  13  -3    4.82    1.28
   0  13   3    5.65    1.33
   0  13   3    7.65    1.66
   0 -13   3    6.43    1.48
   0  13   4  243.78    9.06
   0  13  -4  237.42    8.85
   0  13   4  237.58    9.71
   0 -13   4  250.51    9.07
   0  13  -5    9.89    1.76
   0  13   5    9.32    1.99
   0  13   5   11.63    1.98
   0 -13   5    6.99    1.50
   0  13  -6   97.77    5.36
   0  13   6   95.28    5.69
   0 -13   6   91.45    5.29
   0  13  -7  118.43    6.32
   0  13   7  114.35    6.59
   0 -13   7  113.33    6.24
   0 -13   8  699.81   20.41
   0  13   8  678.06   21.18
   0  13  -8  703.25   20.53
   0 -13   9    0.13    1.18
   0  13   9   -0.40    1.58
   0 -13  10  196.85    9.28
   0 -13  11    0.19    1.43
   0 -13  12   41.79    4.49
   0 -13  13   31.48    4.11
   0 -13  14   44.18    5.23
   0 -13  15  198.37   11.22
   0 -13  16   16.16    3.53
   0 -14   0  798.31   21.85
   0  14   0  825.33   21.89
   0 -14   1    0.16    1.05
   0  14  -1    1.16    0.91
   0 -14  -1   -1.31    1.34
   0  14   1   -0.52    0.99
   0  14   2  593.13   17.34
   0 -14  -2  582.46   17.31
   0  14  -2  555.37   16.42
   0 -14   2  578.99   16.70
   0  14   3   36.08    3.04
   0  14   3   34.10    3.34
   0 -14   3   45.28    3.52
   0  14  -3   39.84    3.24
   0  14   4  338.05   11.72
   0  14   4  366.52   12.88
   0  14  -4  352.46   11.77
   0 -14   4  362.23   12.01
   0  14  -5    3.89    1.20
   0  14   5    6.53    1.70
   0  14   5    3.58    1.62
   0 -14   5    1.89    1.19
   0  14   6  124.84    6.80
   0  14  -6  131.05    6.64
   0 -14   6  137.29    6.69
   0  14  -7    6.06    1.66
   0 -14   7    6.72    1.79
   0  14   7    6.76    1.89
   0  14   8   58.57    5.00
   0 -14   8   53.43    4.40
   0  14  -8   52.73    4.34
   0 -14   9   11.32    2.17
   0  14   9   18.80    3.06
   0 -14  10    1.36    1.44
   0 -14  11   63.21    5.22
   0 -14  12   77.85    6.17
   0 -14  13    8.92    2.38
   0 -14  14  376.27   15.87
   0 -14  15    2.95    2.07
   0 -15   0    2.15    1.44
   0  15   0    1.94    1.23
   0 -15   1  718.90   20.09
   0 -15  -1  713.58   20.28
   0  15   1  700.62   20.15
   0  15  -1  715.07   19.91
   0 -15   2   33.99    3.15
   0  15   2   33.46    3.32
   0 -15  -2   34.91    3.42
   0  15  -2   38.24    3.28
   0  15   3   96.63    5.25
   0 -15   3   96.88    5.46
   0  15   3   97.95    5.83
   0  15  -3   90.66    5.22
   0  15   4   75.92    5.25
   0  15  -4   65.26    4.43
   0 -15   4   72.25    4.76
   0  15   4   74.23    4.76
   0  15   5   68.25    4.73
   0  15  -5   62.74    4.39
   0 -15   5   59.48    4.35
   0  15   6  370.23   13.25
   0  15  -6  367.24   12.75
   0 -15   6  369.78   12.90
   0  15  -7    0.20    0.86
   0 -15   7    0.52    1.10
   0  15   8 1048.92   30.30
   0 -15   8 1092.60   29.57
   0  15  -8 1146.77   29.89
   0  15   9   -0.08    1.48
   0 -15   9    1.33    1.18
   0 -15  10  489.98   17.00
   0 -15  11    7.67    2.16
   0 -15  12  164.01    9.29
   0 -15  13   70.70    6.08
   0 -15  14  135.64    8.94
   0 -15  15   97.92    7.80
   0 -16   0  191.22    8.44
   0  16   0  205.19    8.55
   0 -16   1   42.11    3.69
   0  16   1   44.05    3.77
   0  16  -1   43.31    3.63
   0 -16  -1   38.34    3.68
   0 -16  -2   10.14    2.21
   0  16   2    6.55    1.62
   0 -16   2   12.00    2.09
   0  16  -2   10.62    1.82
   0  16  -3   92.59    5.36
   0  16   3   86.79    5.15
   0 -16   3   95.14    5.54
   0  16   3   93.82    5.85
   0  16   4   49.18    3.90
   0 -16   4   53.45    4.19
   0  16  -4   50.64    3.90
   0  16   5  171.06    8.00
   0  16  -5  168.84    7.83
   0 -16   5  176.04    8.03
   0 -16   6    6.22    1.82
   0  16   6    8.56    2.19
   0  16  -6    7.18    1.71
   0 -16   7  249.62   10.27
   0  16   7  241.03   10.61
   0  16  -7  234.49    9.98
   0  16   8   10.46    2.37
   0 -16   8    5.78    1.70
   0  16   9  403.80   15.95
   0 -16   9  468.84   15.90
   0 -16  10    0.53    1.16
   0 -16  11  240.36   11.26
   0 -16  12   -0.73    1.60
   0 -16  13   88.69    6.98
   0 -16  14    8.41    2.65
   0 -17   0   -1.05    1.16
   0  17   0    2.27    1.14
   0  17   1    2.58    1.19
   0  17  -1    3.07    1.27
   0 -17   1    1.42    1.13
   0 -17  -1    2.86    1.46
   0  17  -2   22.30    2.65
   0 -17   2   23.60    2.85
   0  17   2   21.20    2.81
   0 -17  -2   23.86    3.05
   0  17  -3   86.86    5.29
   0  17   3   82.40    5.05
   0 -17   3   82.06    5.33
   0  17  -4   95.18    5.63
   0 -17   4   92.80    5.77
   0  17   4   90.30    5.51
   0 -17   5   46.17    4.13
   0  17   5   44.37    3.96
   0  17  -5   45.93    3.91
   0  17   6  610.07   19.68
   0 -17   6  669.58   19.78
   0  17  -6  640.54   19.45
   0  17   7   -0.77    1.31
   0 -17   7    0.61    1.33
   0  17   8   43.12    4.38
   0 -17   8   40.29    3.97
   0 -17   9    3.45    1.70
   0  17   9    5.62    1.99
   0 -17  10  122.15    7.49
   0 -17  11    7.71    2.53
   0 -17  12  181.41    9.92
   0 -17  13   54.36    5.47
   0  18   0  189.76    8.67
   0 -18   0  209.74    9.27
   0 -18  -1   14.14    2.52
   0  18  -1   15.48    2.30
   0 -18   1   10.35    2.17
   0  18   2   90.59    5.32
   0 -18  -2   80.75    5.75
   0 -18   2   98.22    5.97
   0  18  -2   90.87    5.59
   0  18  -3   33.59    3.41
   0  18   3   36.65    3.50
   0 -18   3   36.92    3.68
   0 -18   4  389.10   13.70
   0  18  -4  383.61   13.46
   0  18   4  369.81   13.21
   0  18  -5  128.88    6.99
   0  18   5  118.82    6.80
   0 -18   5  127.99    7.07
   0 -18   6   33.97    3.56
   0  18   6   31.49    3.66
   0  18   7    9.26    2.25
   0 -18   7   11.61    2.41
   0  18   8    1.87    1.56
   0 -18   8    0.66    1.21
   0 -18   9   20.36    3.14
   0  18   9   20.39    3.31
   0 -18  10    0.03    1.37
   0 -18  11   63.58    5.63
   0 -18  12   61.56    5.82
   0 -19   0   -0.92    1.49
   0 -19  -1  410.66   14.92
   0 -19   1  423.29   14.80
   0 -19   2    0.73    1.32
   0 -19  -2    0.87    1.33
   0  19   2    2.17    1.10
   0 -19   3  504.69   16.88
   0  19   3  518.02   16.30
   0  19   4   23.49    2.95
   0 -19   4   25.41    3.19
   0  19   5  176.25    8.67
   0 -19   5  185.28    8.91
   0  19   6   39.54    4.05
   0 -19   6   42.48    4.14
   0 -19   7   16.20    2.80
   0  19   7   20.64    3.09
   0  19   8    0.34    1.37
   0 -19   8   -1.90    1.60
   0 -19   9    3.87    1.95
   0  19   9    1.80    1.71
   0 -19  10   50.63    4.96
   0 -19  11   71.21    6.07
   0 -20   0  116.66    7.04
   0 -20  -1    5.96    2.06
   0 -20   1    5.79    1.93
   0  20   2   14.01    2.19
   0 -20   2   14.52    2.47
   0  20   3  135.56    7.08
   0 -20   3  126.48    7.34
   0 -20   4  106.03    6.72
   0  20   4  115.16    6.63
   0  20   5  525.38   17.50
   0 -20   5  526.78   17.67
   0  20   6   -0.35    1.40
   0 -20   6   -1.17    1.42
   0  20   7  248.13   11.52
   0 -20   7  276.01   11.74
   0 -20   8    8.56    2.52
   0  20   8    3.46    1.73
   0 -20   9  194.10    9.90
   0  20   9  172.20   10.02
   0 -21   0    0.13    1.30
   0 -21   1   39.56    4.17
   0 -21  -1   40.90    4.32
   0  21   2    9.10    1.90
   0 -21   2   14.21    2.73
   0  21   3   12.97    2.27
   0 -21   3   14.09    2.70
   0 -21   4  268.34   11.50
   0  21   4  258.98   10.90
   0 -21   5   28.25    3.64
   0  21   5   25.05    3.29
   0  21   6  115.58    7.31
   0 -21   6  132.38    7.76
   0  21   7    5.53    1.94
   0 -21   7    3.75    1.71
   0  21   8  153.66    9.13
   0 -21   8  184.27    9.56
   0  21   9    1.99    2.12
   0 -22   0    4.03    2.04
   0 -22   1    5.59    1.91
   0 -22  -1    1.83    1.63
   0  22   2   52.57    4.32
   0 -22   2   59.06    5.08
   0  22   3   65.37    5.01
   0 -22   3   69.51    5.55
   0 -22   4   48.41    4.64
   0  22   4   41.52    4.10
   0 -22   5   16.27    2.74
   0  22   5   11.51    2.40
   0 -22   6   24.31    3.50
   0  22   6   30.55    3.82
   0  22   7   71.17    5.87
   0 -23   0   -1.47    1.61
   0 -23   1  316.01   13.38
   0 -23   2    5.74    1.94
   0 -23   3  151.04    8.59
   0 -23   4   20.00    3.21
   0 -23   5   53.30    5.04
   0 -24   0  284.74   12.92
   0 -24   1    0.64    1.64
   0 -24   2  242.78   11.56
   0 -24   3   58.26    5.43
   0 -25   0    2.11    2.01
  -1   0  17    2.96    2.36
  -1   0  16   17.45    3.62
  -1   0  15   -0.54    2.08
  -1   0  14   23.04    3.81
  -1   0  13   -2.32    2.26
  -1   0  12  133.37    7.78
  -1   0  11    0.70    1.39
   1   0 -10  558.79   17.71
  -1   0  10  527.77   17.02
  -1   0   9    1.73    1.35
   1   0  -9    0.03    1.05
  -1   0   8 4069.21   90.13
   1   0  -8 4063.00   90.70
  -1   0   7    0.01    1.18
   1   0  -7    1.25    1.13
   1   0  -6  266.75    9.05
  -1   0   5    0.92    1.15
   1   0  -5   -0.18    0.86
  -1   0   4 1943.75   42.87
   1   0  -4 1890.28   42.77
   1   0  -3    0.35    0.74
  -1   0   3    0.61    0.98
  -1   0   2 2951.00   62.63
  -1   0   2 2906.75   62.38
   1   0  -1   -0.27    0.46
  -1   0   1    0.56    0.45
  -1   0   0  493.41   11.23
   1   0   0  499.12   11.28
  -1   0  -1    0.70    0.54
   1   0   1    0.52    0.65
   1   0   2   69.96    2.94
  -1   0  -2   71.18    2.89
   1   0   3    0.91    1.02
  -1   0  -3    1.96    0.96
   1   0   4   32.31    2.54
  -1   0  -4   32.13    2.42
   1   0   5    2.16    1.39
  -1   0  -5    0.10    1.00
  -1   0  -6   18.13    2.13
   1   0   6   19.04    2.30
   1   0   7    2.62    1.44
   1   0   8 2018.65   48.06
   1   0   9   -0.54    1.30
  -1   0  -9    0.53    1.09
   1   0  10  966.94   27.04
   1   0  11    1.03    1.85
   1   0  12  172.64    9.35
   1   0  13   -0.41    1.70
   1   0  14 1456.68   40.72
   1   0  15   -2.31    2.06
   1   0  16  263.86   13.91
  -1  -1  17   12.31    3.10
  -1  -1  16  226.36   12.13
  -1   1  16  192.68   11.55
  -1   1  15   -3.38    2.12
  -1  -1  15   -0.02    1.75
  -1  -1  14  169.94    9.65
  -1   1  14  151.55    9.25
  -1  -1  13  144.33    8.58
  -1   1  13  155.21    8.90
  -1   1  12  229.48   10.79
  -1  -1  12  239.42   10.77
  -1   1  11   24.07    3.45
  -1  -1  11   23.85    3.09
  -1   1  10  220.52    9.67
   1   1 -10  235.22   10.05
  -1  -1  10  221.36    9.43
  -1  -1   9  743.78   21.04
  -1   1   9  757.61   21.34
   1  -1  -9  770.00   21.91
   1   1  -9  754.98   21.63
  -1  -1   8  118.47    5.92
   1  -1  -8  125.95    6.43
   1   1  -8  112.88    6.05
   1  -1  -7 2609.62   59.72
  -1  -1   7 2636.63   58.93
   1   1  -7 2596.22   59.53
  -1   1   6   11.18    1.80
   1  -1  -6   12.42    1.87
  -1  -1   6   13.61    1.83
   1   1  -6    9.16    1.71
  -1  -1   5 1005.74   23.41
  -1   1   5  974.06   23.99
   1   1  -5  956.39   23.71
   1  -1  -5  981.80   23.94
  -1  -1   4  168.20    5.73
   1   1  -4  163.71    5.64
   1  -1  -4  169.69    5.89
  -1   1   4  149.54    5.92
  -1   1   3  279.59    8.04
  -1   1   3  275.34    7.84
  -1  -1   3  283.32    7.76
   1   1  -3  286.82    7.83
  -1  -1   2 2277.60   48.59
   1  -1  -2 2296.06   48.81
   1   1  -2 2245.79   48.53
  -1   1   2 2222.60   48.88
   1  -1  -1  109.23    3.46
  -1   1   1  108.79    3.44
  -1   1   0 1500.64   32.95
   1  -1   0 1544.89   32.96
  -1   1  -1    4.74    0.78
  -1  -1  -1    5.38    0.75
   1  -1   1    5.30    0.90
   1   1   1    4.96    0.82
   1   1   2 1211.21   26.58
  -1  -1  -2 1180.84   26.50
   1  -1   2 1204.38   26.71
  -1   1  -2 1150.95   26.65
  -1  -1  -3   24.53    1.85
   1  -1   3   23.43    1.99
   1   1   3   26.28    2.08
  -1   1  -3   22.79    1.89
  -1  -1  -4   89.59    4.25
  -1   1  -4  105.17    4.47
   1  -1   4  105.77    4.58
   1   1   4  104.50    4.53
  -1   1  -5  163.25    6.58
   1   1   5  184.03    6.83
   1  -1   5  186.94    6.80
  -1   1  -6  254.14    9.05
   1  -1   6  266.77    9.31
   1   1   6  270.76    9.38
   1  -1   7 1340.23   33.50
   1   1   7 1367.38   33.76
  -1   1  -7 1399.80   33.74
   1  -1   8  305.61   11.02
   1   1   8  288.44   11.04
  -1  -1  -8  305.93   11.16
   1  -1   9  621.22   18.99
  -1  -1  -9  645.02   19.32
   1   1   9  640.01   19.25
   1   1  10   28.44    3.51
   1  -1  10   28.26    3.42
   1  -1  11   39.15    4.07
   1   1  11   39.28    4.16
   1  -1  12   -1.42    1.63
   1   1  12   -1.98    1.83
   1  -1  13  384.82   15.70
   1   1  13  401.11   16.03
   1   1  14  148.79    9.40
   1  -1  14  150.24    9.47
   1   1  15  241.65   12.76
   1  -1  15  239.54   12.65
   1  -1  16  149.26   10.08
   1   1  16  151.70   10.15
  -1  -2  17  191.69   11.52
  -1  -2  16    4.22    2.23
  -1   2  16    0.30    1.78
  -1   2  15  216.00   11.78
  -1  -2  15  219.31   11.55
  -1   2  14   11.53    2.96
  -1  -2  14   17.05    3.10
  -1  -2  13  118.91    7.59
  -1   2  13  128.59    8.09
  -1   2  12    8.26    2.21
  -1  -2  12   10.72    2.40
  -1   2  11   65.45    5.14
  -1  -2  11   66.57    5.07
   1   2 -10   32.48    3.49
  -1   2  10   24.50    3.14
  -1  -2  10   30.80    3.32
  -1  -2   9  120.92    6.24
   1  -2  -9  134.52    7.01
   1   2  -9  127.72    6.77
  -1  -2   8   37.85    3.18
   1   2  -8   40.87    3.50
   1  -2  -8   30.01    3.02
  -1   2   7    0.20    1.38
   1   2  -7    0.60    1.08
   1  -2  -7    0.69    1.00
  -1  -2   7    1.30    1.11
   1  -2  -6    9.83    1.67
  -1   2   6   15.03    2.11
   1   2  -6   10.92    1.73
  -1  -2   6   12.16    1.64
  -1   2   5  163.40    6.39
  -1  -2   5  155.56    5.70
   1  -2  -5  166.80    6.33
   1   2  -5  161.02    6.02
   1  -2  -4    1.34    0.95
  -1   2   4    3.14    1.32
  -1  -2   4    2.24    1.04
   1   2  -4    2.54    0.96
  -1   2   3  910.47   20.24
  -1   2   3  882.90   20.02
  -1  -2   3  812.06   19.33
  -1  -2   3  785.94   18.89
   1   2  -3  848.85   19.41
   1  -2  -2  416.62   10.11
   1   2  -2  402.89    9.18
  -1  -2   2  382.16    9.10
  -1   2   2  414.14    9.93
  -1   2   1  753.57   17.83
   1  -2  -1  800.21   17.87
   1  -2   0    3.35    0.85
  -1   2   0    6.15    0.92
  -1   2  -1  164.60    4.83
   1  -2   1  152.26    4.79
  -1  -2  -1  152.42    4.30
   1   2   1  157.44    4.34
   1  -2   2   14.74    1.61
   1   2   2   14.15    1.42
  -1   2  -2   12.60    1.37
   1  -2   3  103.71    4.30
   1   2   3  110.38    4.25
  -1   2  -3   99.44    4.14
   1   2   4   10.98    1.73
  -1   2  -4    9.36    1.43
   1  -2   4    8.99    1.79
   1   2   5  478.53   13.63
   1  -2   5  471.61   13.65
  -1   2  -5  497.59   13.72
  -1   2  -6  106.64    5.14
   1  -2   6  100.12    5.21
   1   2   6   96.97    5.18
   1   2   7  325.85   11.01
  -1  -2  -7  295.93   10.84
  -1   2  -7  329.68   11.06
   1  -2   7  317.97   10.87
   1  -2   8   14.50    2.25
  -1   2  -8   15.82    2.22
   1   2   8   16.18    2.49
  -1  -2  -8   14.30    2.24
  -1  -2  -9   68.78    5.03
   1  -2   9   60.78    4.64
   1   2   9   69.34    4.95
   1  -2  10   13.33    2.46
   1   2  10   16.41    2.72
   1   2  11    2.36    1.68
   1  -2  11    2.05    1.39
   1  -2  12    9.30    2.24
   1   2  12    9.80    2.51
   1  -2  13   35.12    4.34
   1   2  13   33.83    4.34
   1  -2  14   40.02    4.87
   1   2  14   43.44    5.11
   1  -2  15  268.54   13.49
   1   2  15  267.42   13.63
   1   2  16    4.53    2.45
   1  -2  16   -1.55    2.27
  -1  -3  17    4.99    2.41
  -1   3  16   66.24    6.58
  -1  -3  16   66.41    6.37
  -1  -3  15    2.47    2.15
  -1   3  15    0.24    2.07
  -1   3  14  361.36   15.52
  -1  -3  14  378.21   15.22
  -1  -3  13   14.03    2.76
  -1   3  13   18.30    3.20
  -1   3  12  134.46    8.03
  -1  -3  12  131.81    7.59
  -1   3  11   47.82    4.54
  -1  -3  11   54.18    4.48
  -1  -3  10  121.63    6.66
   1   3 -10  133.41    7.09
  -1   3  10  117.47    6.84
   1   3  -9  305.98   11.38
   1  -3  -9  310.68   11.78
  -1  -3   9  315.19   11.08
  -1   3   8    4.59    1.57
   1  -3  -8    5.43    1.47
   1   3  -8    6.70    1.60
  -1  -3   8    4.84    1.53
  -1   3   7    9.23    1.84
   1   3  -7    7.69    1.56
   1  -3  -7    7.34    1.60
  -1  -3   7    9.51    1.60
   1  -3  -6   74.95    4.39
  -1   3   6   76.04    4.45
  -1  -3   6   69.67    3.83
   1   3  -6   78.54    4.17
  -1  -3   5   54.23    2.90
  -1   3   5   53.51    3.50
   1  -3  -5   55.89    3.43
   1   3  -5   53.75    3.14
  -1   3   4  160.42    5.85
  -1  -3   4  138.35    4.92
  -1   3   4  164.93    6.08
   1   3  -4  155.16    5.41
  -1   3   3  433.14   11.30
   1   3  -3  417.46   10.45
  -1  -3   3  388.51    9.98
  -1   3   3  443.26   11.50
   1  -3  -2  302.77    7.80
  -1   3   2  284.26    7.71
   1   3  -2  261.85    6.54
  -1   3   1   40.82    2.26
   1  -3  -1   47.99    2.52
   1  -3   0 2616.91   55.84
  -1   3   0 2554.93   55.76
  -1   3  -1   67.68    2.91
   1  -3   1   67.87    3.00
  -1   3  -2  735.22   17.48
   1   3   2  726.15   17.08
   1  -3   2  728.30   17.52
   1  -3   3   42.58    2.77
  -1   3  -3   45.95    2.71
   1   3   3   45.21    2.65
   1   3   4  607.06   15.68
  -1   3  -4  583.71   15.65
   1  -3   4  603.83   15.76
  -1  -3  -4  607.11   15.45
  -1  -3  -5   31.70    2.54
   1   3   5   29.58    2.63
  -1   3  -5   27.63    2.46
   1  -3   5   27.15    2.53
  -1   3  -6  114.11    5.55
   1   3   6  119.03    5.78
  -1  -3  -6  126.51    5.66
   1  -3   6  111.50    5.55
   1   3   7    3.61    1.65
  -1  -3  -7    3.18    1.29
   1  -3   7    1.58    1.20
  -1   3  -7    0.80    0.99
   1   3   8   77.06    5.00
  -1  -3  -8   75.01    4.98
  -1   3  -8   77.40    4.90
   1  -3   8   74.18    4.86
   1   3   9   72.05    5.06
   1  -3   9   67.86    4.87
  -1   3  -9   80.79    5.24
  -1  -3  -9   68.77    5.02
   1  -3  10   -0.39    1.43
   1   3  10    1.67    1.54
   1   3  11    5.87    1.96
   1  -3  11    4.43    1.71
   1  -3  12   -0.98    1.91
   1   3  12    0.64    1.50
   1   3  13    9.72    2.67
   1  -3  13    7.49    2.39
   1  -3  14   63.19    5.98
   1   3  14   53.70    5.68
   1   3  15  143.21    9.67
   1  -3  15  121.74    8.72
   1  -3  16   73.50    6.99
   1   3  16   84.94    7.61
  -1  -4  17  110.36    8.56
  -1   4  16    5.06    2.36
  -1  -4  16    6.68    2.63
  -1  -4  15  211.61   11.27
  -1   4  15  208.91   11.73
  -1   4  14    8.76    2.49
  -1  -4  14    6.09    2.04
  -1  -4  13  288.28   12.42
  -1   4  13  288.06   13.08
  -1  -4  12  234.96   10.59
  -1   4  12  242.97   11.37
  -1   4  11  117.81    7.15
  -1  -4  11  113.11    6.62
  -1  -4  10  693.43   20.54
   1   4 -10  748.13   21.60
   1  -4  -9   44.39    4.07
   1   4  -9   48.95    3.98
  -1   4   9   42.06    3.90
  -1  -4   9   46.06    3.74
   1   4  -8  411.08   13.22
   1  -4  -8  405.24   13.70
  -1  -4   8  413.23   12.72
  -1   4   8  402.10   13.63
  -1   4   7   -0.76    1.38
   1  -4  -7    2.11    1.23
  -1  -4   7    3.01    1.11
   1   4  -7    1.86    1.11
  -1  -4   6 1642.63   36.92
  -1   4   6 1587.02   38.16
  -1   4   6 1634.27   38.23
   1   4  -6 1563.27   37.33
   1  -4  -6 1587.11   38.23
   1   4  -5   16.24    1.84
  -1   4   5   18.95    2.25
  -1   4   5   20.74    2.20
  -1  -4   5   18.36    1.72
  -1   4   4 1540.29   34.51
  -1  -4   4 1470.69   32.98
  -1   4   4 1487.35   34.54
   1   4  -4 1443.16   32.96
   1   4  -4 1497.14   33.47
   1   4  -3   59.44    2.56
   1  -4  -3   60.97    3.51
  -1   4   3   59.13    3.32
  -1  -4   3   49.06    2.20
   1   4  -3   51.96    2.25
   1   4  -2  865.97   19.32
  -1  -4   2  844.55   19.30
   1  -4  -2  995.74   21.45
  -1   4   2  935.00   21.37
   1   4  -2  910.37   19.65
  -1   4   1   94.90    3.82
   1  -4  -1   97.60    3.92
  -1   4   0  700.69   15.54
   1  -4   0  711.77   15.65
   1  -4   1 1855.27   41.49
  -1   4  -1 1910.61   41.49
  -1  -4  -1 1873.16   40.09
   1  -4   2   17.35    1.80
  -1   4  -2   18.47    1.80
  -1  -4  -2   19.51    1.41
  -1  -4  -3 1335.12   30.15
   1  -4   3 1342.55   30.82
  -1   4  -3 1324.15   30.77
  -1   4  -4  118.81    5.23
  -1  -4  -4  134.49    5.07
   1  -4   4  122.21    5.21
  -1   4  -5  885.88   22.87
  -1  -4  -5  924.93   22.78
   1  -4   5  920.07   22.97
   1   4   5  926.55   23.04
  -1  -4  -6  305.21   10.08
  -1   4  -6  309.84   10.26
   1  -4   6  275.81   10.10
   1   4   6  310.84   10.37
  -1  -4  -7  121.97    6.00
  -1   4  -7  121.64    6.01
   1   4   7  116.60    6.01
   1  -4   7  111.68    5.76
   1  -4   8  252.07    9.75
   1   4   8  246.31    9.89
  -1   4  -8  248.85    9.75
  -1  -4  -8  252.67    9.86
   1  -4   9   74.74    5.33
   1   4   9   86.68    5.69
  -1  -4  -9   85.89    5.63
  -1   4  -9   87.66    5.73
   1  -4  10  478.61   15.99
   1   4  10  456.94   16.06
   1   4  11    1.67    1.63
   1  -4  11    2.52    2.03
   1   4  12 1399.77   38.39
   1  -4  12 1402.67   37.79
   1   4  13    1.48    1.97
   1  -4  13   -0.13    1.68
   1   4  14  157.22    9.89
   1  -4  14  154.96    9.52
   1  -4  15   22.84    3.97
   1   4  15   22.64    4.09
   1  -4  16  175.85   10.90
   1   4  16  164.03   10.90
  -1  -5  17   19.45    3.64
  -1  -5  16    1.43    1.63
  -1   5  16    1.28    1.68
  -1  -5  15    4.36    2.29
  -1   5  15    3.49    2.24
  -1  -5  14    7.90    2.46
  -1   5  14   14.00    3.04
  -1   5  13   88.48    6.88
  -1  -5  13   75.12    5.84
  -1   5  12  105.66    7.23
  -1  -5  12  112.38    6.83
  -1  -5  11  524.52   17.17
   1   5 -10  121.46    6.80
  -1  -5  10  112.53    6.35
   1   5  -9 1125.90   29.65
  -1   5   9 1105.97   30.28
  -1  -5   9 1121.86   28.90
   1  -5  -9 1196.59   30.75
   1  -5  -8    4.67    1.39
   1   5  -8    5.38    1.62
  -1  -5   8    5.11    1.42
  -1   5   8    4.12    1.78
   1   5  -7  832.14   22.21
  -1   5   7  880.06   23.27
  -1  -5   7  854.08   21.72
  -1   5   7  848.05   23.07
  -1   5   6    0.14    0.99
  -1   5   6    0.10    1.16
  -1  -5   6   -0.64    0.90
   1   5  -6   -0.31    0.76
  -1   5   5 4440.18   99.07
   1   5  -5 4489.83   98.02
  -1   5   5 4541.50   99.23
   1   5  -5 4576.29   97.47
  -1  -5   5 4619.14   97.48
  -1   5   4  176.47    6.59
  -1   5   4  175.01    6.56
  -1  -5   4  159.02    5.17
   1   5  -4  153.69    5.24
   1   5  -3  927.58   21.23
   1  -5  -3  989.77   23.15
  -1   5   3  971.23   23.08
  -1  -5   3  921.98   21.11
   1   5  -2  229.35    5.82
  -1   5   2  241.57    7.52
  -1  -5   2  224.72    5.79
   1  -5  -2  244.48    7.55
  -1  -5   1  297.06    7.03
   1  -5  -1  315.81    8.80
   1   5  -1  286.84    6.98
  -1   5   1  299.67    8.68
   1   5   0  935.20   20.91
   1  -5   0  976.21   22.49
  -1   5   0  948.31   22.30
   1   5   1  267.69    6.62
  -1   5  -1  288.03    8.11
   1   5   1  255.58    7.13
   1  -5   1  266.40    8.19
   1  -5   2   13.90    1.81
  -1   5  -2   17.85    1.74
  -1  -5  -2   23.44    1.48
   1  -5   3   14.21    1.86
  -1   5  -3   12.55    1.62
  -1  -5  -3   11.69    1.33
  -1  -5  -4    1.92    1.04
  -1   5  -4    1.97    1.10
   1  -5   4   -0.29    1.17
  -1   5  -5  680.42   17.83
  -1  -5  -5  634.69   17.38
   1  -5   5  682.19   17.83
   1   5   6   24.83    2.65
  -1   5  -6   27.38    2.71
  -1  -5  -6   25.67    2.51
   1  -5   6   23.45    2.59
  -1  -5  -7  176.17    7.56
   1   5   7  180.51    7.80
   1  -5   7  182.36    7.65
  -1   5  -7  170.77    7.63
   1  -5   8   17.01    2.46
  -1  -5  -8   19.75    2.70
   1   5   8   20.71    2.72
  -1   5  -8   22.88    2.82
  -1   5  -9 1289.72   33.61
  -1  -5  -9 1335.15   33.81
   1  -5   9 1255.94   33.22
   1   5   9 1293.25   33.87
   1  -5  10   49.41    4.42
   1   5  10   54.49    4.80
   1  -5  11 1831.80   46.30
   1   5  11 1841.82   46.85
   1  -5  12   20.10    3.20
   1   5  12   10.96    2.57
   1  -5  13  595.42   20.90
   1   5  13  641.99   21.95
   1   5  14   -1.05    1.77
   1  -5  14   -0.72    1.67
   1   5  15  114.74    8.74
   1  -5  15  110.94    8.35
   1  -5  16   48.89    5.76
  -1  -6  17  134.24    9.32
  -1   6  16    0.99    1.98
  -1  -6  16    0.90    1.65
  -1  -6  15  193.35   10.67
  -1   6  15  227.43   12.35
  -1  -6  14   11.59    2.62
  -1   6  14    8.46    2.73
  -1   6  13  367.06   15.21
  -1  -6  13  339.16   13.71
  -1  -6  12   87.04    6.10
  -1  -6  11  295.41   11.56
  -1   6  10   38.51    4.05
  -1  -6  10   37.19    3.55
   1   6 -10   40.17    3.81
  -1   6   9   33.59    3.68
  -1   6   9   34.71    3.73
  -1  -6   9   26.37    2.76
   1   6  -9   32.90    3.31
  -1   6   8   40.80    3.71
  -1   6   8   38.11    3.64
   1   6  -8   35.27    3.17
  -1  -6   8   29.36    2.75
  -1   6   7    1.44    1.43
  -1  -6   7   -0.30    0.84
   1   6  -7    0.14    0.76
   1   6  -7    2.97    1.15
  -1   6   7    0.24    1.10
   1   6  -6   12.40    1.59
  -1   6   6   11.18    1.85
  -1   6   6   11.92    2.07
  -1  -6   6   11.61    1.57
   1   6  -5  276.99    8.59
  -1   6   5  308.18   10.22
  -1   6   5  323.38   10.24
  -1  -6   5  280.03    8.56
  -1  -6   4  686.80   16.35
  -1   6   4  677.98   17.98
   1   6  -4  684.83   16.42
  -1   6   4  662.64   18.13
   1   6  -3  162.80    4.91
  -1   6   3  160.87    6.33
  -1  -6   3  159.61    4.86
   1  -6  -3  176.11    6.58
  -1  -6   2   20.90    1.29
   1   6  -2   20.86    1.27
  -1   6   2   18.48    1.95
   1  -6  -2   20.47    2.23
  -1  -6   1  331.60    8.13
  -1   6   1  342.11    9.77
   1  -6  -1  333.60    9.76
   1   6  -1  326.45    8.05
   1   6   0    0.56    0.34
  -1  -6   0    0.80    0.65
   1  -6   0    0.60    1.23
   1   6   0    0.72    0.55
  -1   6   0    1.43    0.97
   1  -6   1  754.38   18.74
   1   6   1  754.65   17.73
  -1   6  -1  730.80   18.64
   1   6   1  775.42   17.06
  -1   6  -2    3.39    1.03
   1  -6   2    3.29    1.23
   1   6   2    2.95    0.95
  -1  -6  -2    2.50    0.74
   1   6   2    3.79    0.82
   1  -6   3  951.47   23.13
  -1  -6  -3  941.13   22.18
  -1   6  -3  952.73   23.11
  -1  -6  -4  226.39    7.63
  -1   6  -4  251.29    8.33
   1  -6   4  244.58    8.34
  -1   6  -5 1351.92   31.73
   1  -6   5 1300.38   31.61
  -1  -6  -5 1281.42   31.16
  -1   6  -6   39.77    3.24
   1  -6   6   42.27    3.27
  -1  -6  -6   42.23    3.19
  -1   6  -7  220.81    9.00
  -1  -6  -7  232.22    9.00
   1   6   7  226.59    9.20
   1  -6   7  236.27    9.03
   1  -6   8    1.11    1.47
  -1   6  -8    0.88    0.95
  -1  -6  -8    1.55    1.02
   1   6   8   -0.04    1.35
  -1   6  -9   10.19    2.07
  -1  -6  -9    8.73    1.97
   1  -6   9    3.74    1.49
   1   6   9    6.07    1.63
   1  -6  10  101.55    6.38
   1   6  10   87.78    6.11
   1   6  11    3.87    2.05
   1  -6  11    0.34    1.39
   1  -6  12   37.72    4.38
   1   6  12   37.47    4.49
   1  -6  13   86.55    6.88
   1   6  13   91.02    7.27
   1  -6  14   28.39    4.18
   1   6  14   26.37    4.21
   1  -6  15   30.81    4.45
   1   6  15   34.74    4.85
   1  -6  16   -1.93    2.07
  -1  -7  17    2.59    2.12
  -1  -7  16  205.61   11.37
  -1  -7  15    5.72    2.49
  -1   7  15    2.16    1.90
  -1  -7  14  122.99    7.86
  -1   7  14  123.54    8.65
  -1  -7  13    1.35    1.31
  -1   7  13    2.12    2.05
  -1  -7  12  357.67   13.52
  -1  -7  11    2.58    1.50
   1   7 -10   18.35    2.71
  -1  -7  10   14.54    2.34
  -1   7  10   11.95    2.62
  -1   7   9  258.67   10.84
  -1  -7   9  248.87    9.53
   1   7  -9  266.85   10.28
  -1   7   8    1.20    1.07
   1   7  -8    0.15    1.03
  -1  -7   8    1.63    1.02
  -1   7   8    2.72    1.65
  -1   7   7  381.12   12.82
  -1   7   7  355.61   12.46
  -1  -7   7  363.51   11.10
   1   7  -7  347.76   11.05
   1   7  -6   15.64    1.83
  -1  -7   6   16.41    1.83
  -1   7   6   18.90    2.43
  -1   7   6   18.00    2.42
  -1   7   5  569.89   16.15
   1   7  -5  556.32   14.55
  -1   7   5  555.72   16.31
  -1  -7   5  578.95   14.55
  -1   7   4  341.33   10.51
  -1   7   4  306.13   10.60
   1   7  -4  321.78    8.83
  -1  -7   4  310.78    8.77
   1  -7  -3  157.21    6.31
  -1  -7   3  149.88    4.71
  -1   7   3  144.19    6.12
   1   7  -3  143.64    4.65
   1   7  -2  288.60    7.60
  -1   7   2  296.31    9.40
  -1  -7   2  286.93    7.61
   1  -7  -2  305.03    9.41
   1   7  -1    0.96    0.55
  -1  -7   1    1.22    0.69
   1  -7  -1    1.03    1.20
  -1   7   1    0.60    0.89
  -1  -7   0  320.56    8.46
   1   7   0  314.54    8.45
   1  -7   0  328.10    9.80
  -1   7   0  335.63    9.70
   1  -7   1    1.15    1.15
   1   7   1    1.01    0.70
   1   7   1    0.45    0.50
  -1   7  -1    2.57    1.07
   1   7   2 2026.31   44.16
   1   7   2 2017.70   44.94
   1  -7   2 2073.76   45.71
  -1   7  -2 1969.23   45.66
  -1  -7  -3   57.57    2.95
  -1   7  -3   56.43    3.37
   1  -7   3   59.06    3.60
   1   7   3   54.11    3.25
   1   7   3   57.74    3.03
   1  -7   4 1092.23   26.67
  -1   7  -4 1109.39   26.78
  -1  -7  -4 1065.25   25.88
  -1  -7  -5    0.21    0.83
   1  -7   5    0.69    1.02
  -1   7  -5    1.27    0.97
   1  -7   6  139.07    6.51
  -1  -7  -6  149.90    6.48
  -1   7  -6  148.22    6.63
  -1  -7  -7   67.68    4.50
  -1   7  -7   67.29    4.51
   1  -7   7   60.13    4.27
   1  -7   8    1.14    1.13
   1   7   8    0.46    1.23
  -1   7  -8    2.60    1.43
  -1  -7  -8   -0.10    1.05
   1  -7   9  516.04   16.65
  -1  -7  -9  527.65   16.87
  -1   7  -9  520.63   16.68
   1   7   9  492.73   16.82
   1  -7  10   41.34    4.10
   1   7  10   38.46    4.18
   1   7  11   72.97    5.93
   1  -7  11   72.79    5.68
   1  -7  12   59.14    5.51
   1   7  12   65.18    6.03
   1  -7  13   15.69    3.12
   1   7  13   17.23    3.34
   1  -7  14   41.70    5.06
   1   7  14   44.37    5.35
   1  -7  15    9.73    2.87
   1   7  15    7.03    2.64
   1  -7  16   73.81    7.09
  -1  -8  17   91.89    7.61
  -1  -8  16    1.70    2.01
  -1  -8  15  135.91    8.74
  -1   8  15  139.77    9.69
  -1  -8  14   16.63    3.17
  -1   8  14   11.29    3.14
  -1  -8  13  264.03   11.65
  -1  -8  12   80.98    5.74
  -1  -8  11  164.09    8.04
   1   8 -10  414.75   14.35
  -1  -8  10  401.67   13.64
  -1   8  10  394.53   14.96
  -1   8   9   42.40    4.11
  -1  -8   9   40.14    3.44
   1   8  -9   35.16    3.47
   1   8  -8  121.08    6.19
  -1   8   8  126.25    6.97
  -1  -8   8  132.37    6.02
  -1   8   8  118.80    6.67
   1   8  -8  113.57    5.65
  -1   8   7    4.67    1.69
   1   8  -7    1.37    0.95
  -1   8   7    1.68    1.13
  -1  -8   7    1.66    0.99
  -1   8   6  432.06   13.97
  -1  -8   6  450.93   12.49
   1   8  -6  433.21   12.42
  -1   8   6  456.07   14.43
  -1   8   5   12.01    2.01
  -1  -8   5    9.48    1.35
   1   8  -5    9.43    1.33
  -1   8   5    7.53    1.80
  -1   8   4  158.79    6.50
  -1   8   4  155.17    6.76
   1  -8  -4  147.77    6.60
  -1  -8   4  151.18    5.18
   1   8  -4  146.32    5.12
   1  -8  -3   57.45    3.86
  -1   8   3   49.39    3.54
  -1  -8   3   44.11    2.37
   1   8  -3   49.56    2.47
   1   8  -2   35.25    1.95
  -1   8   2   36.88    2.87
   1  -8  -2   39.61    2.98
  -1  -8   2   37.00    2.06
   1  -8  -1  406.54   11.78
  -1  -8   1  391.85   10.10
  -1   8   1  397.17   11.69
   1   8  -1  384.02   10.00
  -1  -8   0   20.40    1.60
  -1   8   0   22.05    2.13
   1   8   0   19.07    1.59
   1  -8   0   23.35    2.32
  -1   8  -1  530.68   14.34
   1  -8   1  529.98   14.43
   1   8   1  517.63   12.47
   1   8   1  519.71   13.37
   1  -8   2    8.50    1.55
  -1   8  -2    8.09    1.51
   1   8   2    8.80    1.32
   1   8   2   10.02    1.19
   1   8   3 1401.21   32.72
   1  -8   3 1380.80   32.97
   1   8   3 1399.25   31.90
  -1   8  -3 1392.60   33.05
   1   8   4    1.69    0.80
  -1   8  -4    0.11    0.88
  -1  -8  -4    3.42    1.02
   1   8   4    1.51    0.85
   1  -8   4    0.44    1.00
   1  -8   5  524.72   15.25
  -1   8  -5  537.62   15.34
  -1  -8  -5  517.82   14.75
  -1  -8  -6   78.73    4.56
  -1   8  -6   75.21    4.63
   1  -8   6   73.34    4.61
  -1   8  -7  168.11    7.64
   1  -8   7  163.10    7.50
  -1  -8  -7  157.81    7.21
  -1   8  -8   16.90    2.50
  -1  -8  -8   16.41    2.42
   1  -8   8   14.19    2.26
  -1   8  -9   56.85    4.73
   1   8   9   52.10    4.51
  -1  -8  -9   55.80    4.45
   1  -8   9   48.99    4.25
   1  -8  10 1132.18   31.00
   1   8  10 1147.95   31.81
   1   8  11    0.57    1.51
   1  -8  11   -2.23    1.75
   1   8  12  206.14   11.01
   1  -8  12  233.31   11.05
   1   8  13   78.58    6.90
   1  -8  13   71.48    6.25
   1  -8  14   21.35    3.62
   1   8  14   19.07    3.75
   1   8  15   25.99    4.29
   1  -8  15   30.90    4.48
   1  -8  16   -2.45    1.96
  -1  -9  17   18.28    3.69
  -1  -9  16   99.94    7.66
  -1  -9  15   15.83    3.32
  -1   9  15   14.16    3.27
  -1  -9  14  102.24    7.19
  -1   9  14   98.34    7.85
  -1  -9  13   51.30    4.81
  -1  -9  12   10.56    2.29
  -1   9  11  235.80   11.47
  -1  -9  11  248.26   10.34
   1   9 -10   12.88    2.29
  -1   9  10   14.70    2.74
  -1  -9  10   13.85    2.34
  -1   9   9   80.90    5.75
  -1  -9   9   75.99    4.74
   1   9  -9   75.83    4.76
   1   9  -9   78.90    5.11
   1   9  -8   19.12    2.28
  -1  -9   8   19.22    2.30
  -1   9   8   18.49    2.78
   1   9  -7 1264.26   30.77
  -1   9   7 1198.06   32.48
  -1  -9   7 1313.90   30.83
  -1   9   7 1295.96   33.29
  -1   9   6    3.00    1.48
  -1  -9   6    3.07    0.96
   1   9  -6    1.30    0.79
  -1   9   6    4.07    1.52
   1   9  -5  705.61   17.86
  -1  -9   5  719.09   17.85
  -1   9   5  682.96   19.47
  -1   9   5  722.83   20.23
  -1   9   4   30.21    2.95
   1   9  -4   25.33    1.94
  -1  -9   4   26.58    2.02
   1  -9  -4   33.06    3.02
  -1   9   4   32.76    2.87
   1  -9  -3 2046.93   47.11
   1   9  -3 2020.15   44.62
  -1  -9   3 2029.33   44.67
  -1   9   3 1992.70   47.04
   1   9  -2  152.04    5.12
   1  -9  -2  163.11    6.68
  -1   9   2  159.29    6.68
  -1  -9   2  155.62    5.19
   1   9  -1  340.04    9.20
  -1  -9   1  337.26    9.26
  -1   9   1  328.88   10.69
   1  -9  -1  351.79   10.88
  -1  -9   0  245.21    7.42
   1  -9   0  267.17    8.82
   1   9   0  237.60    7.36
  -1   9   0  250.49    8.54
   1   9   1   75.72    3.63
   1  -9   1   72.18    4.17
   1   9   1   76.71    3.03
  -1   9  -1   78.74    4.25
  -1   9  -2   88.62    4.48
   1   9   2   86.52    3.55
   1   9   2   85.80    4.10
   1  -9   2   89.55    4.55
   1   9   3  120.12    5.37
  -1   9  -3  131.81    5.90
   1  -9   3  130.73    5.92
   1   9   3  130.67    5.05
   1   9   4  725.66   18.48
   1  -9   4  716.41   19.32
   1   9   4  710.29   19.25
  -1   9  -4  720.82   19.36
   1   9   5  142.94    6.52
   1  -9   5  140.54    6.52
   1   9   5  150.37    6.31
  -1   9  -5  143.93    6.55
   1  -9   6  313.87   11.22
  -1   9  -6  343.71   11.60
  -1  -9  -6  341.52   11.21
   1  -9   7  549.75   17.14
  -1   9  -7  576.62   17.40
  -1  -9  -7  592.91   17.25
   1  -9   8   80.34    5.37
  -1   9  -8   89.83    5.61
  -1  -9  -8   91.22    5.56
   1  -9   9  271.92   11.09
   1   9  10   19.75    3.20
   1  -9  10   31.68    3.68
   1  -9  11  592.71   19.62
   1   9  11  591.60   20.33
   1  -9  12    0.99    1.59
   1   9  12    7.84    2.71
   1   9  13  313.36   14.44
   1  -9  13  295.86   13.42
   1  -9  14   26.06    3.94
   1   9  14   23.72    3.98
   1   9  15  292.27   14.83
   1  -9  15  260.12   13.41
   1  -9  16   57.62    6.30
  -1 -10  17  179.87   10.97
  -1 -10  16    2.21    1.73
  -1 -10  15  296.05   13.46
  -1  10  14   37.65    5.07
  -1 -10  14   38.05    4.50
  -1 -10  13   77.75    5.95
  -1 -10  12   57.40    4.89
  -1 -10  11   29.38    3.31
  -1  10  11   24.37    3.62
   1  10 -10 1077.28   29.33
  -1 -10  10 1062.19   28.43
  -1  10  10 1092.43   30.79
   1  10  -9    4.35    1.29
  -1 -10   9    5.09    1.58
   1  10  -9    4.88    1.45
  -1  10   9    7.08    1.97
   1  10  -8  426.41   13.46
  -1 -10   8  440.56   13.52
  -1  10   8  441.04   15.21
  -1  10   7    2.28    1.44
  -1 -10   7    1.10    1.11
   1  10  -7    0.39    0.75
  -1  10   7    0.26    1.19
  -1 -10   6  688.11   17.66
  -1  10   6  697.58   20.20
   1  10  -6  662.62   17.69
  -1  10   6  633.16   19.25
  -1  10   5    8.15    1.73
  -1 -10   5    9.82    1.51
  -1  10   5   14.84    2.31
   1  10  -5    8.14    1.23
  -1  10   4  259.27    9.76
   1  10  -4  253.98    7.90
  -1 -10   4  254.60    7.87
   1 -10  -4  257.83    9.69
   1 -10  -3  413.65   13.02
  -1  10   3  387.03   12.86
   1  10  -3  411.13   10.96
  -1 -10   3  395.57   10.95
   1 -10  -2  731.73   19.54
  -1  10   2  723.20   19.57
  -1 -10   2  706.68   17.45
   1  10  -2  702.48   17.35
  -1  10   1   48.94    3.48
   1 -10  -1   47.96    3.48
   1  10  -1   49.42    2.67
  -1 -10   1   46.72    2.66
  -1 -10   0  254.82    7.66
   1  10   0  230.16    7.45
  -1  10   0  241.05    8.64
   1 -10   0  238.17    8.74
   1  10   1  245.66    7.90
  -1  10  -1  239.56    8.64
   1  10   1  245.18    6.97
   1 -10   1  240.54    8.73
   1 -10   2   -0.88    1.12
  -1  10  -2    1.92    1.07
   1  10   2    1.04    0.72
   1  10   2    2.85    0.97
   1  10   3 1943.20   44.99
   1 -10   3 2018.51   45.54
  -1  10  -3 1944.63   45.41
   1  10   3 1922.10   43.89
   1 -10   4   12.81    1.92
   1  10   4   10.46    1.62
  -1  10  -4   15.35    2.05
   1  10   4   16.40    2.14
   1  10   5  163.52    6.81
   1 -10   5  171.70    7.34
  -1  10  -5  174.73    7.42
   1  10   5  171.53    7.43
   1 -10   6  505.51   15.82
   1  10   6  524.91   16.35
  -1  10  -6  531.65   16.03
   1 -10   7   82.95    5.24
   1  10   7   79.59    5.42
  -1  10  -7   87.05    5.36
  -1 -10  -8  976.07   26.44
   1 -10   8  961.49   26.53
  -1  10  -8  958.89   26.62
   1 -10   9   26.51    3.22
   1 -10  10  641.38   20.35
   1  10  10  637.15   20.94
   1  10  11   -0.06    1.59
   1 -10  11    1.65    1.26
   1 -10  12  258.30   12.00
   1  10  12  263.83   12.74
   1  10  13    2.91    2.44
   1 -10  13    0.95    1.99
   1 -10  14  204.82   11.30
   1  10  14  220.64   12.31
   1 -10  15  101.12    8.02
  -1 -11  16  281.83   13.56
  -1 -11  15    6.73    2.56
  -1 -11  14  298.69   13.12
  -1 -11  13    3.08    1.75
  -1 -11  12  120.09    7.10
  -1 -11  11   75.41    5.33
  -1  11  11   74.79    6.29
  -1  11  10  190.91    9.74
   1  11 -10  171.53    8.12
  -1 -11  10  173.26    8.19
  -1  11   9   32.77    3.79
  -1 -11   9   38.77    3.41
   1  11  -9   31.65    3.09
  -1  11   8   20.52    3.03
  -1 -11   8   18.88    2.43
   1  11  -8   18.44    2.31
  -1  11   7   18.19    2.64
   1  11  -7   16.75    2.04
  -1 -11   7   18.76    2.20
   1  11  -6   -0.54    0.93
  -1  11   6   -1.42    1.22
  -1  11   6   -1.68    1.28
  -1 -11   6   -0.06    0.90
  -1  11   5  163.29    7.61
  -1  11   5  140.08    6.84
   1  11  -5  139.73    5.67
  -1 -11   5  142.70    5.72
  -1  11   4   66.59    4.56
  -1 -11   4   63.61    3.49
   1  11  -4   66.53    3.44
   1 -11  -4   64.50    4.50
   1 -11  -3    3.30    1.41
  -1  11   3    1.36    1.12
  -1 -11   3    2.15    0.78
   1  11  -3    2.81    0.88
   1 -11  -2  349.14   11.73
  -1  11   2  359.37   11.91
   1  11  -2  346.56    9.94
  -1 -11   2  351.94   10.08
  -1 -11   1   41.66    2.64
   1 -11  -1   34.68    3.08
  -1  11   1   37.11    3.14
   1  11  -1   37.92    2.49
  -1 -11   0 1053.62   25.06
   1  11   0 1018.90   24.90
  -1  11   0 1048.02   26.49
   1 -11   0 1066.61   26.63
   1  11   1    0.50    0.71
   1  11   1    0.37    0.63
   1 -11   1    0.76    1.13
  -1  11  -1    0.14    1.00
   1  11   2  741.46   18.40
   1  11   2  752.35   19.58
   1 -11   2  756.91   20.35
  -1  11  -2  772.99   20.39
  -1  11  -3  116.26    5.78
   1  11   3  114.80    5.53
   1 -11   3  110.57    5.65
   1  11   3  109.59    4.79
   1 -11   4  924.03   24.55
   1  11   4  948.23   23.54
  -1  11  -4  942.47   24.65
   1  11   4  957.21   24.62
   1  11   5    0.56    1.05
   1  11   5    0.34    0.85
   1 -11   5   -0.24    1.10
  -1  11  -5    1.45    1.01
   1  11   6  310.93   11.58
  -1  11  -6  328.70   11.56
   1 -11   6  309.76   11.36
   1 -11   7  129.26    6.83
   1  11   7  133.55    7.21
  -1  11  -7  136.23    7.01
   1 -11   8  265.28   11.00
  -1  11  -8  285.25   11.31
   1 -11   9  153.71    8.06
   1 -11  10    1.16    1.71
   1  11  11   30.16    4.13
   1 -11  11   26.81    3.60
   1  11  12   10.39    2.90
   1 -11  12   10.79    2.53
   1  11  13    2.58    2.05
   1 -11  13    1.54    1.63
   1 -11  14   39.00    4.93
   1  11  14   44.01    5.59
   1 -11  15    1.74    2.12
  -1 -12  16    4.17    2.33
  -1 -12  15  180.58   10.16
  -1 -12  14    6.85    2.30
  -1 -12  13   86.85    6.38
  -1 -12  12   13.50    2.56
  -1  12  11   77.86    6.44
  -1 -12  11   86.80    5.73
  -1  12  10    3.95    1.97
  -1 -12  10    0.46    1.03
   1  12 -10    4.27    1.35
  -1  12   9   22.59    3.31
  -1 -12   9   21.54    2.67
   1  12  -9   19.04    2.47
  -1  12   8  206.59    9.81
  -1 -12   8  222.34    8.60
   1  12  -8  216.14    8.56
  -1 -12   7    1.98    1.16
   1  12  -7    0.08    0.91
  -1  12   7    2.41    1.55
   1  12  -6   33.75    2.74
  -1 -12   6   37.60    2.83
  -1  12   6   34.44    3.51
  -1 -12   5    4.25    1.10
  -1  12   5    7.32    1.67
   1  12  -5    6.42    1.30
  -1  12   5    3.90    1.52
  -1  12   4    8.01    1.86
  -1 -12   4    5.08    1.14
   1  12  -4    5.35    1.09
   1 -12  -4    4.60    1.65
  -1 -12   3  161.37    6.10
   1  12  -3  163.27    6.02
  -1  12   3  166.42    7.66
   1 -12  -3  166.69    7.59
  -1  12   2   98.43    5.50
  -1 -12   2   90.45    4.26
   1  12  -2   93.17    4.23
   1 -12  -2   95.54    5.43
   1 -12  -1  632.22   18.09
   1  12  -1  614.90   16.17
  -1 -12   1  627.49   16.38
  -1  12   1  632.03   18.02
  -1 -12   0   12.98    1.69
  -1  12   0   12.38    2.00
   1 -12   0   12.63    2.06
   1  12   0   10.42    1.44
   1  12   1  727.43   19.12
   1 -12   1  747.05   20.39
   1  12   1  731.87   17.87
  -1  12  -1  740.06   20.26
   1  12   2    1.46    0.94
   1  12   2    2.90    0.88
   1 -12   2    1.51    1.38
  -1  12  -2    2.28    1.21
   1  12   3  236.56    7.88
   1  12   3  226.25    8.65
  -1  12  -3  243.29    9.10
   1 -12   3  236.28    9.05
   1  12   4    0.89    0.73
   1  12   4   -1.29    1.01
  -1  12  -4   -0.35    1.04
   1 -12   4   -0.09    1.01
  -1  12  -5  305.15   11.04
   1  12   5  294.30   10.21
   1 -12   5  288.41   10.78
   1  12   5  303.88   11.04
  -1  12  -6    1.77    1.22
   1  12   6    0.96    1.12
   1 -12   6    0.27    1.16
   1  12   6    2.44    1.18
  -1  12  -7  300.32   11.56
   1 -12   7  294.61   11.40
   1 -12   8  364.52   13.34
   1 -12   9    4.83    1.84
   1 -12  10    2.01    1.74
   1  12  11    2.42    1.87
   1 -12  11    8.51    2.47
   1 -12  12   47.22    5.03
   1  12  12   59.72    6.06
   1 -12  13   30.22    4.16
   1  12  13   24.49    4.18
   1  12  14   20.41    3.89
   1 -12  14   26.65    4.16
   1 -12  15   81.04    7.25
  -1 -13  15    6.52    2.57
  -1 -13  14   44.03    4.76
  -1 -13  13   27.36    3.63
  -1 -13  12  124.28    7.41
  -1 -13  11   30.41    3.42
  -1  13  11   28.20    4.06
  -1  13  10   82.52    6.48
   1  13 -10   83.71    5.52
  -1 -13  10   87.82    5.53
   1  13  -9  308.89   11.35
  -1 -13   9  321.35   11.44
  -1  13   9  294.98   12.87
   1  13  -8   25.92    2.71
  -1 -13   8   25.78    2.79
  -1  13   8   28.10    3.56
   1  13  -7  174.93    7.36
  -1 -13   7  177.21    7.26
  -1  13   7  167.85    8.48
   1  13  -6    0.87    0.73
  -1 -13   6    1.05    0.83
  -1  13   6    2.29    1.46
  -1  13   5   75.41    5.03
  -1  13   5   75.13    5.31
  -1 -13   5   70.69    4.07
   1  13  -5   80.97    4.21
  -1  13   4  104.67    6.23
   1  13  -4   92.17    4.56
  -1 -13   4   97.46    4.66
   1 -13  -4   93.69    5.88
  -1 -13   3   11.11    1.59
   1 -13  -3   11.58    2.21
   1  13  -3   11.95    1.52
  -1  13   3    9.87    1.97
  -1 -13   2  102.32    4.76
   1 -13  -2   98.64    5.79
  -1  13   2  102.19    5.75
   1  13  -2   99.45    4.56
  -1 -13   1  314.67    9.92
   1 -13  -1  334.65   11.59
  -1  13   1  324.69   11.41
   1  13  -1  300.74    9.68
  -1 -13   0  640.11   17.22
   1 -13   0  640.57   18.61
  -1  13   0  657.82   18.63
   1  13   0  635.83   17.10
  -1  13  -1    5.09    1.45
   1 -13   1    2.95    1.16
   1  13   1    4.84    1.14
   1  13   1    7.64    1.11
   1  13   2  194.62    6.76
   1  13   2  197.22    7.74
   1 -13   2  206.72    8.45
  -1  13  -2  197.23    8.20
  -1  13  -3   11.72    2.02
   1  13   3   15.84    2.18
   1  13   3   13.67    1.71
   1 -13   3   10.99    2.02
  -1  13  -4  237.72    9.40
   1  13   4  238.99    9.40
   1  13   4  230.44    8.39
   1 -13   4  246.70    9.59
   1  13   5   44.18    3.76
   1 -13   5   47.70    3.99
   1  13   5   43.68    3.42
  -1  13  -5   38.37    3.52
   1  13   6  703.79   20.52
  -1  13  -6  686.63   20.11
   1 -13   6  640.27   19.86
   1  13   6  679.75   19.40
   1 -13   7  505.72   16.80
  -1  13  -7  541.53   17.14
   1 -13   8   74.36    5.41
   1 -13   9  247.55   10.91
   1 -13  10    7.62    2.11
   1  13  11    6.83    2.45
   1 -13  11    9.76    2.40
   1 -13  12    0.09    1.66
   1  13  12    0.78    1.92
   1 -13  13   52.83    5.40
   1  13  13   50.08    5.68
   1 -13  14   -1.26    1.72
   1 -13  15   73.60    6.89
  -1 -14  14   29.11    4.07
  -1 -14  13    9.17    2.35
  -1 -14  12  219.12   10.18
  -1  14  12  206.92   11.69
  -1 -14  11   43.55    4.12
  -1  14  11   41.05    4.80
  -1  14  10  101.08    7.37
  -1 -14  10  102.42    6.10
  -1 -14   9    4.00    1.59
  -1  14   9    4.81    1.89
   1  14  -9    1.23    1.04
  -1 -14   8  843.56   22.57
   1  14  -8  825.47   22.63
  -1  14   8  804.82   24.76
  -1 -14   7   -0.11    1.00
   1  14  -7   -0.57    0.90
  -1  14   7    1.82    1.31
  -1 -14   6  987.35   24.58
  -1  14   6  910.58   26.23
   1  14  -6  936.37   24.34
  -1  14   5   -0.20    1.24
   1  14  -5    1.22    0.82
  -1 -14   5    2.49    1.06
  -1  14   4  359.96   12.69
  -1 -14   4  371.31   11.45
  -1  14   4  362.52   13.36
   1  14  -4  364.68   11.25
   1 -14  -4  347.96   13.13
   1  14  -3   25.85    2.29
  -1 -14   3   29.43    2.53
  -1  14   3   32.96    3.47
   1 -14  -3   23.39    2.96
  -1 -14   2  327.01   10.46
   1 -14  -2  335.08   12.17
  -1  14   2  349.30   12.33
   1  14  -2  322.80   10.28
   1  14  -1   38.36    2.87
  -1 -14   1   44.29    3.11
   1 -14  -1   41.32    3.72
  -1  14   1   42.20    3.71
   1 -14   0  168.29    7.74
  -1 -14   0  148.65    6.40
   1  14   0  145.17    6.24
  -1  14   0  155.55    7.36
  -1  14  -1   29.60    2.99
   1  14   1   29.88    2.67
   1 -14   1   25.80    2.89
   1  14   1   28.25    2.13
  -1  14  -2    1.42    1.00
   1  14   2    3.15    1.03
   1 -14   2    2.02    1.45
   1  14   2    2.39    1.13
   1  14   3   90.07    4.53
   1 -14   3   96.72    5.62
  -1  14  -3   86.73    5.31
   1  14   3   85.60    5.07
   1 -14   4   19.56    2.63
   1  14   4   17.38    2.49
   1  14   4   21.30    2.27
  -1  14  -4   18.94    2.50
  -1  14  -5   28.96    3.13
   1  14   5   22.06    2.78
   1  14   5   25.31    2.67
   1 -14   5   21.96    2.85
   1 -14   6  823.41   23.75
  -1  14  -6  850.63   23.95
   1  14   6  831.12   22.94
   1 -14   7    0.42    1.39
   1 -14   8  623.59   19.77
   1 -14   9    2.32    1.48
   1 -14  10  221.69   10.68
   1 -14  11   -1.44    1.89
   1  14  12  376.86   16.67
   1 -14  12  380.48   15.70
   1  14  13    2.41    1.95
   1 -14  13   -1.99    2.12
   1 -14  14  251.78   12.97
   1 -14  15    0.42    2.22
  -1 -15  13   31.00    3.95
  -1  15  12  238.81   12.81
  -1 -15  12  253.02   11.14
  -1  15  11   58.80    5.82
  -1 -15  11   50.27    4.47
  -1  15  10   86.36    6.80
  -1 -15  10   86.72    5.70
   1  15  -9  111.95    6.24
  -1  15   9   98.06    7.02
  -1 -15   9  105.07    6.01
   1  15  -8   33.87    3.24
  -1 -15   8   32.48    3.17
  -1  15   8   31.21    3.84
   1  15  -7  258.07    9.57
  -1  15   7  226.07   10.66
  -1 -15   7  260.68    9.60
  -1 -15   6   11.33    1.94
   1  15  -6   10.10    1.74
  -1  15   6   12.26    2.51
   1  15  -5  130.85    6.05
  -1 -15   5  145.05    6.39
  -1  15   5  134.71    7.25
   1  15  -4    7.39    1.45
  -1  15   4    7.95    1.77
  -1 -15   4    6.52    1.44
   1 -15  -4    4.07    1.64
   1 -15  -3   88.04    5.86
  -1 -15   3   89.41    4.71
   1  15  -3   92.01    4.70
  -1 -15   2  261.20    9.12
   1  15  -2  256.11    8.98
  -1  15   2  266.79   10.66
   1 -15  -2  258.43   10.61
  -1 -15   1   82.89    4.56
   1  15  -1   87.11    4.60
  -1  15   1   73.93    5.05
   1 -15  -1   83.90    5.49
  -1  15   0  318.17   11.75
   1  15   0  310.47   10.49
   1 -15   0  322.58   11.94
  -1 -15   0  318.52   10.69
  -1  15  -1    7.19    1.75
   1 -15   1    5.17    1.70
   1  15   1    6.05    1.45
   1  15   1    8.81    1.36
  -1  15  -2  482.82   15.24
   1 -15   2  450.20   15.16
   1  15   2  465.20   14.51
   1  15   2  453.40   13.03
   1  15   3    0.72    1.03
  -1  15  -3   -1.05    1.19
   1  15   3   -0.31    0.95
   1 -15   3    0.73    1.24
  -1  15  -4  215.81    9.25
   1 -15   4  213.36    9.35
   1  15   4  230.52    9.45
   1  15   4  209.37    8.16
   1  15   5   75.29    4.64
  -1  15  -5   68.01    4.93
   1 -15   5   73.01    5.16
   1  15   5   63.52    4.83
   1  15   6  863.17   23.89
   1 -15   6  881.50   24.94
   1 -15   7   73.49    5.44
   1 -15   8  113.75    7.00
   1 -15   9  225.81   10.63
   1 -15  10    3.57    1.83
   1 -15  11  163.20    9.41
   1 -15  12    5.11    2.25
   1  15  12    5.30    2.23
   1 -15  13   90.68    7.34
   1  15  13   74.30    7.19
   1 -15  14   96.96    7.74
  -1 -16  12    2.59    1.61
  -1  16  12    3.56    2.40
  -1  16  11  158.87    9.95
  -1 -16  11  160.33    8.29
  -1  16  10   70.38    6.19
  -1 -16  10   73.10    5.23
  -1  16   9   49.08    5.14
  -1 -16   9   55.43    4.34
  -1  16   8    1.24    1.66
  -1 -16   8    0.18    1.19
   1  16  -8   -0.77    1.21
  -1 -16   7    1.45    1.24
  -1  16   7    0.23    1.43
   1  16  -7    1.84    1.14
   1  16  -6   66.45    4.34
  -1 -16   6   67.41    4.38
  -1  16   6   65.13    5.19
   1  16  -5   17.87    2.18
  -1 -16   5   17.29    2.26
  -1  16   5   17.70    2.78
   1 -16  -4   35.35    3.87
  -1  16   4   34.09    3.51
  -1 -16   4   35.89    3.06
   1  16  -4   34.17    2.92
   1 -16  -3  179.86    8.95
  -1 -16   3  194.84    7.67
   1  16  -3  178.20    7.32
   1 -16  -2   28.85    3.37
   1  16  -2   26.44    2.59
  -1 -16   2   27.29    2.69
  -1 -16   1  917.18   23.68
   1 -16  -1  879.52   25.40
   1  16  -1  875.47   23.33
  -1  16   1  932.88   25.52
  -1  16   0  101.68    6.05
  -1 -16   0   93.26    5.25
   1 -16   0   97.13    6.08
   1  16   0  101.98    5.33
   1  16   1 1112.89   26.80
   1  16   1 1108.19   28.46
   1 -16   1 1111.15   29.83
  -1  16  -1 1118.02   29.69
   1 -16   2   15.30    2.43
  -1  16  -2   16.42    2.39
   1  16   2   15.65    2.21
   1  16   2   14.99    1.82
   1 -16   3  514.63   16.58
  -1  16  -3  504.44   16.28
   1  16   3  468.07   14.24
   1  16   3  512.82   16.02
   1  16   4    5.12    1.44
   1 -16   4    1.47    1.25
  -1  16  -4    5.22    1.75
   1  16   4    4.98    1.49
   1 -16   5  267.33   11.17
   1  16   5  277.00   10.27
   1  16   6   10.80    2.01
   1 -16   6    7.90    2.02
   1 -16   7  145.02    8.03
   1 -16   8    2.82    1.65
   1 -16   9   61.85    5.48
   1 -16  10   44.98    4.75
   1 -16  11   -2.91    2.37
   1 -16  12    3.24    2.01
   1  16  12    0.66    1.52
   1 -16  13   -0.71    1.80
   1 -16  14    4.59    2.23
  -1  17  12   57.19    6.15
  -1 -17  11   77.14    5.65
  -1  17  11   81.59    7.07
  -1  17  10   25.92    3.94
  -1 -17  10   26.35    3.14
  -1 -17   9   80.22    5.32
  -1  17   9   66.48    5.99
  -1 -17   8    5.51    1.67
  -1  17   8    5.44    1.89
  -1  17   7    2.49    1.70
  -1 -17   7   -0.48    1.07
   1  17  -7   -1.09    1.05
  -1  17   6   19.65    3.09
  -1 -17   6   16.53    2.32
   1  17  -6   20.04    2.47
  -1 -17   5   42.12    3.45
   1  17  -5   38.49    3.25
  -1  17   5   41.14    4.05
   1 -17  -4   48.13    4.60
  -1 -17   4   42.81    3.48
   1  17  -4   45.12    3.52
  -1  17   4   49.03    4.29
   1 -17  -3   77.65    5.72
   1  17  -3   67.83    4.31
  -1 -17   3   82.27    4.78
   1 -17  -2  129.94    7.37
  -1 -17   2  119.04    6.01
   1  17  -2  119.47    5.88
   1  17  -1   11.77    1.93
  -1 -17   1    9.59    1.91
   1 -17  -1   11.30    2.38
  -1 -17   0   70.24    4.56
   1 -17   0   65.23    5.04
   1  17   0   72.69    4.57
   1 -17   1   17.48    2.86
   1  17   1   22.66    2.69
   1  17   1   18.75    1.94
   1 -17   2  323.36   12.32
   1  17   2  299.80    9.93
   1  17   2  302.23   11.24
   1  17   3   11.33    1.84
   1  17   3    8.35    1.87
   1 -17   3    9.26    1.95
   1 -17   4  364.02   13.64
   1  17   4  355.64   11.96
   1 -17   5  143.53    7.88
   1  17   5  142.77    6.97
   1 -17   6   19.78    2.98
   1  17   6   22.65    2.74
   1 -17   7    6.08    1.86
   1 -17   8   84.98    6.27
   1 -17   9   79.30    6.24
   1 -17  10    3.93    2.06
   1 -17  11   58.30    5.63
   1 -17  12   10.73    2.96
   1  17  12    6.40    2.29
   1 -17  13   54.83    5.82
   1 -17  14   30.96    4.97
  -1  18  12   36.26    4.93
  -1  18  11   27.54    4.22
  -1  18  10  105.51    7.99
  -1  18   9   28.38    4.28
  -1 -18   9   24.25    3.09
  -1 -18   8  111.87    6.31
  -1  18   8  103.74    7.39
  -1  18   7    7.46    2.21
  -1 -18   7    4.19    1.57
  -1 -18   6  108.16    5.96
  -1  18   6  102.19    6.84
  -1  18   5    1.70    1.38
  -1 -18   5   -0.85    1.41
   1  18  -5    1.18    1.18
  -1 -18   4  476.65   14.82
   1  18  -4  473.34   14.59
  -1  18   4  443.88   15.89
   1 -18  -3   62.23    5.39
  -1 -18   3   52.32    3.97
   1  18  -3   53.88    3.96
   1 -18  -2   34.58    3.96
   1  18  -2   23.20    2.63
  -1 -18   2   26.21    2.81
  -1 -18   1  224.20    8.96
   1 -18  -1  207.54    9.98
   1  18  -1  211.92    8.65
   1  18   0    0.13    0.88
   1 -18   0   -1.30    1.65
  -1 -18   0    1.97    1.26
   1  18   0    0.95    0.86
   1  18   1  345.19   10.70
   1 -18   1  336.98   13.25
   1  18   1  338.62   12.08
   1  18   2    4.09    1.47
   1  18   2    4.67    1.21
   1 -18   2    2.48    1.50
   1  18   3  228.78    9.79
   1 -18   3  198.07    9.72
   1  18   3  220.94    8.45
   1  18   4  242.12    9.34
   1 -18   4  242.85   10.87
   1 -18   5    8.00    2.16
   1  18   5   11.57    1.92
   1 -18   6    2.17    1.61
   1  18   6    4.01    1.50
   1 -18   7    0.08    1.51
   1 -18   8  110.99    7.41
   1 -18   9   49.92    5.09
   1 -18  10  201.27   10.68
   1 -18  11    3.68    2.25
   1 -18  12  103.70    7.91
   1 -18  13    4.33    2.68
  -1  19  12    5.30    2.46
  -1  19  11  151.22    9.95
  -1  19  10   16.51    3.55
  -1  19   9  369.04   15.73
  -1 -19   8    1.29    1.17
  -1  19   8    0.25    1.50
  -1 -19   7  284.80   10.87
  -1  19   7  240.60   11.72
  -1  19   6    1.92    1.67
  -1 -19   6   -2.00    1.53
  -1  19   5  510.52   17.71
  -1 -19   5  527.02   16.28
   1  19  -4   36.14    3.35
  -1 -19   4   27.73    3.05
  -1  19   4   27.10    3.37
  -1 -19   3  378.63   12.62
   1  19  -3  359.26   12.30
   1 -19  -3  320.05   13.90
   1 -19  -2   10.78    2.43
  -1 -19   2   14.25    2.17
   1  19  -2   13.72    2.15
  -1 -19   1  127.64    6.62
   1  19  -1  114.90    6.23
   1 -19  -1  120.72    7.48
  -1 -19   0  134.84    6.95
   1 -19   0  125.92    7.65
   1  19   0  133.53    5.69
   1  19   0  129.93    6.70
   1  19   1   17.07    1.99
   1  19   1   18.07    2.52
   1 -19   1   19.16    3.02
   1  19   2   28.14    3.21
   1  19   2   29.37    2.64
   1 -19   2   23.95    3.32
   1 -19   3   26.93    3.56
   1  19   3   23.86    2.57
   1  19   4  240.13    9.45
   1 -19   4  253.85   11.33
   1 -19   5   51.36    4.86
   1  19   5   60.68    4.41
   1  19   6    2.43    1.35
   1 -19   6   -0.72    1.56
   1 -19   7   58.42    5.26
   1 -19   8   19.64    3.36
   1 -19   9  400.92   16.06
   1 -19  10    0.03    1.76
   1 -19  11  449.37   17.87
   1 -19  12    0.94    1.87
  -1  20  11  161.43   10.42
  -1  20  10   27.51    4.22
  -1  20   9   83.77    7.04
  -1  20   8  111.70    7.91
  -1 -20   7    1.21    1.37
  -1  20   7    0.39    1.53
  -1  20   6   41.06    4.49
  -1 -20   6   48.51    4.00
  -1 -20   5   50.29    4.13
  -1  20   5   46.76    4.60
  -1 -20   4  100.04    5.88
  -1  20   4  101.07    6.71
   1 -20  -3  216.56   11.04
  -1 -20   3  233.21    9.55
   1 -20  -2    1.89    1.91
  -1 -20   2    3.53    1.45
   1  20  -1  129.00    6.83
  -1 -20   1  136.29    7.08
   1 -20  -1  129.36    8.02
   1  20   0    1.48    1.02
   1 -20   0    0.98    1.43
   1 -20   1  315.78   13.39
   1  20   1  334.54   10.71
   1  20   2    2.09    0.90
   1 -20   2   -1.21    1.87
   1 -20   3  837.39   25.84
   1  20   3  879.82   23.24
   1 -20   4   10.53    2.49
   1  20   4    6.85    1.60
   1  20   5  326.04   12.02
   1 -20   5  331.93   13.81
   1  20   6    6.93    1.90
   1 -20   6    7.49    2.15
   1 -20   7   65.03    5.80
   1 -20   8   15.00    3.16
   1 -20   9  117.05    8.21
   1 -20  10   50.83    5.40
   1 -20  11    2.62    2.17
  -1  21  11   12.57    3.24
  -1  21  10   42.38    5.25
  -1  21   9    7.47    2.45
  -1  21   8   10.06    2.78
  -1  21   7   37.27    4.46
  -1  21   6    5.35    2.14
  -1 -21   5   17.67    2.57
  -1  21   5   23.42    3.34
  -1 -21   4   93.19    5.79
  -1  21   4   85.60    6.29
  -1  21   3   31.66    3.77
  -1 -21   3   28.19    3.19
   1 -21  -3   22.40    3.65
  -1 -21   2   40.73    3.84
   1 -21  -2   35.58    4.39
  -1 -21   1    2.11    1.41
   1 -21  -1   -0.18    1.52
   1 -21   0  342.49   14.30
   1 -21   1    1.21    1.72
   1 -21   2  133.83    8.22
   1 -21   3    9.44    2.48
   1 -21   4  200.92   10.33
   1 -21   5   -2.27    1.90
   1 -21   6  149.80    8.97
   1 -21   7    8.63    2.43
   1 -21   8   14.80    3.12
   1 -21   9   43.41    5.03
   1 -21  10    8.04    2.68
  -1  22  10    9.73    3.09
  -1  22   9    6.83    2.28
  -1  22   8   49.58    5.40
  -1  22   7    0.82    1.84
  -1  22   6  150.90    9.01
  -1  22   5    5.67    2.16
  -1  22   4   60.17    5.32
  -1 -22   3   48.65    4.22
  -1  22   3   47.92    4.68
   1 -22  -2    7.97    2.62
  -1 -22   2    8.20    2.11
  -1 -22   1  111.87    6.70
   1 -22  -1  117.12    7.98
   1 -22   0    3.88    2.12
   1 -22   1  121.71    7.97
   1 -22   2   23.65    3.62
   1 -22   3   11.60    2.83
   1 -22   4   -1.26    1.77
   1 -22   5   66.65    5.93
   1 -22   6   63.34    5.87
   1 -22   7   35.36    4.62
   1 -22   8   11.23    2.76
   1 -22   9    0.49    2.02
  -1  23   8    4.88    2.56
  -1  23   7  163.79    9.86
  -1  23   6    1.92    1.82
  -1  23   5  161.96    9.33
  -1  23   4   12.07    2.58
  -1  23   3   87.68    6.43
   1 -23  -2    0.28    1.69
   1 -23  -1   43.43    4.99
   1 -23   0   50.24    5.27
   1 -23   1    0.61    1.78
   1 -23   2   19.79    3.50
   1 -23   3    3.26    2.13
   1 -23   4    5.56    2.25
   1 -23   5   29.14    4.25
   1 -23   6    8.08    2.62
   1 -23   7   66.02    6.21
   1 -24  -2  125.44    8.74
   1 -24  -1   95.15    7.56
   1 -24   0   43.05    5.03
   1 -24   1  185.72   10.57
   1 -24   2    1.96    1.98
   1 -24   3    7.82    2.26
   1 -24   4   27.95    4.23
   1 -24   5   58.41    5.90
   1 -24   6   58.81    5.90
   1 -25  -1   -0.69    1.92
   1 -25   0  354.60   15.82
   1 -25   1    2.48    2.02
   1 -25   2  263.90   13.14
   1 -25   3    7.61    2.67
   1 -25   4  262.42   13.13
   1 -26  -1   70.72    6.77
   1 -26   0   -0.21    1.94
   1 -26   1   23.65    4.03
   1 -26   2   -3.43    2.65
  -2   0  17   -0.16    1.89
  -2   0  16  214.20   11.96
  -2   0  15    1.06    1.77
  -2   0  14 1126.57   32.73
  -2   0  13    0.85    1.71
  -2   0  12  642.21   20.52
  -2   0  11   -1.08    1.29
  -2   0  10 1226.82   31.84
   2   0  -9    0.95    1.15
  -2   0   8  466.13   14.75
   2   0  -8  465.29   14.91
  -2   0   7    0.82    1.36
   2   0  -7    1.83    1.18
  -2   0   6  212.50    7.64
  -2   0   6  219.13    8.15
  -2   0   5    1.62    0.99
  -2   0   5    1.73    1.09
  -2   0   4    1.91    0.80
  -2   0   4    1.78    1.07
   2   0  -3    0.97    0.84
  -2   0   3    1.96    0.79
  -2   0   2   15.85    1.40
   2   0  -2   12.99    1.40
  -2   0   1    1.27    0.72
   2   0  -1    1.99    0.89
   2   0   0 9999.00  206.49
  -2   0   0 9651.26  206.51
  -2   0  -1   -0.14    0.69
   2   0   1    0.18    0.89
  -2   0  -2  634.30   16.03
   2   0   2  666.93   16.19
   2   0   3    0.09    1.15
  -2   0  -3    1.05    0.90
   2   0   4  778.02   19.67
  -2   0  -4  764.57   19.70
  -2   0  -5   -0.62    1.03
   2   0   5    2.22    1.28
  -2   0  -6 2928.16   66.31
   2   0   6 2935.52   66.23
  -2   0  -7    0.34    1.10
   2   0   7   -0.88    1.20
  -2   0  -8 1101.11   28.90
   2   0   8 1065.06   28.66
   2   0   9    0.23    1.28
   2   0  10  479.88   16.65
   2   0  11    1.93    1.90
   2   0  12  259.45   12.16
   2   0  13    2.46    2.42
   2   0  14   19.55    3.95
   2   0  15    3.30    1.63
  -2  -1  17   72.26    6.80
  -2   1  17   67.00    6.78
  -2   1  16   49.41    5.64
  -2  -1  16   43.02    5.34
  -2   1  15  188.11   10.72
  -2  -1  15  195.01   10.75
  -2   1  14    5.23    2.23
  -2  -1  14    3.03    1.73
  -2  -1  13  599.62   19.92
  -2   1  13  580.28   20.03
  -2  -1  12   12.07    2.47
  -2   1  12   12.54    2.60
  -2   1  11  123.32    7.01
  -2  -1  11  113.35    6.63
  -2  -1  10  266.90   10.71
   2   1 -10  280.80   11.28
  -2  -1   9  224.42    9.01
   2  -1  -9  226.01    9.61
  -2   1   9  219.27    9.49
   2   1  -9  229.83    9.55
  -2  -1   8  310.62   10.51
   2   1  -8  318.35   11.20
   2  -1  -8  304.65   11.23
  -2   1   8  311.02   11.30
  -2   1   7   15.37    2.43
   2   1  -7   13.85    2.09
  -2  -1   7   15.65    2.26
  -2   1   7   14.77    2.05
  -2   1   6  385.15   11.89
  -2  -1   6  396.88   12.06
  -2   1   6  399.19   12.34
   2   1  -6  405.88   12.15
  -2  -1   5    0.37    0.71
  -2   1   5    0.37    0.89
  -2   1   5    0.41    1.05
  -2  -1   5    1.08    1.05
  -2  -1   4  230.75    6.98
  -2   1   4  227.92    7.42
  -2  -1   4  252.51    7.68
  -2   1   4  237.25    7.86
  -2  -1   3   24.84    2.01
  -2  -1   3   27.35    1.79
   2  -1  -3   28.91    2.22
  -2   1   3   26.59    2.03
  -2   1   2 1400.51   31.86
   2  -1  -2 1436.29   31.95
   2   1  -2 1443.33   31.17
  -2  -1   2 1404.94   31.16
  -2  -1   1   44.93    2.02
   2  -1  -1   53.29    2.57
  -2   1   1   50.66    2.51
   2   1  -1   54.76    2.17
   2   1   0 1200.95   26.35
  -2   1   0 1270.07   27.11
   2  -1   0 1299.21   27.17
   2   1   1  191.02    5.70
  -2  -1  -1  181.87    5.60
  -2   1  -1  181.13    6.00
   2  -1   1  195.02    6.03
  -2  -1  -2  107.82    4.19
   2   1   2  109.51    4.35
   2  -1   2  116.04    4.59
  -2   1  -2  116.57    4.51
  -2   1  -3   77.02    3.89
   2   1   3   76.90    3.72
   2  -1   3   74.08    3.89
  -2  -1  -3   81.18    3.75
  -2  -1  -4   25.65    2.40
   2  -1   4   28.16    2.51
  -2   1  -4   25.96    2.41
   2   1   4   24.37    2.34
   2   1   5 1326.99   31.63
  -2  -1  -5 1286.48   31.64
  -2   1  -5 1320.86   31.85
   2  -1   5 1309.82   31.68
  -2   1  -6   64.65    4.29
   2  -1   6   69.74    4.35
  -2  -1  -6   60.52    4.29
   2   1   6   63.09    4.20
   2  -1   7  921.45   24.70
   2   1   7  928.81   24.72
  -2  -1  -7  926.95   24.71
  -2   1  -7  928.98   24.88
   2   1   8  166.47    7.79
  -2   1  -8  173.21    7.92
   2  -1   8  150.13    7.50
   2   1   9  146.53    7.75
   2  -1   9  150.17    7.85
  -2   1  -9  150.69    7.88
   2   1  10  207.43    9.69
   2  -1  10  205.48    9.69
   2   1  11   40.19    4.41
   2  -1  11   45.52    4.56
   2   1  12  676.30   22.13
   2  -1  12  640.81   21.77
   2  -1  13   25.29    3.98
   2   1  13   20.96    3.62
   2  -1  14  284.04   13.72
   2   1  14  292.74   14.00
   2  -1  15   29.21    4.50
   2   1  15   45.17    5.50
  -2  -2  17   58.29    6.08
  -2  -2  16    6.57    2.47
  -2   2  16    5.36    2.42
  -2   2  15    5.66    2.24
  -2  -2  15    1.83    2.14
  -2   2  14    0.90    1.95
  -2  -2  14    0.52    1.55
  -2   2  13    9.51    2.50
  -2  -2  13   10.11    2.38
  -2  -2  12    4.02    1.56
  -2   2  12    5.83    2.11
  -2  -2  11  120.47    6.77
   2   2 -10   21.06    2.77
  -2  -2  10   21.70    2.75
  -2   2  10   18.91    2.89
  -2  -2   9  415.12   13.60
   2   2  -9  436.20   14.38
  -2   2   9  429.36   14.38
  -2   2   9  414.28   14.56
   2  -2  -9  455.46   15.02
   2   2  -8    2.94    1.41
  -2   2   8    1.99    1.34
  -2  -2   8    1.13    1.13
  -2   2   8   -0.79    1.00
  -2   2   7  817.41   21.92
  -2   2   7  815.59   22.27
   2   2  -7  796.43   21.69
  -2  -2   7  851.60   21.15
   2   2  -6    6.37    1.38
  -2   2   6    8.13    1.82
  -2   2   6    7.35    1.54
  -2  -2   6    7.86    1.55
  -2   2   5  798.82   20.47
  -2   2   5  791.75   20.67
  -2  -2   5  808.45   20.16
   2   2  -5  805.26   20.13
  -2   2   4    4.21    1.40
  -2  -2   4    5.36    0.95
  -2   2   4    6.78    1.30
  -2  -2   4    4.69    1.17
  -2  -2   3  310.28    8.19
   2  -2  -3  333.88    9.39
  -2   2   3  310.41    9.25
  -2  -2   3  342.41    8.92
   2  -2  -2  172.31    5.68
  -2  -2   2  166.61    4.43
  -2   2   2  172.86    5.65
   2   2  -2  142.70    4.31
  -2  -2   1   25.73    1.30
   2  -2  -1   26.77    2.10
  -2   2   1   29.26    1.96
   2   2  -1   32.04    1.42
   2   2   0 3804.06   77.63
   2  -2   0 4066.53   79.09
  -2   2   0 4011.09   79.03
  -2  -2  -1    0.96    0.65
   2  -2   1    2.43    1.24
  -2   2  -1    1.13    0.89
   2   2   1    0.65    0.82
  -2   2  -2    2.98    1.06
  -2  -2  -2    3.63    0.96
   2  -2   2    3.83    1.40
   2   2   2    2.08    0.98
  -2  -2  -3   14.68    1.60
   2  -2   3   16.73    2.03
   2   2   3   14.11    1.70
  -2   2  -3   13.30    1.67
   2   2   4   66.16    3.69
  -2   2  -4   62.54    3.78
  -2  -2  -4   62.39    3.59
   2  -2   4   72.67    3.93
   2   2   5   29.81    2.85
  -2   2  -5   24.69    2.53
  -2  -2  -5   29.54    2.68
   2  -2   5   27.21    2.69
   2   2   6  368.00   11.94
   2  -2   6  364.68   12.01
  -2   2  -6  376.78   12.25
  -2  -2  -6  367.85   11.93
   2   2   7  304.01   11.08
   2  -2   7  291.08   11.01
  -2   2  -7  309.63   11.24
   2  -2   8    0.29    1.19
  -2   2  -8   -0.71    1.10
   2   2   8    0.49    1.19
   2  -2   9  328.96   12.51
   2   2   9  332.06   12.65
   2  -2  10   36.26    3.86
   2   2  10   33.01    3.78
   2   2  11  278.41   12.16
   2  -2  11  268.37   11.82
   2   2  12    1.18    1.62
   2  -2  12    3.79    1.86
   2   2  13  478.90   18.48
   2  -2  13  500.58   18.66
   2  -2  14    8.31    2.60
   2   2  14    6.51    2.52
   2   2  15  241.83   13.12
   2  -2  15  241.26   12.99
  -2  -3  17   16.64    3.49
  -2   3  16   30.64    4.54
  -2  -3  16   29.84    4.40
  -2   3  15   64.36    6.22
  -2  -3  15   73.51    6.31
  -2  -3  14    1.42    1.59
  -2   3  14    3.46    2.20
  -2   3  13    6.02    2.39
  -2  -3  13    6.01    1.97
  -2  -3  12   12.38    2.55
  -2   3  12   15.64    2.96
  -2  -3  11   58.20    4.54
  -2   3  10  227.81   10.36
  -2  -3  10  226.54    9.42
   2   3 -10  249.95   10.28
  -2  -3   9   34.08    3.13
  -2   3   9   38.77    3.80
   2   3  -9   34.96    3.35
  -2   3   9   36.02    3.57
  -2  -3   8  473.73   14.25
   2   3  -8  491.90   15.08
  -2   3   8  489.47   15.71
  -2   3   8  513.87   15.67
   2   3  -7   17.65    2.20
  -2   3   7   18.72    2.46
  -2   3   7   20.76    2.45
  -2  -3   7   13.00    1.84
  -2   3   6  316.33   10.50
  -2   3   6  300.36   10.58
   2   3  -6  315.58   10.01
  -2  -3   6  317.62    9.37
   2   3  -5   14.20    1.63
  -2   3   5   18.77    2.29
  -2   3   5   14.35    1.87
  -2  -3   5   14.66    1.83
  -2  -3   5   14.52    1.47
   2  -3  -4 1197.34   28.45
  -2   3   4 1144.22   28.37
  -2  -3   4 1223.23   27.57
   2  -3  -3  128.42    5.15
  -2  -3   3  121.64    3.70
  -2   3   3  127.44    5.11
  -2  -3   3  114.71    4.25
   2  -3  -2  169.92    5.92
  -2   3   2  151.58    5.73
  -2  -3   2  159.45    4.07
  -2  -3   2  170.00    4.81
   2  -3  -1  209.21    6.74
  -2   3   1  198.29    6.55
   2  -3   0 1658.82   33.97
  -2   3   0 1670.22   33.91
  -2   3  -1   43.30    2.64
   2   3   1   35.74    1.94
  -2  -3  -1   33.36    1.87
   2  -3   1   39.65    2.74
  -2   3  -2   31.73    2.45
  -2  -3  -2   33.79    2.09
   2  -3   2   33.82    2.72
   2   3   2   36.88    2.23
   2   3   3    2.51    1.14
   2  -3   3    4.29    1.40
  -2   3  -3    2.77    1.09
  -2  -3  -3    2.64    0.95
   2  -3   4    8.85    1.74
  -2  -3  -4   10.83    1.62
  -2   3  -4    9.47    1.61
   2   3   4    9.47    1.65
   2   3   5  826.23   21.18
   2  -3   5  807.24   21.34
  -2   3  -5  804.65   21.33
  -2   3  -6  101.75    5.58
   2  -3   6   97.09    5.51
   2   3   6  105.46    5.59
   2   3   7  339.79   11.99
   2  -3   7  348.30   12.11
  -2   3  -7  362.31   12.32
  -2   3  -8  193.04    8.82
   2   3   8  205.17    8.95
   2  -3   8  204.54    8.86
   2   3   9    3.01    1.64
   2  -3   9    0.41    1.28
  -2  -3  -9    0.42    1.16
   2   3  10  843.73   24.93
   2  -3  10  837.43   24.68
   2  -3  11    4.53    1.78
   2   3  11   -0.84    1.95
   2   3  12   86.14    6.57
   2  -3  12   84.06    6.58
   2   3  13    8.45    2.45
   2  -3  13    6.36    2.48
   2  -3  14  425.64   17.46
   2   3  14  413.37   17.43
   2   3  15    3.93    2.16
   2  -3  15    9.18    2.32
  -2  -4  17   41.94    5.20
  -2   4  16  290.56   14.57
  -2  -4  16  279.13   13.49
  -2  -4  15    2.95    1.95
  -2   4  15    5.08    2.37
  -2  -4  14  217.11   10.74
  -2   4  14  218.91   11.54
  -2   4  13   23.09    3.71
  -2  -4  13   13.95    2.71
  -2  -4  12 1047.51   28.97
  -2  -4  11    0.95    1.29
  -2   4  11    1.92    1.63
  -2  -4  10  367.48   12.86
   2   4 -10  394.29   13.86
  -2   4  10  405.54   14.64
   2   4  -9   55.67    4.23
  -2   4   9   52.84    4.37
  -2  -4   9   55.50    3.90
  -2   4   9   60.80    4.81
  -2   4   8  280.32   10.83
  -2   4   8  299.47   11.19
  -2  -4   8  262.62    9.32
   2   4  -8  288.36   10.28
  -2   4   7  379.13   12.40
  -2  -4   7  358.29   10.83
  -2   4   7  355.83   12.37
   2   4  -7  352.64   11.46
  -2   4   6    4.45    1.57
   2   4  -6    9.13    1.57
  -2   4   6    7.03    1.60
  -2  -4   6    7.36    1.29
  -2   4   5  738.04   20.00
  -2   4   5  745.93   19.89
   2   4  -5  733.98   18.63
  -2  -4   5  762.49   17.91
  -2   4   4   23.70    2.31
  -2  -4   4   20.85    1.42
  -2  -4   4   20.16    1.76
   2  -4  -4   23.98    2.39
   2   4  -4   22.19    1.80
  -2  -4   3  420.94    9.54
  -2  -4   3  406.12    9.55
   2  -4  -3  392.38   11.75
  -2  -4   3  420.69   10.41
  -2   4   3  393.44   11.75
  -2   4   2  403.80   11.08
   2  -4  -2  428.49   11.24
   2  -4  -1  220.89    7.29
  -2   4   1  207.94    7.03
   2  -4   0   16.15    1.92
  -2   4   0   16.97    1.79
   2   4   0   13.33    0.88
  -2   4  -1  501.99   12.87
   2   4   1  442.85   11.27
   2  -4   1  479.12   12.96
   2  -4   2 1246.86   30.00
  -2   4  -2 1249.35   29.89
   2   4   2 1293.14   28.81
  -2   4  -3   18.14    2.08
   2   4   3   19.55    1.87
   2  -4   3   16.01    2.15
   2  -4   4 1978.54   45.33
  -2   4  -4 1939.58   45.31
   2   4   4 1978.34   44.74
  -2   4  -5    5.67    1.46
   2  -4   5    5.35    1.58
   2   4   5    4.52    1.38
   2   4   6  560.96   16.31
   2  -4   6  559.76   16.54
  -2   4  -6  570.73   16.71
  -2   4  -7    1.88    1.12
   2  -4   7    2.81    1.54
   2   4   7    1.08    1.35
  -2  -4  -7    1.16    1.19
   2  -4   8  657.18   19.88
  -2   4  -8  733.34   20.51
   2   4   8  644.60   19.73
  -2  -4  -8  657.69   19.59
   2   4   9  305.05   12.15
  -2  -4  -9  336.67   12.35
   2  -4   9  309.54   12.26
   2   4  10  317.58   12.86
   2  -4  10  309.38   12.63
   2   4  11  151.69    8.74
   2  -4  11  149.08    8.53
   2  -4  12    1.61    1.80
   2   4  12    3.36    1.88
   2   4  13   71.86    6.42
   2  -4  13   80.86    6.64
   2  -4  14   -1.35    1.67
   2   4  14    0.05    1.78
   2   4  15  106.59    8.48
   2  -4  15  119.95    8.82
  -2  -5  17  241.30   12.81
  -2  -5  16    7.86    2.82
  -2   5  16    1.40    1.54
  -2  -5  15  288.80   13.13
  -2   5  15  271.21   13.76
  -2   5  14    1.04    2.06
  -2  -5  14    0.02    1.44
  -2  -5  13  534.83   18.09
  -2  -5  12   50.64    4.44
  -2   5  11  785.53   24.62
  -2  -5  11  817.30   22.94
   2   5 -10    0.87    1.18
  -2  -5  10    0.56    1.02
  -2   5  10    1.97    1.77
  -2   5   9  531.53   17.19
   2   5  -9  514.58   16.27
  -2   5   9  518.78   17.20
  -2  -5   9  534.08   15.57
  -2   5   8  104.14    5.99
  -2  -5   8   89.61    4.70
   2   5  -8   96.14    5.31
  -2   5   8   97.92    5.92
  -2   5   7  506.38   15.72
   2   5  -7  509.63   14.63
  -2  -5   7  475.60   13.68
  -2   5   7  509.85   15.82
   2   5  -6    0.83    0.74
  -2   5   6    2.44    1.28
  -2   5   6    2.91    1.42
  -2  -5   6    1.27    0.77
  -2  -5   5   46.18    2.45
   2   5  -5   46.69    2.86
  -2   5   5   54.03    3.82
  -2   5   5   48.23    3.61
   2  -5  -4   69.36    4.04
  -2  -5   4   67.68    2.53
  -2   5   4   68.42    4.02
   2   5  -4   59.20    2.89
  -2  -5   3    6.75    0.59
   2  -5  -3    6.07    1.63
  -2   5   3    6.41    1.43
   2  -5  -2  136.71    5.74
  -2   5   2  136.96    5.64
   2  -5  -1  345.58   10.42
  -2   5   1  342.89   10.32
  -2   5   0   47.67    2.97
   2   5   0   44.73    1.73
   2  -5   0   43.91    3.07
  -2   5  -1  903.12   22.11
   2  -5   1  895.62   22.11
   2   5   1  882.93   20.27
   2   5   2   25.96    1.86
   2  -5   2   29.98    2.63
  -2   5  -2   26.67    2.51
   2  -5   3 2528.39   57.29
   2   5   3 2578.01   56.18
  -2   5  -3 2518.35   57.30
  -2   5  -4    7.66    1.61
   2  -5   4    6.51    1.60
   2   5   4   10.04    1.72
  -2  -5  -5 1813.80   41.24
   2   5   5 1758.62   41.51
  -2   5  -5 1793.40   42.22
   2  -5   5 1752.87   42.03
  -2  -5  -6    6.21    1.39
   2  -5   6    7.38    1.84
   2   5   6    3.02    1.54
  -2   5  -6    3.76    1.20
  -2  -5  -7  531.17   15.99
  -2   5  -7  527.43   16.59
   2  -5   7  532.16   16.38
   2   5   7  521.62   16.17
  -2  -5  -8   43.61    3.75
   2  -5   8   38.40    3.75
   2   5   8   35.57    3.62
  -2   5  -8   42.18    3.86
  -2  -5  -9  919.45   25.53
   2   5   9  928.65   25.89
   2  -5   9  850.02   25.40
   2   5  10   37.15    4.10
   2  -5  10   33.48    3.93
   2  -5  11  123.96    7.73
   2   5  11  124.52    8.04
   2   5  12  200.26   10.60
   2  -5  12  202.04   10.58
   2  -5  13    7.33    2.67
   2   5  13   13.98    3.21
   2   5  14   89.85    7.50
   2  -5  14   98.81    7.78
   2   5  15    5.26    2.54
   2  -5  15   -0.06    1.79
  -2  -6  17  107.64    8.09
  -2   6  16   84.24    7.71
  -2  -6  16   90.06    7.18
  -2  -6  15   45.07    4.87
  -2   6  15   42.87    5.41
  -2   6  14   44.68    5.19
  -2  -6  14   47.28    4.71
  -2  -6  13   20.64    3.17
  -2  -6  12   13.90    2.47
  -2   6  12   14.26    2.95
  -2   6  11  105.25    7.20
  -2  -6  11  101.13    6.00
   2   6 -10    0.41    1.01
  -2   6  10    0.76    1.46
  -2  -6  10    1.98    1.15
  -2  -6   9  333.35   11.15
  -2   6   9  335.52   13.02
   2   6  -9  350.19   12.14
  -2   6   8    6.77    1.78
  -2  -6   8    8.29    1.52
  -2   6   8    4.39    1.76
   2   6  -8    5.54    1.44
  -2  -6   7  695.65   17.50
  -2   6   7  658.55   19.65
  -2   6   7  652.04   19.61
   2   6  -7  676.18   18.32
  -2   6   6   64.44    4.40
   2   6  -6   57.73    3.47
  -2   6   6   58.81    4.31
  -2  -6   6   53.97    2.97
  -2   6   5 1430.76   35.17
  -2   6   5 1444.41   35.33
   2   6  -5 1415.64   33.10
  -2  -6   5 1469.58   32.23
   2  -6  -4  101.84    5.19
  -2   6   4   94.47    4.99
  -2  -6   4   84.99    2.99
   2   6  -4   88.84    3.62
   2  -6  -3 1039.68   25.18
  -2   6   3 1005.42   25.22
   2   6  -3  984.35   22.40
  -2   6   2  305.20   10.00
   2  -6  -2  318.19   10.15
   2  -6  -1  171.53    6.59
  -2   6   1  165.98    6.45
   2   6   0   90.59    2.85
   2  -6   0   98.47    4.65
   2   6   0   85.08    2.80
  -2   6   0   98.12    4.54
  -2   6  -1  117.89    5.09
   2   6   1   99.21    3.57
   2  -6   1  116.07    5.08
  -2  -6  -1   94.70    3.03
  -2   6  -2 1194.61   29.21
  -2  -6  -2 1191.16   27.04
   2   6   2 1245.59   27.71
   2  -6   2 1200.30   29.23
  -2  -6  -3  285.67    8.51
   2   6   3  309.36    9.23
  -2   6  -3  319.48   10.28
   2  -6   3  303.79   10.21
   2  -6   4  293.23   10.33
   2   6   4  323.33    9.98
  -2   6  -4  306.08   10.51
  -2  -6  -4  335.64    9.62
  -2  -6  -5   18.37    1.97
   2   6   5   17.77    2.22
  -2   6  -5   19.22    2.35
   2  -6   5   16.04    2.36
   2  -6   6   54.38    4.04
   2   6   6   51.01    3.77
  -2   6  -6   51.93    4.00
  -2  -6  -6   53.35    3.62
   2   6   7  108.67    5.99
  -2   6  -7  113.21    6.29
   2  -6   7  105.57    6.09
  -2  -6  -7  106.17    5.68
   2  -6   8    0.55    1.24
  -2  -6  -8    1.88    1.33
   2   6   8    2.85    1.54
  -2   6  -8   -1.03    1.40
   2  -6   9  520.56   17.47
  -2  -6  -9  541.85   17.31
   2   6   9  535.67   17.73
   2  -6  10   14.36    2.74
   2   6  10   12.86    2.66
   2  -6  11  451.64   16.70
   2   6  11  453.35   16.95
   2   6  12    6.75    2.08
   2  -6  12    5.02    2.19
   2  -6  13  305.50   13.93
   2   6  13  296.10   14.00
   2   6  14    1.10    1.87
   2  -6  14    3.36    1.99
   2   6  15  380.45   17.28
   2  -6  15  370.05   16.76
  -2  -7  17   36.14    4.84
  -2  -7  16    5.33    2.30
  -2   7  15   74.10    6.94
  -2  -7  15   67.32    5.93
  -2  -7  14   -0.33    1.47
  -2  -7  13    6.98    2.03
  -2   7  12   61.94    5.83
  -2  -7  12   56.97    4.71
  -2  -7  11   10.81    2.03
  -2   7  11    9.31    2.33
  -2   7  10   24.34    3.36
  -2  -7  10   24.38    2.69
   2   7 -10   24.45    2.93
   2   7  -9    2.26    1.24
  -2  -7   9   -0.30    1.06
  -2   7   9    3.89    1.90
  -2   7   8  173.53    8.35
  -2   7   8  163.12    8.24
  -2  -7   8  171.60    6.70
   2   7  -8  173.29    7.38
  -2   7   7    7.37    1.99
   2   7  -7    4.96    1.24
  -2  -7   7    4.65    1.15
  -2   7   7    3.18    1.46
  -2   7   6  758.21   21.42
  -2   7   6  728.33   21.16
  -2  -7   6  777.88   18.53
   2   7  -6  747.80   19.31
  -2   7   5    9.86    1.87
   2   7  -5    6.37    1.10
  -2   7   5    6.89    1.69
   2  -7  -5    6.93    1.95
  -2  -7   5    6.29    0.98
   2   7  -4  592.00   15.10
  -2  -7   4  653.47   14.48
   2  -7  -4  627.78   17.72
  -2   7   4  610.71   17.64
   2  -7  -3   40.24    3.21
   2   7  -3   33.78    1.71
  -2  -7   3   32.90    1.30
  -2   7   3   34.94    3.09
   2  -7  -2  818.70   21.20
  -2   7   2  802.89   21.16
   2  -7  -1   59.34    3.81
  -2   7   1   57.57    3.68
  -2   7   0    7.13    1.50
   2   7   0    9.29    0.87
   2  -7   0    9.63    1.80
   2   7   1   35.70    2.05
  -2  -7  -1   41.87    1.64
   2  -7   1   44.40    3.22
  -2   7  -1   45.31    3.17
  -2   7  -2  151.54    6.37
   2   7   2  151.43    5.18
   2  -7   2  135.57    6.29
  -2  -7  -2  135.60    4.47
  -2   7  -3  769.94   21.05
   2   7   3  822.26   20.01
   2  -7   3  804.65   21.19
  -2  -7  -3  809.16   19.27
   2   7   4   99.27    4.74
   2  -7   4   88.55    4.98
  -2   7  -4   96.93    5.20
  -2  -7  -4   91.31    4.24
  -2  -7  -5   22.59    2.17
  -2   7  -5   25.94    2.73
   2  -7   5   25.65    2.81
   2   7   5   16.79    2.14
   2  -7   6   79.98    5.07
  -2   7  -6   75.06    4.96
   2   7   6   75.08    4.82
  -2  -7  -6   77.41    4.43
   2  -7   7   53.20    4.25
   2   7   7   55.68    4.23
  -2   7  -7   52.42    4.21
  -2  -7  -7   52.78    3.90
   2   7   8  193.56    8.90
   2  -7   8  192.16    8.95
  -2   7  -8  209.22    9.43
  -2  -7  -8  197.76    8.69
   2   7   9   94.24    6.25
   2  -7   9   95.11    6.40
  -2  -7  -9  100.29    6.14
   2  -7  10  143.53    8.11
   2   7  10  139.65    8.07
   2   7  11    3.79    2.11
   2  -7  11    2.31    1.80
   2   7  12  581.03   20.70
   2  -7  12  583.18   20.42
   2   7  13   -0.06    1.89
   2  -7  13   -0.06    1.79
   2   7  14   40.72    5.09
   2  -7  14   38.54    4.87
   2   7  15    9.52    3.09
   2  -7  15   14.15    3.43
  -2  -8  17   23.16    4.11
  -2  -8  16    1.17    1.86
  -2   8  15   19.90    3.83
  -2  -8  15   16.97    3.25
  -2  -8  14  110.58    7.21
  -2  -8  13    6.67    2.02
  -2   8  12  125.52    8.37
  -2  -8  12  113.58    6.64
  -2   8  11   52.73    5.26
  -2  -8  11   44.68    3.87
  -2  -8  10  259.30    9.83
  -2   8  10  257.00   11.63
   2   8 -10  269.05   10.69
  -2   8   9  281.90   11.83
  -2  -8   9  267.51    9.65
   2   8  -9  284.85   10.60
   2   8  -8   15.13    2.14
  -2   8   8   19.85    2.90
  -2  -8   8   13.40    1.87
  -2   8   7  222.28    9.54
  -2  -8   7  208.64    7.24
   2   8  -7  211.32    7.91
  -2   8   7  211.21    9.28
   2   8  -6    1.93    0.91
  -2   8   6    2.28    1.42
  -2   8   6    0.40    1.15
  -2  -8   6    1.05    0.80
   2  -8  -5  564.98   16.97
  -2   8   5  572.64   17.08
   2   8  -5  540.02   14.47
  -2  -8   5  579.37   13.83
   2   8  -4   17.15    1.21
  -2  -8   4   17.04    1.19
   2  -8  -4   18.35    2.56
  -2   8   4   17.90    2.33
   2   8  -4   18.03    1.47
   2   8  -3  767.80   17.72
   2   8  -3  785.52   17.36
  -2  -8   3  804.60   17.39
  -2   8   3  776.40   21.25
   2  -8  -3  772.99   21.11
  -2   8   2   40.82    3.25
   2  -8  -2   49.65    3.64
   2   8  -2   39.24    1.43
   2  -8  -1  838.22   21.56
  -2   8   1  798.44   21.32
   2   8  -1  809.88   17.93
  -2   8   0    9.70    1.72
   2   8   0   10.74    0.99
   2  -8   0    9.77    1.80
   2   8   1  270.58    7.93
   2  -8   1  300.58    9.98
  -2   8  -1  301.95    9.89
   2  -8   2  528.20   15.38
  -2   8  -2  560.97   15.55
   2   8   2  508.80   13.71
  -2  -8  -2  537.86   12.86
  -2   8  -3  106.30    5.37
  -2  -8  -3   88.42    3.78
   2  -8   3   90.02    5.07
   2   8   4   43.55    3.13
  -2   8  -4   56.39    3.90
  -2  -8  -4   49.07    2.91
   2  -8   4   49.68    3.73
   2  -8   5   38.44    3.49
   2   8   5   38.85    3.22
  -2  -8  -5   37.13    2.84
  -2   8  -5   40.21    3.48
   2   8   6    7.86    1.70
   2  -8   6    9.71    2.00
  -2   8  -6   13.45    2.31
  -2  -8  -6    5.55    1.35
   2  -8   7  107.08    6.24
  -2   8  -7  118.68    6.59
  -2  -8  -7  118.02    6.06
   2   8   7  106.81    6.13
   2  -8   8  150.63    7.83
  -2  -8  -8  155.69    7.46
   2   8   8  149.67    7.74
   2  -8   9  171.51    8.66
   2   8   9  162.22    8.51
  -2  -8  -9  172.37    8.35
   2  -8  10   28.56    3.66
   2   8  10   33.38    3.91
   2  -8  11  321.56   13.64
   2   8  11  337.89   14.10
   2  -8  12    6.65    2.33
   2   8  12   10.89    2.76
   2  -8  13  282.80   13.35
   2   8  13  259.98   13.17
   2  -8  14    7.54    2.72
   2   8  14   12.16    3.25
   2  -8  15   51.14    5.89
  -2  -9  16   23.75    3.92
  -2  -9  15  435.82   16.83
  -2   9  15  462.36   19.38
  -2  -9  14    1.10    1.40
  -2  -9  13  270.61   11.48
  -2  -9  12   -0.20    1.17
  -2   9  12   -1.21    1.98
  -2  -9  11  369.82   12.93
  -2   9  11  365.77   15.11
  -2  -9  10   61.71    4.41
   2   9 -10   63.19    4.73
  -2   9  10   61.11    5.47
  -2  -9   9  340.01   11.17
   2   9  -9  339.74   11.96
  -2   9   9  332.12   13.35
   2   9  -8   18.52    2.30
  -2  -9   8   17.09    2.03
  -2   9   8   17.46    2.81
   2   9  -7  211.86    7.92
  -2   9   7  226.73    9.86
  -2  -9   7  203.73    7.17
  -2   9   7  208.93    9.38
  -2  -9   6   28.46    2.03
  -2   9   6   24.97    2.98
  -2   9   6   28.72    3.14
   2   9  -6   27.30    2.28
  -2   9   5   78.90    5.14
   2   9  -5   74.96    3.57
   2   9  -5   70.63    3.13
   2  -9  -5   73.58    4.99
  -2  -9   5   74.02    3.12
  -2   9   4  799.22   21.58
   2   9  -4  732.25   17.86
   2   9  -4  770.67   17.49
  -2  -9   4  759.36   17.46
   2  -9  -4  753.73   21.21
   2   9  -3  328.59    8.43
   2  -9  -3  367.77   11.97
   2   9  -3  335.47    8.37
  -2  -9   3  352.04    8.39
  -2   9   3  365.11   12.02
   2  -9  -2  389.87   12.69
   2   9  -2  399.52    9.30
  -2   9   2  380.09   12.60
  -2  -9   2  389.63    9.32
   2  -9  -1  361.57   11.75
   2   9  -1  346.69    8.60
  -2   9   1  343.18   11.51
   2   9   0  137.03    4.53
   2  -9   0  155.59    6.75
  -2   9   0  143.23    6.43
   2   9   1  972.26   23.31
   2  -9   1 1021.80   25.83
  -2   9  -1 1043.85   25.81
   2   9   2   35.62    2.41
   2  -9   2   33.85    3.11
  -2   9  -2   37.54    3.17
   2   9   3 1896.04   43.39
  -2   9  -3 1913.77   45.00
  -2  -9  -3 1905.41   42.22
   2  -9   3 1876.76   44.83
   2  -9   4    3.32    1.24
  -2  -9  -4    5.73    1.16
  -2   9  -4    7.36    1.53
  -2  -9  -5  819.42   21.08
   2  -9   5  818.25   22.73
  -2   9  -5  839.96   22.93
  -2  -9  -6   11.44    1.85
   2   9   6   15.07    2.20
   2  -9   6   11.63    2.22
  -2   9  -6   14.95    2.44
  -2   9  -7  913.15   24.70
   2  -9   7  835.54   24.18
  -2  -9  -7  844.40   23.24
   2   9   7  862.39   24.07
  -2  -9  -8   10.43    2.05
   2  -9   8    6.59    1.91
   2   9   8    9.01    2.03
   2  -9   9  209.35   10.14
   2   9   9  235.01   10.52
   2   9  10   81.72    6.16
   2  -9  10   72.93    5.84
   2   9  11   96.73    7.15
   2  -9  11  107.25    7.35
   2  -9  12   18.72    3.27
   2   9  12   25.10    3.88
   2   9  13   27.47    4.28
   2  -9  13   24.38    4.04
   2  -9  14  157.27   10.09
   2   9  14  167.32   10.60
   2  -9  15   42.29    5.49
  -2 -10  15   21.50    3.49
  -2 -10  14  193.38    9.75
  -2 -10  13    0.75    1.36
  -2  10  13    2.21    1.76
  -2  10  12  236.23   12.20
  -2 -10  12  245.90   10.25
  -2  10  11    8.16    2.42
  -2 -10  11    4.07    1.49
  -2  10  10  279.34   12.68
   2  10 -10  286.74   11.25
  -2 -10  10  302.84   10.64
  -2  10   9    9.28    2.23
   2  10  -9   10.57    1.82
  -2 -10   9   12.83    1.92
  -2 -10   8  366.06   11.21
   2  10  -8  360.31   11.90
  -2  10   8  347.71   13.61
  -2  10   7  412.61   14.66
  -2 -10   7  424.68   11.97
   2  10  -7  414.46   12.61
  -2  10   6   22.11    2.98
   2  10  -6   20.66    1.79
  -2 -10   6   19.55    1.75
  -2  10   6   25.17    3.06
   2  10  -6   17.96    1.89
   2 -10  -5  466.35   15.00
  -2  10   5  457.39   14.92
   2  10  -5  447.15   11.47
  -2 -10   5  443.50   11.41
   2  10  -5  418.58   11.77
   2  10  -4   15.22    1.36
   2 -10  -4   17.80    2.66
  -2 -10   4   13.68    1.19
  -2  10   4   16.68    2.46
   2  10  -4   13.60    1.22
   2  10  -3  292.49    7.52
   2 -10  -3  325.15   11.13
  -2 -10   3  290.58    7.56
  -2  10   3  315.32   11.13
   2  10  -3  282.07    7.29
   2 -10  -2  324.22   11.17
   2  10  -2  300.73    7.78
  -2  10   2  298.00   10.90
  -2 -10   2  309.87    7.87
   2 -10  -1  217.95    8.60
   2  10  -1  204.20    5.90
  -2  10   1  222.05    8.60
   2 -10   0  376.05   12.25
   2  10   0  351.95    9.52
  -2  10   0  356.16   11.94
   2  10   1  195.05    6.56
   2 -10   1  215.64    8.50
  -2  10  -1  219.25    8.49
  -2  10  -2  324.35   11.14
   2 -10   2  312.16   11.10
   2  10   2  316.13    9.55
   2 -10   3    1.08    1.25
   2  10   3   -0.55    0.80
  -2  10  -3    0.15    0.99
   2  10   4  891.37   22.89
  -2  10  -4  874.09   23.92
   2 -10   4  885.69   23.97
  -2  10  -5   -0.30    1.01
   2 -10   5   -0.33    1.27
  -2 -10  -5   -0.48    0.78
  -2 -10  -6  936.79   24.25
  -2  10  -6  943.67   25.86
   2 -10   6  927.89   25.71
   2 -10   7   68.33    5.04
   2  10   7   72.12    5.05
  -2 -10  -7   69.04    4.53
   2  10   8  263.66   11.13
   2 -10   8  271.60   11.45
  -2 -10  -8  287.07   10.88
   2 -10   9    9.45    2.51
   2  10   9    4.76    1.81
   2  10  10    5.70    2.21
   2 -10  10    1.40    1.72
   2 -10  11  140.24    8.61
   2  10  11  165.22    9.43
   2 -10  12   34.09    4.34
   2  10  12   34.38    4.62
   2  10  13   55.52    5.99
   2 -10  13   56.44    5.91
   2  10  14    0.85    1.91
   2 -10  14    4.04    2.19
   2 -10  15   85.01    7.63
  -2 -11  15    0.20    1.86
  -2 -11  14    6.96    2.08
  -2 -11  13    2.46    1.36
  -2  11  13    0.51    1.92
  -2 -11  12    7.73    1.93
  -2  11  12    9.00    2.95
  -2  11  11   39.39    4.70
  -2 -11  11   39.97    3.58
  -2 -11  10  226.90    9.02
   2  11 -10  225.79    9.77
  -2  11  10  238.71   11.55
  -2  11   9   -0.87    1.73
   2  11  -9    0.23    0.98
  -2 -11   9   -0.24    1.05
  -2  11   8  532.20   18.01
  -2 -11   8  532.83   14.88
   2  11  -8  515.69   15.57
  -2  11   7   11.45    2.33
  -2 -11   7   11.39    1.55
   2  11  -7   11.02    1.51
   2  11  -7    8.19    1.40
   2  11  -6  422.79   11.54
   2  11  -6  415.83   12.04
  -2 -11   6  424.45   11.52
  -2  11   6  414.54   14.54
   2  11  -5   34.17    2.16
   2  11  -5   34.24    2.33
   2 -11  -5   40.72    3.90
  -2 -11   5   34.50    2.17
  -2  11   5   37.10    3.69
   2  11  -4  658.98   16.06
   2 -11  -4  646.65   19.81
   2  11  -4  687.67   16.13
  -2 -11   4  680.39   16.14
  -2  11   4  683.39   20.14
  -2 -11   3  255.45    7.02
   2 -11  -3  273.33   10.35
  -2  11   3  260.52   10.29
   2  11  -3  247.58    6.95
   2  11  -3  248.99    6.51
  -2 -11   2  685.17   16.29
   2  11  -2  692.97   16.27
   2 -11  -2  707.36   20.12
  -2  11   2  704.90   20.05
   2 -11  -1   61.50    4.38
  -2  11   1   61.21    4.35
   2  11  -1   61.21    2.71
   2 -11   0  684.95   19.32
  -2  11   0  664.60   19.04
   2  11   0  646.54   16.14
   2  11   1   11.57    1.39
  -2  11  -1   12.96    1.98
   2 -11   1    8.44    1.93
  -2  11  -2   77.79    4.89
   2  11   2   73.99    3.88
   2 -11   2   71.08    4.75
   2  11   3  148.17    6.17
  -2  11  -3  145.90    7.08
   2 -11   3  149.91    7.14
  -2  11  -4    7.79    1.81
   2  11   4    9.70    1.63
   2 -11   4    8.35    1.93
   2 -11   5    0.28    1.19
   2  11   5    1.96    1.17
  -2  11  -5    1.14    1.33
   2  11   6   47.81    3.98
   2 -11   6   36.99    3.75
  -2  11  -6   45.61    4.08
  -2 -11  -6   38.13    3.19
   2 -11   7    3.18    1.67
   2  11   7    0.78    1.22
  -2 -11  -7    3.48    1.42
   2 -11   8  287.53   11.88
   2  11   8  284.15   11.78
  -2 -11  -8  293.38   11.30
   2  11   9   -0.03    1.34
   2 -11   9   -0.45    1.51
   2 -11  10  407.60   15.78
   2  11  10  415.71   15.95
   2  11  11   22.74    3.74
   2 -11  11   24.56    3.72
   2 -11  12  290.13   13.57
   2  11  12  297.35   13.95
   2 -11  13   -0.35    1.79
   2  11  13   -3.92    2.18
   2 -11  14  262.99   13.55
   2  11  14  267.15   14.09
  -2 -12  14   37.58    4.17
  -2 -12  13   10.23    2.34
  -2  12  13   11.43    2.94
  -2 -12  12   57.56    4.54
  -2  12  12   66.86    6.35
  -2  12  11   49.97    5.37
  -2 -12  11   46.30    3.96
  -2 -12  10   23.92    2.70
   2  12 -10   23.60    2.86
  -2  12  10   36.38    4.34
  -2 -12   9   67.63    4.18
   2  12  -9   63.03    4.50
  -2  12   9   70.63    5.81
  -2  12   8   51.70    4.80
   2  12  -8   47.86    3.62
  -2 -12   8   47.90    3.30
   2  12  -7  263.44    9.27
  -2 -12   7  284.28    8.96
  -2  12   7  282.62   11.72
   2  12  -7  279.66    8.95
   2  12  -6   11.37    1.56
   2  12  -6   11.51    1.34
  -2  12   6   12.15    2.48
  -2 -12   6   11.09    1.37
   2  12  -5  156.86    5.68
   2 -12  -5  161.63    8.22
  -2 -12   5  171.40    5.73
   2  12  -5  170.81    5.70
   2  12  -4    2.23    0.59
  -2 -12   4    1.26    0.56
   2 -12  -4    4.14    1.73
  -2  12   4    1.25    1.09
   2  12  -4    2.23    0.65
  -2 -12   3  795.14   19.06
  -2  12   3  855.96   23.38
   2  12  -3  804.19   18.24
   2  12  -3  823.51   19.09
   2 -12  -3  818.00   23.13
  -2  12   2    0.40    1.00
  -2 -12   2    1.28    0.63
   2 -12  -2    2.09    1.26
   2  12  -2    0.01    0.47
   2 -12  -1  674.37   19.66
  -2  12   1  685.01   19.62
   2  12  -1  653.70   16.19
   2 -12   0  406.48   13.64
  -2  12   0  401.45   13.44
   2  12   0  397.49   10.95
   2  12   1  139.97    5.51
   2 -12   1  134.74    6.92
  -2  12  -1  140.43    6.95
   2  12   2   55.19    3.38
   2 -12   2   43.83    3.88
  -2  12  -2   53.46    4.10
   2  12   3    2.11    0.90
   2 -12   3    3.16    1.45
  -2  12  -3    3.54    1.10
   2  12   4    0.72    0.96
  -2  12  -4   -0.81    0.96
   2 -12   4    1.67    1.45
  -2  12  -5   18.29    2.57
   2 -12   5   21.84    2.89
   2  12   5   17.84    2.39
   2  12   6   64.74    4.72
   2 -12   6   69.91    5.09
   2 -12   7  123.18    7.19
   2 -12   8   40.62    4.27
   2  12   8   40.13    4.12
   2 -12   9   56.77    5.20
   2  12   9   63.88    5.40
   2  12  10   70.42    5.99
   2 -12  10   80.77    6.32
   2 -12  11  115.08    7.82
   2  12  11  103.07    7.66
   2  12  12    6.55    2.69
   2 -12  12    6.75    2.75
   2 -12  13  174.98   10.56
   2  12  13  179.79   11.00
   2 -12  14    2.19    1.86
  -2  13  13   59.71    6.30
  -2 -13  13   71.91    5.40
  -2 -13  12   -1.79    1.54
  -2  13  12    4.19    2.26
  -2  13  11   36.17    4.65
  -2 -13  11   38.25    3.51
  -2  13  10   36.06    4.53
  -2 -13  10   37.88    3.46
   2  13 -10   31.83    3.47
   2  13  -9   46.43    3.81
  -2  13   9   50.47    4.99
  -2 -13   9   49.37    3.58
   2  13  -8   52.37    3.80
  -2  13   8   56.59    5.07
   2  13  -8   53.00    3.48
  -2 -13   8   53.95    3.50
  -2  13   7   28.77    3.53
   2  13  -7   31.39    2.51
  -2 -13   7   32.05    2.51
   2  13  -7   29.82    2.62
   2  13  -6  398.38   11.29
   2  13  -6  399.76   11.59
  -2 -13   6  405.26   11.34
  -2  13   6  374.60   14.26
   2 -13  -5   -1.21    1.49
   2  13  -5    0.92    0.60
   2  13  -5    2.01    0.75
  -2 -13   5    0.79    0.62
   2 -13  -4  228.63   10.25
   2  13  -4  239.52    6.94
  -2 -13   4  246.44    7.38
   2  13  -4  247.90    7.36
   2  13  -3    1.72    0.61
  -2 -13   3    3.14    0.88
   2 -13  -3    3.46    1.55
  -2  13   3    3.02    1.36
  -2 -13   2  558.44   14.09
   2 -13  -2  562.18   17.65
  -2  13   2  543.61   17.41
   2  13  -2  551.41   13.94
   2 -13  -1  611.29   18.77
   2  13  -1  608.78   15.47
  -2  13   1  624.39   18.72
  -2  13   0   20.53    2.57
   2 -13   0   12.35    2.32
   2  13   0   20.18    1.81
   2 -13   1  554.65   17.25
   2  13   1  528.43   14.68
  -2  13  -1  554.86   17.09
  -2  13  -2  120.42    6.52
   2 -13   2  125.91    6.78
   2  13   2  110.04    5.27
   2  13   3   94.02    4.99
   2 -13   3   98.37    5.97
  -2  13  -3   94.01    5.77
   2  13   4    1.33    1.19
  -2  13  -4    1.88    1.19
   2 -13   4    4.28    1.73
   2  13   5  216.75    8.98
   2 -13   5  214.96    9.60
   2  13   6   24.82    3.04
   2 -13   6   25.74    3.23
   2 -13   7  112.00    6.96
   2  13   8   80.97    5.92
   2 -13   8   75.90    5.82
   2 -13   9    8.83    2.34
   2  13   9    9.11    2.43
   2  13  10   38.81    4.47
   2 -13  10   51.55    5.17
   2 -13  11    5.97    2.33
   2  13  11    6.30    2.59
   2 -13  12   73.38    6.64
   2  13  12   69.17    6.44
   2 -13  13    1.19    1.64
   2  13  13   -2.88    2.23
   2 -13  14  172.93   10.84
  -2  14  13    0.53    1.77
  -2 -14  12  331.61   12.38
  -2  14  12  322.95   15.36
  -2  14  11    3.59    2.06
  -2 -14  11    3.59    1.49
  -2  14  10  343.65   15.12
  -2 -14  10  362.19   12.18
  -2  14   9    3.98    1.97
  -2 -14   9    4.26    1.33
   2  14  -9    2.57    1.22
   2  14  -8  161.67    6.65
  -2 -14   8  149.49    6.41
   2  14  -8  155.31    6.97
  -2  14   8  159.18    8.94
  -2  14   7   15.03    2.81
   2  14  -7   18.41    1.96
  -2 -14   7   15.41    1.80
   2  14  -7   15.32    1.89
   2  14  -6   63.31    3.55
  -2 -14   6   56.01    3.33
   2  14  -6   58.65    3.38
  -2  14   6   67.89    5.37
   2  14  -5    0.69    0.56
   2 -14  -5    1.76    1.73
   2  14  -5    0.96    0.61
  -2 -14   5    1.22    0.74
  -2 -14   4   -0.40    0.68
   2 -14  -4   -0.11    1.53
   2  14  -4   -0.09    0.53
   2  14  -4   -0.19    0.47
   2  14  -3   -0.45    0.53
   2 -14  -3    0.66    1.73
  -2 -14   3   -0.29    0.69
   2  14  -2  113.37    4.51
   2 -14  -2  118.87    6.89
  -2 -14   2  113.78    4.61
   2  14  -1    3.40    0.91
   2 -14  -1    0.80    1.24
  -2  14   1    4.32    1.76
   2 -14   0  235.14   10.04
   2  14   0  225.89    7.68
  -2  14   0  241.90    9.93
  -2  14  -1   26.75    3.13
   2  14   1   32.30    2.64
   2 -14   1   27.37    3.24
  -2  14  -2  743.60   21.59
   2  14   2  717.31   19.46
   2 -14   2  730.74   21.76
   2  14   3    6.01    1.40
   2 -14   3    7.44    1.95
   2  14   4  716.95   20.44
   2 -14   4  742.86   21.90
   2  14   5   23.93    2.92
   2 -14   5   19.91    2.95
   2 -14   6  712.00   21.91
   2  14   6  711.39   21.21
   2 -14   7   -1.62    1.59
   2 -14   8  440.86   16.30
   2  14   9    1.13    1.44
   2 -14   9    2.76    1.73
   2 -14  10  150.66    9.08
   2  14  10  148.58    9.12
   2  14  11   70.27    6.46
   2 -14  11   77.15    6.58
   2 -14  12   11.40    3.11
   2  14  12   13.04    3.26
   2  14  13    1.53    1.80
   2 -14  13   -1.00    1.93
  -2  15  13  137.92    9.96
  -2  15  12   10.31    2.75
  -2  15  11  111.85    8.40
  -2 -15  10   61.20    4.21
  -2  15  10   61.45    6.00
  -2 -15   9   52.00    3.77
  -2  15   9   55.97    5.53
   2  15  -8  161.69    7.09
  -2  15   8  152.45    9.04
  -2 -15   8  175.51    6.99
  -2  15   7   -1.40    1.61
   2  15  -7    2.05    0.98
  -2 -15   7    0.75    0.89
   2  15  -7    0.75    0.89
  -2 -15   6  594.38   15.45
   2  15  -6  567.83   15.26
  -2  15   6  537.56   18.73
   2  15  -6  544.54   15.07
   2  15  -5    0.78    0.58
   2 -15  -5    2.25    1.93
  -2 -15   5    1.47    0.82
   2  15  -5   -0.16    0.54
   2 -15  -4  488.60   17.25
  -2 -15   4  495.50   13.46
   2  15  -4  502.39   13.33
   2 -15  -3    1.42    1.63
  -2 -15   3   -0.81    0.89
   2  15  -3    0.81    0.61
  -2 -15   2  698.77   17.48
   2  15  -2  692.50   17.34
   2 -15  -2  704.20   21.32
   2  15  -2  670.30   15.14
   2  15  -1  209.97    7.17
   2 -15  -1  222.90    9.96
   2  15  -1  204.50    5.10
   2 -15   0  332.93   12.80
   2  15   0  336.05   10.28
   2  15   0  329.62    8.09
   2 -15   1  653.66   20.31
   2  15   1  657.20   17.72
   2  15   2   56.97    3.84
   2 -15   2   57.20    4.84
   2  15   3  267.08    9.78
   2 -15   3  254.24   10.99
   2  15   4   50.56    4.00
   2 -15   4   46.47    4.41
   2  15   5   62.38    4.66
   2 -15   5   60.83    5.07
   2 -15   6   99.30    6.70
   2 -15   7  105.98    7.00
   2 -15   8  112.79    7.42
   2  15   9   64.77    5.77
   2 -15   9   65.02    5.71
   2  15  10  104.30    7.68
   2 -15  10  117.31    8.00
   2  15  11   48.48    5.48
   2 -15  11   57.14    5.82
   2 -15  12  168.10   10.38
   2  15  12  191.23   11.32
   2 -15  13    1.22    1.61
  -2  16  12    3.98    2.37
  -2  16  11   25.74    4.32
  -2  16  10   49.14    5.55
  -2  16   9   79.67    6.73
  -2 -16   9   94.43    5.15
  -2  16   8   14.89    3.07
  -2 -16   8   13.06    1.97
  -2  16   7  162.30    9.17
  -2 -16   7  182.06    7.05
   2  16  -6   47.07    3.06
  -2  16   6   51.22    4.85
  -2 -16   6   53.23    3.34
   2  16  -6   50.15    3.25
  -2 -16   5  506.07   13.90
   2 -16  -5  475.39   17.74
   2  16  -5  515.77   13.85
   2  16  -5  502.40   13.18
  -2  16   5  472.46   17.13
  -2 -16   4    1.06    0.72
   2  16  -4    0.36    0.75
   2 -16  -3  467.76   16.74
   2  16  -3  475.11   13.01
  -2 -16   3  465.59   13.03
  -2 -16   2    9.21    1.46
   2 -16  -2    7.46    2.14
   2  16  -2    7.84    1.26
   2  16  -2    9.99    0.73
   2 -16  -1  511.42   17.30
   2  16  -1  489.29   11.23
   2  16  -1  499.24   13.82
   2  16   0   18.96    2.04
   2 -16   0   15.76    2.62
   2  16   0   22.48    1.27
   2 -16   1  109.85    6.82
   2  16   1  104.57    5.25
   2 -16   2    3.33    1.78
   2  16   2   -1.08    1.02
   2  16   3   19.10    2.47
   2 -16   3   17.44    2.87
   2  16   4   88.24    5.37
   2 -16   4   81.02    5.93
   2  16   5   -0.20    1.10
   2 -16   5    0.54    1.27
   2 -16   6    4.30    1.87
   2 -16   7   20.25    3.34
   2 -16   8    2.65    1.80
   2  16   9  150.23    9.08
   2 -16   9  157.30    9.31
   2 -16  10    2.69    1.91
   2  16  10    2.54    1.97
   2 -16  11  179.06   10.53
   2  16  11  177.51   10.67
   2 -16  12    4.34    2.62
   2  16  12    8.50    2.62
   2 -16  13  212.47   12.20
  -2  17  12   21.25    4.06
  -2  17  11   32.65    4.64
  -2  17  10   26.85    4.17
  -2  17   9   16.25    3.56
  -2 -17   8  240.17    8.91
  -2  17   8  240.06   11.88
  -2  17   7   -1.10    1.59
  -2 -17   7    0.78    1.00
  -2 -17   6  364.10   11.18
  -2  17   6  356.50   14.40
   2 -17  -5    1.42    1.92
  -2 -17   5   -0.30    0.77
  -2  17   5    0.20    1.64
   2  17  -5    0.67    0.67
  -2 -17   4  280.03    9.09
   2 -17  -4  275.16   12.46
   2  17  -4  283.34    9.06
  -2 -17   3   99.21    4.67
   2 -17  -3   87.98    6.52
   2  17  -3   93.17    4.50
   2  17  -2    2.40    0.39
   2 -17  -2    3.06    1.61
   2  17  -2    1.80    0.94
   2  17  -1    2.88    0.99
   2  17  -1    1.47    0.39
   2 -17  -1    0.58    1.46
   2  17   0  115.95    3.66
   2 -17   0  111.90    7.19
   2  17   0  116.13    5.47
   2 -17   1   28.20    3.61
   2  17   1   32.21    2.89
   2 -17   2   13.43    2.81
   2  17   2    8.00    1.54
   2  17   3  170.05    7.77
   2 -17   3  169.14    9.05
   2  17   4   25.18    2.93
   2 -17   4   26.70    3.47
   2 -17   5  147.23    8.51
   2 -17   6   63.65    5.59
   2 -17   7    4.11    1.65
   2 -17   8   62.85    5.75
   2 -17   9    3.88    2.36
   2  17   9    2.62    1.90
   2  17  10  162.54    9.97
   2 -17  10  163.06    9.87
   2 -17  11    2.65    1.99
   2  17  11   -1.49    2.14
   2  17  12  190.46   11.61
   2 -17  12  202.31   11.56
  -2  18  11    1.08    1.88
  -2  18  10   53.60    5.80
  -2  18   9   42.53    5.12
  -2  18   8   38.04    4.73
  -2  18   7   21.04    3.50
  -2  18   6   23.17    3.65
  -2 -18   6   21.72    2.25
   2 -18  -5   35.89    4.47
  -2 -18   5   38.86    2.88
  -2  18   5   33.20    4.07
   2 -18  -4   79.38    6.40
  -2 -18   4   73.67    4.10
  -2 -18   3   18.28    1.98
   2 -18  -3   15.55    3.13
   2  18  -3   22.46    2.14
   2 -18  -2   16.33    3.04
   2  18  -2   15.33    1.84
   2  18  -2   14.53    0.90
   2  18  -1  120.35    5.50
   2 -18  -1  104.13    7.19
   2  18  -1  108.93    3.23
   2 -18   0  231.27   11.00
   2  18   0  228.46    8.52
   2 -18   1  112.09    7.35
   2  18   1  107.41    5.62
   2  18   2  157.52    7.33
   2 -18   2  165.97    9.05
   2 -18   3   31.81    3.95
   2  18   3   32.62    3.31
   2  18   4  462.54   15.74
   2 -18   4  477.77   17.42
   2 -18   5    8.71    2.42
   2 -18   6  211.67   10.78
   2 -18   7    6.55    2.27
   2 -18   8   52.39    5.50
   2 -18   9   39.07    4.85
   2  18  10   32.50    4.61
   2 -18  10   38.34    5.01
   2 -18  11   54.12    5.83
   2  18  11   66.42    6.42
   2 -18  12    2.40    2.10
  -2  19  11  265.51   14.07
  -2  19  10    0.14    1.68
  -2  19   9   98.61    7.78
  -2  19   8    5.47    2.36
  -2  19   7   67.02    6.05
  -2  19   6    6.37    2.26
  -2  19   5    2.49    1.74
  -2 -19   4  223.39    8.16
   2 -19  -4  223.05   11.53
  -2 -19   3   31.10    2.76
   2 -19  -3   30.63    4.14
   2 -19  -2   16.00    3.16
   2 -19  -1   76.87    6.28
   2 -19   0   29.57    3.99
   2 -19   1  270.37   12.43
   2  19   1  284.52   10.35
   2 -19   2    1.94    1.51
   2  19   2    6.09    1.70
   2 -19   3  388.47   15.50
   2 -19   4    3.29    1.90
   2 -19   5  353.24   14.83
   2 -19   6    4.34    2.30
   2 -19   7  220.90   11.49
   2 -19   8    2.62    1.91
   2 -19   9  185.24   10.84
   2 -19  10   12.46    2.93
   2  19  10    8.03    2.49
   2  19  11   40.83    5.31
   2 -19  11   45.62    5.56
  -2  20  10   41.15    5.36
  -2  20   9  102.16    7.97
  -2  20   8    6.83    2.33
  -2  20   7  228.36   11.88
  -2  20   6   26.51    3.95
  -2  20   5  381.08   15.55
   2 -20  -4   33.19    4.43
   2 -20  -3  446.06   17.68
  -2 -20   3  458.15   13.77
   2 -20  -2   14.87    3.03
   2 -20  -1  242.07   11.90
   2 -20   0   59.58    5.61
   2 -20   1  292.10   13.28
   2 -20   2    7.69    2.56
   2 -20   3   43.50    4.82
   2 -20   4   94.34    7.16
   2 -20   5   -0.28    1.72
   2 -20   6   60.09    5.81
   2 -20   7   19.38    3.63
   2 -20   8   72.23    6.57
   2 -20   9   82.02    7.08
   2  20  10   25.62    4.17
   2 -20  10   21.07    3.64
  -2  21   9   24.99    4.26
  -2  21   8  116.15    8.54
  -2  21   7    6.13    2.55
  -2  21   6  191.34   10.66
  -2  21   5   -1.12    1.77
   2 -21  -4  176.64   10.57
   2 -21  -3   11.94    3.04
   2 -21  -2  118.24    8.28
   2 -21  -1   32.78    4.37
   2 -21   0   44.47    4.98
   2 -21   1   58.35    5.71
   2 -21   2   60.01    5.84
   2 -21   3   21.59    3.60
   2 -21   4    1.88    2.03
   2 -21   5   18.00    3.49
   2 -21   6   20.02    3.65
   2 -21   7   20.70    3.77
   2 -21   8   68.12    6.49
   2 -21   9   27.13    4.21
   2  21  10  236.51   12.95
   2 -21  10  243.81   13.14
  -2  22   9    0.07    1.75
  -2  22   8    0.74    2.00
  -2  22   7   43.77    5.19
  -2  22   6    6.16    2.30
  -2  22   5   31.19    4.14
  -2  22   4    4.11    2.07
   2 -22  -4    3.67    2.29
   2 -22  -3   82.87    7.16
   2 -22  -2   53.12    5.83
   2 -22  -1   48.81    5.39
   2 -22   0   19.71    3.56
   2 -22   1    7.83    2.45
   2 -22   2  102.40    7.80
   2 -22   3    3.98    2.20
   2 -22   4   91.60    7.40
   2 -22   5    4.44    2.39
   2 -22   6   42.60    5.12
   2 -22   7   42.05    5.12
   2 -22   8   28.54    4.38
   2 -22   9    2.59    1.80
  -2  23   8    4.85    2.10
  -2  23   7   16.06    3.39
  -2  23   6    3.73    2.31
  -2  23   5   -0.69    1.77
  -2  23   4   21.96    3.61
   2 -23  -3   41.03    5.27
   2 -23  -2    4.13    2.27
   2 -23  -1  117.22    8.60
   2 -23   0   21.25    3.71
   2 -23   1  127.64    8.81
   2 -23   2    1.19    1.77
   2 -23   3  114.61    8.50
   2 -23   4   23.16    3.86
   2 -23   5  168.54   10.40
   2 -23   6    5.42    2.26
   2 -23   7  114.09    8.63
   2 -23   8   12.02    3.39
  -2  24   7   51.46    5.85
  -2  24   6    6.89    2.55
  -2  24   5   22.12    3.96
  -2  24   4    0.24    1.92
   2 -24  -3   27.10    4.21
   2 -24  -2   15.97    3.38
   2 -24  -1  146.13    9.79
   2 -24   0   58.03    6.04
   2 -24   1   70.14    6.60
   2 -24   2   89.29    7.54
   2 -24   3   45.81    5.46
   2 -24   4  268.34   13.68
   2 -24   5   -1.42    2.24
   2 -24   6  282.70   14.26
   2 -24   7   -3.92    3.15
   2 -25  -1    0.65    2.01
   2 -25   0  127.30    9.32
   2 -25   1    7.67    2.60
   2 -25   2   34.14    4.75
   2 -25   3    4.95    2.64
   2 -25   4    0.74    1.97
   2 -25   5   43.58    5.65
  -3   0  17   -3.84    1.85
  -3   0  16  328.28   15.15
  -3   0  15    1.98    2.32
  -3   0  14   92.54    6.92
  -3   0  13    2.73    1.61
  -3   0  12   51.64    4.70
  -3   0  11    2.06    1.48
  -3   0  10   24.10    2.97
  -3   0  10   25.48    3.33
  -3   0   9   -0.03    1.01
  -3   0   9    2.05    1.58
  -3   0   8  129.71    6.26
  -3   0   8  119.85    6.52
  -3   0   7    3.77    1.48
  -3   0   7    2.23    1.30
  -3   0   6  152.73    6.31
  -3   0   6  159.95    6.88
  -3   0   5    0.96    1.11
  -3   0   5    0.45    0.82
   3   0  -4  892.90   21.39
  -3   0   4  861.22   21.32
   3   0  -3   -0.56    0.78
  -3   0   3    1.72    0.84
   3   0  -2 1376.97   31.21
  -3   0   2 1368.33   31.19
  -3   0   1    0.34    0.69
   3   0  -1   -0.37    0.90
  -3   0   0 4185.78   89.68
   3   0   0 4153.59   89.60
  -3   0  -1    1.31    0.92
   3   0   1    0.77    0.91
   3   0   2 1663.75   37.34
  -3   0  -2 1583.32   37.21
   3   0   3   -3.22    1.23
  -3   0  -3    1.30    0.99
  -3   0  -4  632.36   17.75
   3   0   4  653.10   17.82
  -3   0  -5   -0.03    1.05
   3   0   5    1.19    1.28
  -3   0  -6  245.09    9.52
   3   0   6  242.24    9.49
  -3   0  -7    5.41    1.65
   3   0   7    7.66    1.89
  -3   0  -8   93.14    6.03
   3   0   8   94.28    6.04
   3   0   9    2.04    1.75
   3   0  10  128.80    7.81
   3   0  11    0.80    1.84
   3   0  12   75.35    6.43
   3   0  13    0.40    1.78
   3   0  14  593.63   22.18
   3   0  15    2.46    2.65
  -3  -1  17  156.35   10.13
  -3   1  17  144.37   10.07
  -3   1  16  113.28    8.37
  -3  -1  16   99.05    7.94
  -3   1  15   87.79    7.16
  -3  -1  15  101.94    7.49
  -3  -1  14  121.10    7.85
  -3   1  14  128.69    8.38
  -3  -1  13   20.82    3.19
  -3   1  13   26.63    3.78
  -3   1  12  186.72    9.48
  -3  -1  12  199.04    9.47
  -3  -1  11    2.38    1.36
  -3  -1  11    5.40    1.98
  -3   1  11    5.52    1.93
  -3  -1  10  382.97   13.13
  -3   1  10  371.44   13.38
  -3  -1  10  367.96   12.81
  -3   1  10  359.89   13.85
  -3  -1   9   39.04    3.50
  -3   1   9   39.28    3.92
  -3   1   9   38.08    3.69
  -3  -1   9   34.84    3.55
  -3  -1   8  246.14    9.22
  -3   1   8  251.26    9.63
  -3  -1   8  257.53    9.96
  -3   1   8  259.42   10.25
  -3   1   7  811.32   21.92
  -3  -1   7  829.52   21.52
  -3  -1   7  822.04   22.28
  -3   1   7  837.31   22.78
  -3  -1   6   58.96    3.50
  -3   1   6   58.21    3.77
  -3  -1   6   60.82    3.93
  -3   1   6   67.78    4.29
  -3  -1   5  410.13   11.86
  -3   1   5  419.91   12.46
  -3  -1   5  446.89   12.73
  -3   1   5  439.45   13.09
  -3  -1   4  114.18    4.43
  -3   1   4  107.88    4.80
   3  -1  -4  111.64    4.81
  -3  -1   4  101.27    4.76
   3   1  -3  342.12    9.11
   3  -1  -3  332.65    9.68
  -3   1   3  306.10    9.56
  -3  -1   3  322.95    9.06
  -3  -1   2    5.61    0.94
   3   1  -2    4.85    0.97
   3  -1  -2    6.14    1.27
  -3   1   2    5.86    1.12
  -3  -1   1  267.38    7.48
  -3   1   1  269.21    8.04
   3  -1  -1  258.72    8.04
   3   1  -1  259.65    7.48
  -3   1   0  194.48    6.53
  -3  -1   0  171.92    5.83
   3  -1   0  196.12    6.52
   3   1   0  194.40    6.02
   3   1   1  595.03   14.86
   3  -1   1  585.04   15.29
  -3   1  -1  580.09   15.29
  -3  -1  -1  578.98   14.83
  -3  -1  -2  290.29    8.90
   3  -1   2  282.20    9.18
   3   1   2  295.66    8.98
  -3   1  -2  290.21    9.20
  -3  -1  -3  360.42   10.94
   3   1   3  368.09   11.05
   3  -1   3  364.92   11.20
  -3   1  -3  355.18   11.17
  -3   1  -4  884.00   22.63
   3  -1   4  868.13   22.51
  -3  -1  -4  861.78   22.40
   3   1   4  861.87   22.34
  -3   1  -5   72.99    4.50
   3  -1   5   70.04    4.60
   3   1   5   66.94    4.32
  -3  -1  -5   65.73    4.27
  -3  -1  -6  398.00   12.75
   3   1   6  385.61   12.64
   3  -1   6  363.97   12.56
  -3   1  -6  357.42   12.60
   3   1   7  192.91    8.53
  -3  -1  -7  194.07    8.60
   3  -1   7  190.13    8.70
  -3   1  -7  209.36    8.93
  -3  -1  -8  585.77   18.43
  -3   1  -8  619.33   18.80
   3  -1   8  577.35   18.30
   3   1   8  553.17   17.96
   3  -1   9  134.46    7.61
   3   1   9  129.55    7.41
   3  -1  10  164.59    8.88
   3   1  10  158.26    8.64
   3  -1  11   85.48    6.47
   3   1  11   80.72    6.38
   3  -1  12  112.31    7.90
   3   1  12  105.55    7.82
   3  -1  13  193.11   10.92
   3   1  13  197.14   10.99
   3  -1  14   16.28    3.33
   3   1  14   19.19    3.82
   3  -1  15  232.77   13.11
   3   1  15  250.97   13.46
  -3  -2  17  133.86    9.28
  -3   2  16    6.52    2.17
  -3  -2  16    7.14    2.50
  -3   2  15  258.68   13.04
  -3  -2  15  273.20   12.87
  -3   2  14   -0.49    1.97
  -3  -2  14    0.78    1.51
  -3  -2  13  286.41   12.06
  -3   2  13  264.70   12.33
  -3  -2  12    0.80    1.16
  -3   2  11  150.91    8.58
  -3  -2  11  160.70    7.90
  -3  -2  11  157.91    7.86
  -3   2  10    4.27    1.69
  -3  -2  10    3.66    1.40
  -3  -2  10    6.70    1.66
  -3  -2   9  395.07   12.77
  -3   2   9  388.33   13.53
  -3  -2   9  374.87   13.47
  -3  -2   9  388.93   12.61
  -3   2   9  387.70   13.93
  -3  -2   8   45.67    3.38
  -3   2   8   44.66    3.71
  -3  -2   8   44.08    3.70
  -3   2   8   49.99    4.21
  -3  -2   7  259.42    8.89
  -3   2   7  272.54    9.92
  -3  -2   7  266.41    9.69
  -3   2   7  274.22   10.31
  -3  -2   6    9.99    1.72
  -3   2   6   11.79    1.97
  -3  -2   6   13.81    1.65
  -3   2   6   10.73    1.68
  -3  -2   5   88.05    4.40
  -3   2   5   85.04    4.56
  -3  -2   5   88.87    3.96
  -3   2   5   90.38    4.95
  -3  -2   4    4.47    1.08
   3  -2  -4    5.66    1.36
  -3  -2   4    5.57    1.01
  -3   2   4    3.40    1.13
   3   2  -3   16.41    1.41
   3  -2  -3   19.39    2.05
  -3  -2   3   17.55    1.45
  -3   2   3   16.92    1.92
   3   2  -2   16.46    1.29
   3  -2  -2   17.10    1.88
  -3  -2   2   17.48    1.30
  -3   2   2   16.40    1.77
   3  -2  -1  115.99    4.78
   3   2  -1  111.17    3.76
  -3  -2   1   94.90    3.65
  -3   2   1  103.39    4.52
  -3   2   0  169.65    6.22
   3   2   0  168.01    5.35
  -3  -2   0  169.03    5.38
   3  -2   0  177.67    6.32
  -3   2  -1  574.35   15.22
   3   2   1  578.34   14.30
   3  -2   1  586.45   15.26
  -3  -2  -1  536.15   14.15
   3  -2   2   71.68    3.96
  -3  -2  -2   77.90    3.77
   3   2   2   84.23    3.82
  -3   2  -2   68.13    3.89
   3  -2   3  815.26   20.98
   3   2   3  803.32   20.47
  -3  -2  -3  789.42   20.39
  -3   2  -3  830.55   21.06
   3   2   4   19.90    2.30
  -3  -2  -4   23.39    2.32
  -3   2  -4   20.74    2.38
   3  -2   4   21.71    2.52
  -3   2  -5 1836.21   43.06
  -3  -2  -5 1789.77   42.53
   3  -2   5 1792.52   42.83
   3   2   5 1792.14   42.38
   3  -2   6   47.37    4.00
  -3   2  -6   59.96    4.46
  -3  -2  -6   51.74    3.91
   3   2   6   53.53    4.01
  -3  -2  -7  892.72   24.47
   3   2   7  857.29   24.13
   3  -2   7  880.24   24.48
  -3   2  -7  911.22   24.82
   3   2   8   57.85    4.72
   3  -2   8   58.16    4.81
  -3  -2  -8   59.22    4.56
   3   2   9  393.18   14.35
   3  -2   9  384.07   14.34
   3  -2  10   25.60    3.71
   3   2  10   24.81    3.42
   3  -2  11   26.71    3.81
   3   2  11   28.17    3.91
   3  -2  12   32.15    4.18
   3   2  12   37.48    4.56
   3  -2  13   22.47    3.89
   3   2  13   25.16    3.98
   3  -2  14   13.81    3.21
   3   2  14    9.99    2.77
   3  -2  15   14.95    3.51
   3   2  15   12.40    3.48
  -3  -3  17   69.74    6.58
  -3   3  16   65.04    6.46
  -3  -3  16   54.72    5.78
  -3   3  15    9.58    2.96
  -3  -3  15   11.67    2.69
  -3   3  14  305.88   13.96
  -3  -3  14  307.94   13.22
  -3  -3  13    2.38    1.69
  -3   3  12  326.53   14.09
  -3  -3  12  326.49   12.62
  -3  -3  11   44.86    4.00
  -3   3  11   48.19    4.91
  -3  -3  10   96.63    5.56
  -3  -3  10   99.99    5.60
  -3   3  10   92.79    6.35
  -3   3   9   35.98    3.83
  -3  -3   9   44.76    3.45
  -3   3   9   39.99    3.78
  -3  -3   9   39.93    3.27
  -3  -3   8  367.35   11.44
  -3  -3   8  354.67   11.41
  -3   3   8  368.07   12.73
  -3  -3   8  367.65   12.40
  -3   3   8  369.77   13.16
  -3   3   7   36.33    3.47
  -3  -3   7   35.66    2.70
  -3  -3   7   33.19    2.99
  -3   3   7   31.65    3.08
  -3  -3   6   12.96    1.79
  -3   3   6   13.81    2.19
  -3  -3   6   16.13    1.66
  -3   3   6   14.12    2.08
   3  -3  -5   73.15    4.31
  -3  -3   5   76.60    3.41
  -3   3   5   80.31    4.50
  -3  -3   5   73.81    3.97
   3  -3  -4   59.00    3.67
  -3  -3   4   58.21    3.26
  -3  -3   4   57.23    2.65
  -3   3   4   55.74    3.63
  -3  -3   3   51.69    2.76
   3  -3  -3   56.08    3.49
  -3   3   3   48.70    3.26
  -3  -3   3   48.99    2.20
   3   3  -2   28.85    1.54
   3  -3  -2   29.46    2.56
  -3   3   2   31.03    2.50
  -3  -3   2   27.28    1.48
  -3  -3   1  180.18    5.06
   3  -3  -1  184.37    6.68
   3   3  -1  173.12    5.01
  -3   3   1  174.89    6.46
  -3   3   0  272.78    8.68
  -3  -3   0  240.86    7.03
   3  -3   0  263.07    8.74
   3   3   0  272.38    7.22
   3   3   1   65.52    3.00
  -3  -3  -1   58.11    2.87
   3  -3   1   70.53    3.90
  -3   3  -1   64.77    3.66
   3  -3   2  916.79   22.91
  -3   3  -2  924.02   22.97
   3   3   2  912.18   21.81
  -3  -3  -2  878.80   21.78
  -3  -3  -3   21.20    2.02
   3  -3   3   21.15    2.55
  -3   3  -3   28.38    2.71
   3   3   3   24.43    2.32
  -3   3  -4  432.08   13.11
   3  -3   4  414.99   12.96
  -3  -3  -4  404.49   12.28
   3   3   4  402.99   12.21
  -3  -3  -5    5.07    1.42
   3   3   5    4.46    1.47
   3  -3   5    4.07    1.43
  -3   3  -5    3.71    1.31
   3   3   6  461.92   14.74
  -3   3  -6  490.89   15.51
  -3  -3  -6  507.19   15.08
   3  -3   6  466.35   15.05
  -3   3  -7    7.90    1.75
   3  -3   7    9.84    1.97
   3   3   7    9.62    1.92
   3   3   8  319.39   12.13
   3  -3   8  322.76   12.37
   3   3   9   47.64    4.44
   3  -3   9   44.61    4.43
   3   3  10  143.61    8.29
   3  -3  10  158.64    8.74
   3  -3  11   25.99    3.73
   3   3  11   34.34    4.23
   3   3  12   86.22    7.00
   3  -3  12   89.55    7.15
   3  -3  13   36.48    4.72
   3   3  13   41.95    5.01
   3  -3  14    1.44    1.75
   3   3  14    0.55    1.68
   3  -3  15   17.41    3.81
   3   3  15   28.63    4.52
  -3  -4  17   -3.13    2.47
  -3  -4  16   99.49    7.41
  -3   4  16   80.15    7.26
  -3  -4  15   18.70    3.27
  -3   4  15   18.17    3.69
  -3  -4  14   80.87    6.23
  -3   4  14   86.47    7.07
  -3  -4  13  315.55   12.78
  -3  -4  12    2.75    1.50
  -3   4  12    1.83    1.92
  -3  -4  11  128.80    6.73
  -3   4  11  105.30    7.26
  -3   4  10    5.72    2.06
   3   4 -10    2.17    1.25
  -3  -4  10    4.23    1.61
  -3  -4   9  445.10   13.40
  -3   4   9  423.51   14.79
  -3   4   9  417.40   15.21
  -3   4   8   85.83    5.50
  -3  -4   8   76.10    4.32
  -3   4   8   86.58    5.73
  -3  -4   8   81.60    4.38
  -3  -4   7  303.27    9.49
  -3   4   7  318.58   11.40
  -3  -4   7  307.58   10.48
  -3  -4   7  304.61    9.45
  -3   4   7  311.09   11.49
  -3  -4   6  162.05    5.68
  -3  -4   6  152.81    5.62
  -3   4   6  158.82    7.24
  -3  -4   6  173.69    6.67
  -3   4   6  161.80    7.50
   3  -4  -5  188.78    7.59
  -3  -4   5  181.17    5.74
  -3   4   5  172.64    7.41
  -3  -4   5  179.96    6.58
   3  -4  -4  585.86   16.50
  -3  -4   4  578.18   13.89
  -3   4   4  581.22   16.57
  -3  -4   4  614.86   15.19
  -3  -4   3    0.72    0.73
   3  -4  -3    1.40    1.41
  -3   4   3    0.32    1.02
  -3  -4   3    1.04    0.41
   3  -4  -2 1961.64   46.54
   3   4  -2 2053.63   43.40
  -3   4   2 1982.14   46.50
  -3  -4   2 2052.68   43.38
  -3   4   1    3.43    1.02
   3  -4  -1    4.69    1.44
   3   4  -1    5.78    0.68
  -3  -4   1    3.40    0.57
   3   4   0 1349.82   30.02
  -3  -4   0 1366.85   30.10
   3  -4   0 1400.53   32.54
  -3   4   0 1366.21   32.48
  -3  -4  -1  115.45    4.26
  -3   4  -1  129.69    5.65
   3   4   1  124.69    4.38
   3  -4   1  124.89    5.59
  -3   4  -2 1034.99   25.30
  -3  -4  -2  956.80   23.56
   3   4   2  997.64   23.65
   3  -4   2 1036.75   25.29
   3  -4   3   36.73    3.20
  -3   4  -3   34.30    3.10
  -3  -4  -3   34.31    2.56
   3   4   3   33.22    2.53
   3  -4   4   83.72    5.19
  -3  -4  -4   84.77    4.40
   3   4   4   87.01    4.52
  -3   4  -4   87.20    4.99
   3   4   5  154.17    6.67
  -3   4  -5  150.84    7.09
   3  -4   5  152.99    7.12
  -3   4  -6    0.85    1.00
   3   4   6    1.35    1.40
   3  -4   6   -0.81    1.26
   3   4   7  259.28   10.01
   3  -4   7  239.38   10.03
  -3   4  -7  244.28   10.25
   3   4   8    0.91    1.25
   3  -4   8    2.17    1.60
   3   4   9  650.82   20.07
   3  -4   9  600.22   19.85
   3   4  10  102.79    6.89
   3  -4  10   95.23    6.79
   3   4  11  140.63    8.57
   3  -4  11  134.84    8.39
   3  -4  12  430.18   17.45
   3   4  12  481.45   17.99
   3   4  13  127.07    8.94
   3  -4  13  117.60    8.53
   3   4  14  192.27   11.33
   3  -4  14  186.99   11.26
   3  -4  15   -1.77    1.96
  -3  -5  17  119.16    8.44
  -3  -5  16   25.98    3.96
  -3   5  16   25.72    4.27
  -3  -5  15  158.22    9.09
  -3   5  15  155.93   10.08
  -3  -5  14   22.42    3.39
  -3  -5  13  186.83    9.25
  -3   5  13  198.65   11.10
  -3  -5  12   72.32    5.19
  -3   5  12   75.79    6.42
  -3   5  11    6.35    2.21
  -3  -5  11    3.07    1.39
  -3  -5  10  131.88    6.43
  -3   5  10  135.75    7.98
   3   5 -10  128.42    7.01
   3   5  -9  264.89   10.25
  -3  -5   9  248.67    9.33
  -3   5   9  275.77   11.57
  -3   5   8   10.02    2.15
  -3   5   8    9.90    2.06
  -3  -5   8    9.42    1.59
  -3  -5   7  119.46    4.96
  -3   5   7  115.49    6.54
  -3   5   7  128.55    6.72
  -3  -5   7  119.72    4.95
  -3  -5   6   26.38    1.96
  -3   5   6   28.34    3.19
  -3  -5   6   31.83    2.10
  -3   5   6   37.70    3.34
   3  -5  -5  921.59   24.35
  -3  -5   5  907.63   21.13
  -3  -5   5  915.28   21.10
  -3   5   5  935.86   24.46
  -3  -5   5  950.50   22.56
  -3  -5   4   13.91    1.01
  -3  -5   4   10.95    1.37
   3  -5  -4   17.68    2.35
  -3  -5   4   13.61    0.99
  -3   5   4   15.69    2.25
   3  -5  -3 1380.92   33.74
  -3   5   3 1346.44   33.71
  -3  -5   3 1426.47   31.28
   3  -5  -2    6.61    1.61
  -3  -5   2    4.43    0.75
  -3   5   2    5.42    1.35
   3  -5  -1  890.52   22.76
   3   5  -1  885.70   19.16
  -3   5   1  865.91   22.55
   3   5   0   13.44    1.04
  -3   5   0   19.15    2.21
  -3  -5   0   12.37    1.03
   3  -5   0   15.23    2.05
  -3   5  -1  977.60   24.70
   3   5   1  983.00   22.43
   3  -5   1  954.17   24.57
  -3   5  -2  183.02    7.35
   3  -5   2  183.88    7.31
   3   5   2  179.49    6.07
   3   5   3  697.54   17.96
  -3   5  -3  719.49   19.49
   3  -5   3  693.24   19.36
   3  -5   4   90.00    5.22
   3   5   4   88.17    4.56
  -3   5  -4   92.37    5.22
   3   5   5  111.26    5.52
   3  -5   5   95.71    6.02
  -3   5  -5  117.79    6.18
  -3   5  -6  394.31   13.53
   3  -5   6  385.52   13.37
   3   5   6  392.66   12.84
  -3   5  -7   77.12    5.42
   3  -5   7   73.33    5.31
   3   5   7   79.68    5.24
   3   5   8   13.95    2.46
   3  -5   8    8.59    2.20
   3   5   9  264.31   11.41
   3  -5   9  256.58   11.31
   3   5  10  186.59    9.65
   3  -5  10  197.69   10.00
   3   5  11  272.16   12.45
   3  -5  11  281.21   12.79
   3  -5  12   16.34    3.55
   3   5  12   13.59    3.00
   3   5  13  325.23   14.96
   3  -5  13  316.51   14.75
   3   5  14    3.52    2.54
   3  -5  14   -0.14    1.84
  -3  -6  16    4.61    2.40
  -3  -6  15  127.99    8.04
  -3   6  15  122.67    8.95
  -3  -6  14   16.64    2.98
  -3  -6  13  282.11   11.60
  -3   6  13  280.15   13.72
  -3   6  12    2.40    1.93
  -3  -6  12    1.27    1.43
  -3  -6  11  355.59   12.30
  -3   6  11  335.64   14.31
  -3   6  10   -2.15    1.59
  -3  -6  10    0.42    1.10
   3   6 -10   -0.36    0.99
  -3  -6   9  162.38    6.70
  -3   6   9  161.72    8.56
   3   6  -9  156.90    7.44
  -3   6   8   86.99    5.73
  -3  -6   8   71.67    3.90
  -3   6   8   72.74    5.43
   3   6  -8   70.34    4.50
  -3   6   7  313.45   12.14
  -3   6   7  330.77   12.22
  -3  -6   7  331.62    9.58
  -3  -6   6  133.81    4.65
  -3  -6   6  119.21    4.43
  -3   6   6  136.73    6.82
  -3   6   6  130.20    6.82
  -3  -6   5  135.24    4.30
   3  -6  -5  150.59    7.00
  -3  -6   5  143.37    4.39
  -3   6   5  164.13    7.34
   3  -6  -4  944.33   24.62
  -3   6   4  938.63   24.64
  -3  -6   4  911.44   20.09
  -3  -6   4  943.93   20.08
   3  -6  -3  121.73    5.92
  -3   6   3  123.03    5.93
  -3  -6   3  103.52    3.75
  -3  -6   2  102.30    3.21
   3  -6  -2   94.51    5.10
  -3   6   2  101.11    5.22
   3  -6  -1   72.27    4.48
  -3   6   1   72.98    4.35
   3   6   0  149.37    4.22
   3  -6   0  141.27    6.43
  -3   6   0  149.25    6.50
  -3   6  -1  155.29    6.68
   3  -6   1  145.59    6.53
   3   6   1  146.41    4.81
   3  -6   2    4.39    1.45
  -3   6  -2    4.27    1.58
   3   6   2    3.30    0.85
   3  -6   3  886.88   24.43
   3   6   3  946.05   22.93
  -3   6  -3  959.91   24.71
  -3   6  -4    1.87    1.38
   3  -6   4    0.10    1.23
   3   6   4   -0.26    1.00
   3  -6   5 1019.60   27.67
   3   6   5 1058.30   26.75
  -3   6  -5 1083.65   28.02
   3  -6   6    7.67    1.96
   3   6   6    7.36    1.74
  -3   6  -6    9.81    2.02
   3  -6   7  736.52   22.18
   3   6   7  759.97   21.74
  -3  -6  -7  781.01   21.45
   3   6   8    0.44    1.32
   3  -6   8    0.00    1.55
  -3  -6  -8    2.68    1.22
   3  -6   9  124.14    7.52
   3   6   9  134.44    7.60
   3   6  10    3.90    1.81
   3  -6  10    3.09    1.95
   3   6  11  209.73   10.73
   3  -6  11  198.39   10.68
   3  -6  12   96.41    7.34
   3   6  12   90.72    7.18
   3   6  13    8.32    3.03
   3  -6  13    5.07    2.38
   3   6  14  123.74    9.06
   3  -6  14  124.66    8.99
  -3  -7  16   77.25    6.42
  -3  -7  15    6.21    2.17
  -3  -7  14  130.75    7.62
  -3  -7  13    6.81    1.98
  -3   7  13    7.03    2.72
  -3  -7  12  507.81   16.20
  -3   7  12  468.73   18.59
  -3   7  11    9.84    2.61
  -3  -7  11   10.20    2.04
  -3   7  10  552.06   19.52
  -3  -7  10  593.39   16.70
   3   7 -10  555.94   17.71
  -3  -7   9  138.32    6.05
  -3   7   9  139.99    8.09
   3   7  -9  145.29    7.04
  -3  -7   8  105.04    4.63
  -3   7   8   91.42    6.20
   3   7  -8   90.33    5.07
  -3   7   7   23.50    3.04
  -3   7   7   25.09    3.04
  -3  -7   7   21.15    1.79
  -3  -7   6  102.03    3.81
  -3   7   6  114.25    6.40
  -3  -7   6  101.93    3.79
  -3   7   6  105.73    6.21
   3  -7  -5    3.88    1.72
  -3  -7   5    4.58    0.64
  -3   7   5    2.65    1.41
  -3  -7   5    3.76    0.58
   3  -7  -4    9.90    1.99
  -3   7   4    9.27    1.83
   3  -7  -3   97.29    5.46
  -3   7   3  109.25    5.67
   3  -7  -2  106.52    5.61
  -3   7   2   97.47    5.38
  -3   7   1   11.44    1.87
   3  -7  -1   10.73    1.95
   3  -7   0  295.29   10.51
   3   7   0  296.31    7.41
  -3   7   0  309.70   10.57
   3   7   1   13.76    1.25
  -3   7  -1   17.38    2.29
   3  -7   1   11.83    2.05
  -3   7  -2  453.31   13.77
   3   7   2  423.93   11.56
   3  -7   2  413.16   13.55
  -3   7  -3   88.13    5.13
   3   7   3   78.41    4.00
   3  -7   3   73.03    4.85
   3   7   4  864.98   22.28
  -3   7  -4  910.03   24.06
  -3  -7  -4  858.86   21.63
   3  -7   4  867.05   23.72
   3  -7   5   51.17    4.38
   3   7   5   59.12    4.07
  -3   7  -5   76.36    5.02
  -3  -7  -5   53.22    3.54
   3  -7   6  370.67   13.41
   3   7   6  385.26   12.87
  -3  -7  -6  381.95   12.34
  -3   7  -6  404.94   13.81
   3  -7   7    3.37    1.54
   3   7   7   -0.27    1.39
  -3  -7  -7    2.76    1.20
  -3  -7  -8  417.05   14.06
   3  -7   8  390.38   14.70
   3   7   8  407.66   14.48
   3  -7   9  116.52    7.43
   3   7   9  112.31    7.08
   3  -7  10  377.28   15.19
   3   7  10  392.18   15.19
   3   7  11   -0.10    1.51
   3  -7  11   -0.95    1.64
   3   7  12   36.07    4.57
   3  -7  12   31.49    4.50
   3   7  13    1.37    1.83
   3  -7  13    0.32    1.78
   3   7  14   -0.61    1.90
   3  -7  14   -0.89    1.58
  -3  -8  15    8.88    2.41
  -3  -8  14    1.92    1.39
  -3   8  14    4.12    2.22
  -3  -8  13  102.49    6.28
  -3   8  13   88.82    7.46
  -3   8  12    7.90    2.66
  -3  -8  12   11.52    2.16
  -3   8  11  755.30   25.16
  -3  -8  11  807.19   21.89
  -3  -8  10  255.90    9.40
  -3   8  10  258.44   12.13
   3   8 -10  254.82   10.37
  -3  -8   9  385.71   11.53
  -3   8   9  400.45   14.92
   3   8  -9  343.35   12.36
  -3   8   8   28.89    3.61
  -3  -8   8   33.18    2.44
   3   8  -8   28.79    2.77
  -3   8   7  151.80    7.93
  -3  -8   7  155.06    5.31
   3   8  -7  137.31    6.04
   3  -8  -6  132.33    7.04
  -3  -8   6  123.88    4.12
  -3   8   6  124.34    6.83
  -3   8   6  122.64    6.86
   3  -8  -5   60.28    4.59
  -3  -8   5   54.04    1.88
  -3   8   5   57.83    4.44
  -3  -8   5   47.80    1.81
   3  -8  -4  118.91    6.38
  -3   8   4  123.62    6.52
   3  -8  -3   64.50    4.57
  -3   8   3   59.29    4.33
   3  -8  -2  155.75    7.16
  -3   8   2  151.06    7.02
   3  -8  -1   54.29    4.11
  -3   8   1   64.14    4.29
   3   8   0  476.78   11.30
  -3   8   0  478.49   14.91
   3  -8   0  494.02   15.05
   3   8   0  486.53   11.28
   3   8   1   19.18    1.51
  -3   8  -1   24.03    2.75
   3  -8   1   26.74    2.91
  -3  -8  -1   17.34    1.06
  -3  -8  -2   58.78    2.66
  -3   8  -2   69.76    4.52
   3   8   2   69.20    3.35
   3  -8   2   58.05    4.23
  -3   8  -3  105.74    5.74
   3   8   3  101.99    4.59
   3  -8   3  106.44    5.80
  -3  -8  -3   88.55    3.90
   3  -8   4   60.04    4.61
  -3   8  -4   73.49    4.91
   3   8   4   64.67    3.90
  -3  -8  -4   60.95    3.42
  -3  -8  -5  334.60   10.71
  -3   8  -5  358.85   12.65
   3   8   5  342.92   11.43
   3  -8   5  337.84   12.50
   3  -8   6   22.01    2.98
   3   8   6   24.76    2.85
  -3  -8  -6   23.02    2.54
   3  -8   7  264.63   11.07
   3   8   7  245.79   10.23
  -3  -8  -7  271.19   10.04
   3  -8   8   72.27    5.75
  -3  -8  -8   76.09    5.15
   3   8   8   72.27    5.41
   3  -8   9  290.05   12.44
   3   8   9  274.15   11.85
   3  -8  10  255.65   12.07
   3   8  10  259.65   12.04
   3  -8  11  215.82   11.29
   3   8  11  219.88   11.24
   3  -8  12  122.74    8.59
   3   8  12  128.99    8.65
   3   8  13   10.31    3.20
   3  -8  13   11.22    3.08
   3   8  14   10.13    3.12
   3  -8  14    7.07    2.76
  -3  -9  14    0.22    1.27
  -3   9  14   -0.31    1.98
  -3   9  13   68.56    6.68
  -3  -9  13   68.15    5.15
  -3  -9  12    7.42    1.63
  -3   9  12   10.94    2.65
  -3   9  11    3.51    2.12
  -3  -9  11    2.01    1.17
  -3  -9  10   70.14    4.22
  -3   9  10   58.59    5.54
   3   9 -10   62.73    4.63
  -3  -9   9    4.69    1.28
  -3   9   9    3.74    1.89
   3   9  -9    4.31    1.43
  -3   9   8  111.87    7.14
  -3  -9   8  131.93    5.09
   3   9  -8  117.06    5.78
  -3  -9   7  291.74    8.22
  -3   9   7  286.25   11.86
   3   9  -7  274.61    9.36
  -3  -9   6   79.76    2.99
   3  -9  -6   73.03    5.34
   3  -9  -5  812.17   23.24
  -3   9   5  805.17   23.26
   3  -9  -4   26.68    3.10
  -3   9   4   15.75    2.53
   3  -9  -3 1211.68   32.08
  -3   9   3 1287.33   32.31
  -3   9   2    0.39    1.00
   3  -9  -2    1.66    1.45
   3  -9  -1  941.96   25.22
  -3   9   1  930.51   25.10
   3   9   0    9.23    0.84
  -3   9   0   11.07    1.96
   3   9   0    8.47    0.83
   3  -9   0    5.59    1.76
  -3   9  -1  517.99   15.73
   3   9   1  486.83   12.50
   3  -9   1  509.96   15.72
   3   9   1  500.46   12.60
  -3  -9  -2    2.52    0.55
  -3   9  -2    2.95    1.30
   3   9   2    3.56    0.92
   3  -9   2    3.95    1.59
  -3   9  -3  123.77    6.45
  -3  -9  -3   99.21    4.14
   3  -9   3  116.36    6.30
   3   9   3  108.16    4.88
   3  -9   4   35.73    3.47
   3   9   4   34.06    2.84
  -3   9  -4   40.41    3.67
  -3  -9  -4   38.22    2.63
   3   9   5  120.09    6.06
  -3   9  -5  137.48    7.22
  -3  -9  -5  118.48    5.48
   3  -9   5  114.59    6.88
   3  -9   6  230.47   10.20
  -3  -9  -6  245.23    8.95
   3   9   6  233.19    9.40
  -3  -9  -7    0.30    0.98
   3  -9   7    1.97    1.73
   3   9   7    3.62    1.56
  -3  -9  -8    2.40    1.28
   3  -9   8    1.13    1.42
   3   9   8    0.79    1.35
   3   9   9   22.70    3.30
   3  -9   9   32.34    3.98
   3  -9  10  103.43    7.42
   3   9  10  108.62    7.38
   3  -9  11  201.18   10.93
   3   9  11  215.72   11.13
   3  -9  12   22.83    4.03
   3   9  12   23.68    3.87
   3  -9  13  274.48   13.79
   3   9  13  264.25   13.58
   3   9  14   13.66    3.29
   3  -9  14   10.86    2.79
  -3  10  14   30.05    4.76
  -3  10  13   45.59    5.43
  -3 -10  13   39.26    3.73
  -3  10  12    9.16    2.88
  -3 -10  12   13.31    2.39
  -3  10  11  151.96    9.50
  -3 -10  11  160.79    7.13
  -3 -10  10  189.05    7.58
  -3  10  10  206.06   10.88
   3  10 -10  201.37    8.83
  -3  10   9   43.89    4.73
  -3 -10   9   49.40    3.15
   3  10  -9   46.06    3.68
  -3 -10   8   79.45    3.80
  -3  10   8   75.64    5.89
   3  10  -8   79.39    4.59
  -3 -10   7  145.21    4.96
  -3  10   7  156.96    8.35
   3  10  -7  143.94    5.99
   3 -10  -6  585.28   18.96
  -3 -10   6  593.33   13.88
   3 -10  -5  149.19    7.77
   3 -10  -4  523.40   16.83
  -3  10   4  510.12   16.71
   3 -10  -3   13.10    2.41
  -3  10   3   17.58    2.41
   3 -10  -2  936.35   26.16
  -3  10   2  996.75   26.35
  -3  10   1    7.08    1.89
   3 -10  -1    7.37    1.83
   3  10   0  496.19   12.16
   3 -10   0  501.84   16.15
   3  10   0  529.18   12.23
  -3  10   0  510.60   16.11
  -3  10  -1   99.26    5.78
   3  10   1   97.16    3.83
   3  10   1   93.59    3.78
   3 -10   1   98.04    5.82
  -3  10  -2  251.38   10.00
   3  10   2  252.73    7.86
   3 -10   2  239.71    9.90
   3  10   2  231.02    7.66
   3  10   3  397.62   11.69
  -3  10  -3  420.44   14.00
   3 -10   3  387.81   13.57
  -3 -10  -3  379.49   10.43
   3  10   4  106.73    5.27
  -3  10  -4  107.19    6.20
   3 -10   4   95.17    6.06
  -3 -10  -4   94.90    4.36
   3  10   5  155.61    6.96
  -3 -10  -5  149.21    6.19
   3 -10   5  152.93    7.87
  -3 -10  -6    6.54    1.49
   3 -10   6    6.77    2.00
   3  10   6    5.38    1.76
   3  10   7  325.10   12.31
  -3 -10  -7  334.15   11.67
   3 -10   7  346.67   13.42
  -3 -10  -8   14.34    2.34
   3 -10   8   16.35    2.96
   3  10   8   17.76    2.91
   3 -10   9  182.09    9.72
   3  10   9  187.93    9.51
   3 -10  10  186.33   10.29
   3  10  10  191.79   10.02
   3  10  11   11.59    2.69
   3 -10  11   10.70    2.60
   3 -10  12  253.63   13.02
   3  10  12  267.09   13.24
   3 -10  13   27.77    4.46
   3  10  13   30.60    4.60
   3  10  14  395.72   17.85
  -3  11  13   -0.65    1.92
  -3 -11  12  338.90   11.97
  -3  11  12  336.66   15.58
  -3  11  11   15.95    3.48
  -3 -11  11   16.67    2.26
  -3 -11  10  775.66   20.00
  -3  11  10  746.57   24.63
   3  11 -10  707.83   21.18
  -3  11   9   -0.21    1.69
   3  11  -9   -0.13    1.11
  -3 -11   9    0.38    0.85
  -3 -11   8  432.16   11.55
  -3  11   8  404.43   15.61
   3  11  -8  394.92   12.58
   3  11  -7   76.42    4.05
  -3  11   7   76.73    5.82
  -3 -11   7   75.16    3.21
   3 -11  -6  309.06   12.47
  -3 -11   6  304.64    7.69
   3 -11  -5   -0.11    1.30
   3 -11  -4    4.02    1.86
   3 -11  -3  130.49    7.19
  -3  11   3  146.76    7.50
   3 -11  -2    5.41    1.86
  -3  11   2    9.15    1.96
   3  11  -1   33.45    1.29
   3  11  -1   32.83    1.31
   3 -11  -1   33.44    3.49
  -3  11   1   36.80    3.54
   3  11   0  146.08    4.63
   3 -11   0  150.82    7.72
   3  11   0  150.02    4.67
  -3  11   0  157.21    7.63
  -3  11  -1    0.56    1.00
   3  11   1    3.73    0.84
   3  11   1    1.60    0.59
   3 -11   1    1.82    1.47
  -3  11  -2  224.22    9.52
   3  11   2  209.44    7.24
   3  11   2  228.46    7.44
   3 -11   2  212.95    9.41
   3  11   3   70.66    4.06
  -3  11  -3   88.49    5.73
   3  11   3   81.37    4.26
   3 -11   3   82.48    5.55
   3  11   4  201.57    7.94
   3  11   4  213.89    8.13
   3 -11   4  210.19    9.48
  -3 -11  -4  214.44    7.15
   3 -11   5   28.96    3.43
   3  11   5   30.25    3.01
  -3 -11  -5   30.76    2.61
   3 -11   6  692.55   21.78
   3  11   6  711.59   20.52
  -3 -11  -6  712.68   19.37
  -3 -11  -7   28.02    2.94
   3 -11   7   24.62    3.41
   3  11   7   27.78    3.22
   3  11   8  619.58   19.83
  -3 -11  -8  628.49   18.83
   3 -11   8  612.94   20.59
   3 -11   9    4.67    2.14
   3  11   9    7.75    1.96
   3 -11  10  310.02   13.85
   3  11  10  309.77   13.52
   3 -11  11   92.23    7.32
   3  11  11   96.55    7.41
   3 -11  12  117.53    8.58
   3  11  12  115.11    8.55
   3 -11  13  121.02    8.92
   3  11  13  121.28    8.96
  -3  12  13  138.09    9.82
  -3  12  12    5.85    2.38
  -3 -12  11  157.53    6.92
  -3  12  11  145.29    9.54
  -3 -12  10   73.25    4.25
  -3  12  10   88.04    7.05
  -3 -12   9  235.12    7.83
  -3  12   9  226.76   11.43
   3  12  -9  216.23    8.75
  -3  12   8   36.49    4.24
   3  12  -8   35.74    2.94
  -3 -12   8   34.31    2.36
  -3 -12   7  208.26    6.15
   3  12  -7  200.15    7.22
  -3  12   7  196.40   10.00
   3 -12  -6   68.81    5.60
  -3 -12   6   87.04    2.89
   3 -12  -5    8.29    2.46
   3 -12  -4   11.93    2.42
   3 -12  -3   21.46    3.10
   3 -12  -2   96.32    6.13
   3  12  -1   20.51    1.13
  -3  12   1   28.30    3.28
   3  12  -1   17.51    1.10
   3 -12  -1   19.23    2.86
  -3  12   0   16.36    2.55
   3  12   0   12.94    1.18
   3  12   0   13.42    1.18
   3 -12   0   14.58    2.48
  -3  12  -1  165.05    7.99
   3  12   1  144.75    5.30
   3 -12   1  148.22    7.81
   3  12   1  150.42    5.38
   3  12   2   39.39    2.73
   3 -12   2   39.26    3.86
   3  12   2   40.72    2.72
   3  12   3  310.17   10.18
   3 -12   3  322.95   12.41
   3  12   3  321.53   10.28
   3  12   4    1.65    1.00
   3  12   4    2.39    1.12
   3 -12   4    0.11    1.54
   3  12   5  140.49    6.75
   3  12   5  135.62    6.66
   3 -12   5  134.99    7.63
  -3 -12  -6    0.43    0.90
   3 -12   6    3.57    1.67
   3  12   6    0.40    0.94
   3  12   6    0.32    1.09
   3  12   7  354.93   13.46
  -3 -12  -7  375.64   12.61
   3 -12   7  388.88   14.82
   3 -12   8    7.86    2.34
  -3 -12  -8    6.72    1.70
   3  12   8    8.18    2.20
   3  12   9   65.29    5.46
   3 -12   9   59.25    5.62
   3 -12  10    0.31    1.58
   3  12  10   -0.08    1.61
   3 -12  11  106.20    7.96
   3  12  11   96.38    7.45
   3  12  12   10.99    2.82
   3 -12  12   10.37    3.02
   3 -12  13   19.23    3.79
   3  12  13   24.89    4.25
  -3  13  13    0.82    2.08
  -3  13  12   14.34    2.98
  -3  13  11   -3.42    2.47
  -3  13  10  112.88    8.21
  -3 -13  10  111.96    5.23
  -3 -13   9   65.58    3.58
  -3  13   9   59.59    5.82
  -3  13   8  211.62   11.01
  -3 -13   8  244.63    7.35
   3  13  -8  227.21    8.36
  -3 -13   7  286.16    7.68
   3  13  -7  257.91    8.62
  -3  13   7  264.95   12.16
   3 -13  -6  314.15   13.34
  -3 -13   6  326.96    8.01
   3 -13  -5  214.57   10.37
   3 -13  -4   26.59    3.53
   3 -13  -3  223.25   10.27
   3 -13  -2   17.81    2.83
   3  13  -1  407.47    9.92
   3 -13  -1  403.20   14.65
   3 -13   0   60.41    4.92
   3  13   0   57.74    2.73
   3  13   1   98.09    4.20
   3  13   1   99.86    4.25
   3 -13   1   98.22    6.36
   3  13   2   18.20    1.86
   3  13   2   18.84    1.90
   3 -13   2   12.65    2.44
   3  13   3   93.57    4.77
   3  13   3   82.57    4.57
   3 -13   3   96.01    6.27
   3  13   4  188.06    7.79
   3 -13   4  187.87    9.29
   3  13   4  189.12    7.79
   3  13   5    0.46    1.02
   3  13   5    1.09    1.08
   3 -13   5   -0.95    1.80
   3  13   6  186.26    8.43
   3  13   6  174.51    8.29
   3 -13   6  172.04    9.24
   3 -13   7   12.85    2.71
   3  13   7   11.81    2.31
   3  13   8  222.73   10.49
   3 -13   8  233.59   11.37
  -3 -13  -8  229.81    9.66
   3  13   9  108.63    7.30
   3 -13   9  117.70    8.02
   3 -13  10   52.53    5.60
   3  13  10   42.89    4.79
   3 -13  11   21.56    3.79
   3  13  11   22.66    3.83
   3 -13  12  104.11    8.23
   3  13  12  113.78    8.55
   3 -13  13  179.79   11.19
   3  13  13  158.12   10.62
  -3  14  12    1.66    1.91
  -3  14  11   10.62    2.85
  -3  14  10   15.38    3.23
  -3  14   9   37.21    4.64
  -3  14   8  295.00   13.70
  -3 -14   8  327.18    9.22
   3  14  -7    1.88    0.69
  -3  14   7    1.42    1.62
  -3 -14   7    2.05    0.69
   3 -14  -6  624.27   21.67
  -3 -14   6  670.28   15.13
   3 -14  -5    4.14    1.84
   3 -14  -4  455.51   16.58
   3 -14  -3   11.91    2.63
   3 -14  -2  467.38   16.59
   3  14  -2  470.36   10.87
   3  14  -1   74.73    2.92
   3 -14  -1   74.95    5.68
   3 -14   0  320.92   12.70
   3  14   0  304.65    8.70
   3  14   1   33.57    2.41
   3 -14   1   38.97    4.16
   3  14   2  203.57    7.43
   3 -14   2  210.37   10.01
   3  14   3   26.33    2.56
   3  14   3   23.36    2.42
   3 -14   3   25.34    3.46
   3  14   4  260.51    9.71
   3  14   4  246.01    9.50
   3 -14   4  255.93   11.50
   3  14   5   23.40    2.72
   3  14   5   26.50    2.99
   3 -14   5   19.68    3.09
   3 -14   6   -0.25    1.68
   3  14   6    2.78    1.45
   3  14   6    1.89    1.33
   3 -14   7    3.43    1.98
   3  14   7    7.39    2.00
   3  14   8   65.36    5.43
   3 -14   8   52.44    5.27
   3  14   9    4.20    2.16
   3 -14   9   -2.83    1.67
   3  14  10   40.28    4.80
   3 -14  10   43.84    5.23
   3 -14  11    1.17    1.85
   3  14  11    3.68    2.36
   3  14  12  329.80   15.74
   3 -14  12  376.29   16.64
   3  14  13    4.60    2.43
  -3  15  12  178.05   11.35
  -3  15  11   -0.54    1.69
  -3  15  10  154.70    9.92
  -3  15   9   36.99    4.95
  -3  15   8  500.91   18.78
  -3 -15   7  131.63    4.40
  -3  15   7  123.12    8.12
   3 -15  -6   58.55    5.52
  -3 -15   6   60.11    2.24
   3 -15  -5  215.86   10.89
   3 -15  -4  105.66    7.27
   3 -15  -3  134.21    8.02
   3  15  -3  129.88    3.49
   3 -15  -2   -0.42    1.78
   3  15  -2    0.07    0.35
   3  15  -1  444.41   11.18
   3 -15  -1  408.36   15.75
   3  15   0    5.02    0.91
   3 -15   0    7.83    2.29
   3 -15   1  277.63   11.96
   3  15   1  266.32    8.60
   3  15   2   80.90    4.38
   3 -15   2   75.09    5.97
   3  15   3  155.61    6.87
   3 -15   3  173.61    9.22
   3  15   4  240.01    9.47
   3  15   4  256.76    9.63
   3 -15   4  242.27   11.33
   3  15   5   10.74    2.00
   3  15   5   17.00    2.53
   3 -15   5   18.38    3.11
   3 -15   6  246.08   11.63
   3  15   6  241.23   10.29
   3 -15   7   29.07    4.16
   3  15   7   32.80    3.73
   3  15   8  303.75   12.94
   3 -15   8  311.71   13.95
   3  15   9  110.42    7.50
   3 -15   9   96.02    7.43
   3  15  10  121.99    8.31
   3 -15  10  130.44    8.95
   3  15  11  104.62    7.96
   3 -15  11  109.56    8.36
   3 -15  12  192.11   11.69
   3  15  12  171.15   10.93
  -3  16  11  200.13   11.91
  -3  16  10   -0.88    1.88
  -3  16   9  258.25   13.10
  -3  16   8    2.49    2.05
  -3  16   7  182.62   10.21
   3 -16  -6   64.89    5.98
  -3  16   6   63.12    5.68
   3 -16  -5  109.90    7.74
   3 -16  -4   38.03    4.42
   3  16  -4   31.86    1.30
   3  16  -3    5.39    0.63
   3 -16  -3    2.04    1.66
   3  16  -2    8.31    0.87
   3 -16  -2    8.40    2.26
   3  16  -1  156.43    5.27
   3 -16  -1  159.44    9.01
   3 -16   0   48.68    4.85
   3  16   0   56.73    3.07
   3 -16   1  375.14   14.80
   3  16   1  361.66   10.94
   3 -16   2    1.29    1.53
   3  16   2    0.57    0.86
   3  16   3  251.05    9.31
   3 -16   3  240.11   11.56
   3  16   4   -0.11    0.96
   3  16   4    0.68    1.06
   3 -16   4   -1.55    2.00
   3  16   5  225.62    9.65
   3  16   5  234.08    9.75
   3 -16   5  229.30   11.28
   3  16   6   27.14    3.25
   3 -16   6   31.64    4.28
   3 -16   7  157.66    9.39
   3  16   7  145.47    8.14
   3  16   8   53.61    5.09
   3 -16   8   53.59    5.56
   3  16   9  391.75   15.87
   3 -16   9  396.78   16.75
   3  16  10    0.92    1.75
   3 -16  10    1.47    1.62
   3  16  11  162.98   10.17
   3 -16  11  161.51   10.42
   3  16  12    1.35    1.85
  -3  17  11    8.79    2.85
  -3  17  10   42.89    5.37
  -3  17   9   84.72    7.42
  -3  17   8   30.79    4.34
  -3  17   7   35.13    4.53
   3 -17  -6   74.41    6.60
  -3  17   6   69.93    6.20
   3 -17  -5  123.30    8.41
   3 -17  -4   60.56    5.72
   3 -17  -3  144.39    8.81
   3 -17  -2   -0.45    1.74
   3  17  -1   32.21    2.16
   3 -17  -1   35.34    4.25
   3 -17   0   23.33    3.61
   3  17   0   20.96    1.89
   3 -17   1   46.57    4.90
   3  17   1   45.81    3.10
   3 -17   2  171.15    9.75
   3  17   2  189.93    7.49
   3  17   3    0.35    1.02
   3 -17   3   -0.73    1.76
   3  17   4  128.53    6.67
   3 -17   4  130.09    8.34
   3  17   5    0.39    1.24
   3 -17   5    0.87    1.95
   3  17   6  206.92    9.73
   3 -17   6  216.35   11.35
   3  17   7    0.49    1.39
   3 -17   7    5.44    2.49
   3  17   8  142.43    8.51
   3 -17   8  145.86    9.32
   3 -17   9   13.03    3.28
   3  17   9   15.19    3.22
   3  17  10   54.49    5.69
   3 -17  10   60.67    6.22
   3  17  11  121.55    8.93
   3 -17  11  131.55    9.48
  -3  18  10   57.43    6.26
  -3  18   9   26.77    4.19
  -3  18   8   72.88    6.70
  -3  18   7   12.76    2.99
  -3  18   6  135.73    8.85
   3 -18  -5   41.09    5.03
   3 -18  -4  402.88   16.62
   3 -18  -3   12.15    2.75
   3 -18  -2  122.65    8.26
   3 -18  -1    8.65    2.73
   3 -18   0   58.15    5.56
   3 -18   1   57.91    5.43
   3 -18   2  135.12    8.62
   3 -18   3   17.20    3.20
   3 -18   4    2.16    1.80
   3  18   5   24.22    3.08
   3 -18   5   20.12    3.72
   3  18   6   17.21    2.85
   3 -18   6    9.14    2.75
   3 -18   7   63.54    6.11
   3  18   7   61.43    5.29
   3  18   8   20.16    3.41
   3 -18   8   20.23    3.88
   3  18   9   94.83    7.33
   3 -18   9   86.63    7.41
   3  18  10  183.42   10.82
   3 -18  10  186.12   11.26
   3  18  11   14.07    3.36
  -3  19   9   41.04    5.33
  -3  19   8    0.24    1.79
  -3  19   7   43.51    5.12
  -3  19   6   44.92    5.19
   3 -19  -5  200.92   11.43
   3 -19  -4    6.46    2.47
   3 -19  -3  516.57   19.68
   3 -19  -2   -1.53    2.19
   3 -19  -1  540.05   19.94
   3 -19   0   83.89    6.93
   3 -19   1  514.74   19.25
   3 -19   2    6.38    2.54
   3 -19   3  156.28    9.64
   3 -19   4   24.82    4.13
   3  19   5    4.91    1.78
   3 -19   5    1.40    1.90
   3  19   6    6.89    1.95
   3 -19   6    8.46    2.59
   3  19   7   -0.55    1.37
   3 -19   7    2.08    1.90
   3  19   8   -2.27    1.93
   3 -19   8   -1.03    1.69
   3  19   9   68.98    6.29
   3 -19   9   69.26    6.73
   3  19  10   64.47    6.24
   3  19  11  102.39    8.27
  -3  20   9  255.02   13.71
  -3  20   8   34.58    4.86
  -3  20   7   78.38    7.01
  -3  20   6   -0.11    1.78
   3 -20  -5  118.79    8.82
   3 -20  -4   75.98    6.92
   3 -20  -3   20.09    3.75
   3 -20  -2   50.05    5.55
   3 -20  -1    2.38    1.80
   3 -20   0   32.73    4.44
   3 -20   1   47.40    5.48
   3 -20   2   21.15    3.90
   3 -20   3  148.75    9.60
   3 -20   4    2.13    2.40
   3 -20   5  318.03   14.82
   3  20   5  296.41   12.19
   3 -20   6   -2.32    2.23
   3  20   6    2.25    1.53
   3 -20   7  198.89   11.41
   3  20   7  175.79    9.65
   3  20   8    4.35    1.64
   3 -20   8    6.11    2.26
   3  20   9  315.47   14.54
   3  20  10   15.65    3.68
  -3  21   8  136.76    9.68
  -3  21   7   10.88    2.96
  -3  21   6   13.55    3.22
  -3  21   5   33.28    4.53
   3 -21  -5   35.06    4.89
   3 -21  -4   33.74    4.69
   3 -21  -3    1.55    1.99
   3 -21  -2   -2.63    2.20
   3 -21  -1    4.37    2.16
   3 -21   0  107.45    8.19
   3 -21   1    9.01    2.81
   3 -21   2   24.05    4.06
   3 -21   3   10.52    2.99
   3 -21   4  316.57   15.00
   3 -21   5   10.90    2.95
   3 -21   6  268.46   13.85
   3 -21   7   -1.93    1.78
  -3  22   7    1.29    1.68
  -3  22   6   64.11    6.39
  -3  22   5    5.16    2.62
   3 -22  -5   11.73    3.22
   3 -22  -4  153.67   10.36
   3 -22  -3    1.54    1.70
   3 -22  -2  101.05    8.14
   3 -22  -1    1.70    2.20
   3 -22   0  112.93    8.59
   3 -22   1   11.14    3.05
   3 -22   2    1.61    1.87
   3 -22   3   61.34    6.26
   3 -22   4    6.41    2.36
   3 -22   5  175.86   11.01
   3 -22   6   12.99    3.34
  -3  23   6    0.21    1.60
  -3  23   5   71.78    6.81
   3 -23  -3  219.35   12.66
   3 -23  -2   12.11    3.23
   3 -23  -1  247.80   13.41
   3 -23   0    1.49    1.76
   3 -23   1  162.31   10.60
   3 -23   2    0.04    1.62
   3 -23   3   11.48    3.03
   3 -23   4    5.03    2.33
  -3  24   5    3.59    2.27
  -4   0  17    0.65    2.25
  -4   0  16    5.13    2.34
  -4   0  15    0.43    1.73
  -4   0  14  106.90    7.55
  -4   0  13   -0.35    1.53
  -4   0  12  113.68    7.05
  -4   0  11    1.38    1.67
  -4   0  10  365.51   13.27
  -4   0  10  366.93   14.08
  -4   0   9   -0.91    1.64
  -4   0   9   -1.79    1.36
  -4   0   8 1584.89   39.25
  -4   0   8 1660.24   40.62
  -4   0   7    1.27    1.13
  -4   0   7   -0.82    1.26
  -4   0   6  331.59   10.87
  -4   0   6  350.61   11.82
  -4   0   5   -1.12    1.07
  -4   0   5    0.84    0.80
   4   0  -4  405.88   11.76
  -4   0   4  394.95   11.71
  -4   0   3    0.75    0.85
   4   0  -3    1.17    0.89
   4   0  -2  950.15   22.63
  -4   0   2  882.96   22.46
  -4   0   1    1.34    0.93
   4   0  -1    3.42    1.20
  -4   0   0  575.48   15.94
   4   0   0  625.96   16.09
  -4   0  -1    1.49    0.95
   4   0   1    1.36    0.98
   4   0   2   74.11    4.18
  -4   0  -2   76.05    4.24
   4   0   3   -1.34    1.29
  -4   0  -3   -0.06    0.89
  -4   0  -4  112.20    5.75
   4   0   4  113.71    5.82
  -4   0  -5   -0.77    1.12
   4   0   5    1.64    1.23
   4   0   6  409.87   14.05
  -4   0  -6  432.64   14.47
   4   0   7   -0.54    1.52
   4   0   8  371.02   13.91
   4   0   9   -1.27    1.72
   4   0  10 1038.13   30.36
   4   0  11   -0.57    1.87
   4   0  12  377.37   16.17
   4   0  13    0.38    1.66
   4   0  14  221.45   12.67
  -4  -1  17    2.64    1.90
  -4   1  16  100.34    7.91
  -4  -1  16  112.26    8.09
  -4   1  15   36.50    4.81
  -4  -1  15   34.89    4.53
  -4  -1  14   54.45    5.16
  -4   1  14   66.94    5.95
  -4   1  13  210.43   10.65
  -4  -1  13  232.83   10.80
  -4  -1  12   78.77    5.73
  -4   1  12   73.32    6.30
  -4  -1  11   64.02    5.41
  -4   1  11   63.26    5.55
  -4   1  10   15.38    2.79
  -4  -1  10   21.07    2.75
  -4   1  10   14.31    2.44
  -4  -1  10   15.68    2.74
  -4  -1   9  346.22   12.19
  -4   1   9  333.81   12.45
  -4  -1   9  374.47   13.37
  -4   1   9  355.53   13.48
  -4   1   8    3.09    1.71
  -4  -1   8    0.56    0.94
  -4  -1   8    2.98    1.77
  -4   1   8    4.13    1.60
  -4  -1   7  346.13   11.34
  -4   1   7  348.37   11.87
  -4  -1   7  374.03   12.51
  -4   1   7  365.11   12.70
  -4  -1   6   20.50    2.50
  -4   1   6   15.27    2.32
  -4  -1   6   14.70    1.85
  -4   1   6   14.11    2.02
   4  -1  -5  187.04    7.25
  -4   1   5  184.80    7.29
  -4  -1   5  179.48    6.72
  -4  -1   5  191.05    7.60
   4   1  -4  221.79    7.37
   4  -1  -4  212.34    7.77
  -4   1   4  214.97    7.82
  -4  -1   4  218.88    7.33
   4   1  -3  280.76    8.44
   4  -1  -3  276.00    8.99
  -4   1   3  254.99    8.73
  -4  -1   3  259.73    8.24
   4   1  -2 1460.40   33.38
   4  -1  -2 1460.60   34.14
  -4   1   2 1443.96   34.08
  -4  -1   2 1440.61   33.31
  -4   1   1  202.12    7.35
  -4  -1   1  189.86    6.73
   4  -1  -1  211.55    7.46
   4   1  -1  210.59    6.91
  -4   1   0 1508.11   34.09
  -4  -1   0 1389.83   33.18
   4  -1   0 1457.11   33.95
   4   1   0 1410.69   33.16
  -4   1  -1   89.34    4.58
  -4  -1  -1   87.22    4.36
   4  -1   1   88.25    4.60
   4   1   1   87.68    4.32
   4   1   2  296.09    9.70
  -4   1  -2  329.86   10.42
  -4  -1  -2  293.08    9.72
   4  -1   2  303.65   10.13
   4  -1   3   89.23    4.91
  -4  -1  -3   82.60    4.58
   4   1   3   88.31    4.72
  -4   1  -3   84.93    4.77
  -4   1  -4  203.53    8.17
   4  -1   4  177.43    7.75
   4   1   4  189.70    7.71
  -4  -1  -4  184.78    7.75
  -4   1  -5  308.11   11.32
   4  -1   5  309.30   11.24
   4   1   5  299.59   10.89
  -4  -1  -5  300.26   11.04
  -4  -1  -6   52.69    4.33
   4  -1   6   54.83    4.44
   4   1   6   56.75    4.34
  -4   1  -6   54.85    4.46
  -4  -1  -7  348.21   12.79
   4  -1   7  336.51   12.70
   4   1   7  331.34   12.53
   4   1   8    9.25    2.15
   4  -1   8    9.69    2.10
   4  -1   9  278.34   12.02
   4   1   9  268.50   11.79
   4  -1  10    1.61    1.65
   4   1  10    1.32    1.70
   4  -1  11  147.16    9.11
   4   1  11  150.51    9.08
   4  -1  12   12.20    3.05
   4   1  12   22.23    3.74
   4  -1  13   27.69    4.33
   4   1  13   30.33    4.62
   4  -1  14  141.33    9.92
   4   1  14  157.39   10.33
  -4  -2  17  215.62   11.99
  -4  -2  16    1.79    1.94
  -4   2  16   -2.72    2.35
  -4   2  15   83.00    6.99
  -4  -2  15   88.99    6.86
  -4   2  14   31.57    4.31
  -4  -2  14   32.79    4.03
  -4  -2  13   65.76    5.34
  -4   2  13   56.59    5.81
  -4  -2  12    1.23    1.20
  -4   2  12   -0.60    1.90
  -4   2  11    2.78    1.86
  -4  -2  11    0.99    1.09
  -4  -2  11    1.64    1.46
  -4  -2  10   53.54    4.15
  -4   2  10   54.62    4.87
  -4  -2  10   47.22    4.36
  -4   2   9    6.54    1.91
  -4  -2   9    8.28    1.70
  -4   2   9    5.14    1.57
  -4  -2   9    6.03    1.75
  -4  -2   8   82.88    4.70
  -4   2   8   83.17    5.26
  -4   2   8   79.61    5.56
  -4  -2   8   88.03    5.39
  -4  -2   7  199.44    7.59
  -4   2   7  197.38    8.42
  -4  -2   7  195.83    8.43
  -4   2   7  208.80    9.08
  -4  -2   6  114.49    5.71
  -4  -2   6  111.16    4.97
  -4   2   6  109.46    5.70
  -4   2   6  102.99    5.96
   4  -2  -5  439.72   13.19
  -4   2   5  409.82   13.06
  -4  -2   5  407.25   11.80
  -4  -2   5  436.28   12.99
   4   2  -4   12.49    1.44
   4  -2  -4   15.99    2.08
  -4   2   4   13.55    1.90
  -4  -2   4   11.85    1.41
   4   2  -3  900.34   21.18
   4  -2  -3  908.86   22.72
  -4   2   3  868.81   22.49
  -4  -2   3  864.84   21.03
  -4   2   2    6.35    1.39
  -4  -2   2    3.42    0.80
   4   2  -2    4.97    0.95
   4  -2  -2    8.06    1.67
  -4   2   1  852.98   22.35
  -4  -2   1  888.07   21.09
   4  -2  -1  876.41   22.46
   4   2  -1  895.12   21.11
  -4   2   0  708.31   18.72
  -4  -2   0  652.70   17.37
   4  -2   0  707.14   18.73
   4   2   0  727.63   17.55
  -4   2  -1  566.92   15.82
   4   2   1  558.11   14.82
   4  -2   1  554.10   15.76
  -4  -2  -1  558.14   14.81
  -4   2  -2   15.22    2.03
  -4  -2  -2   17.01    1.95
   4  -2   2   15.05    2.09
   4   2   2   15.64    1.86
   4  -2   3  163.03    7.02
   4   2   3  161.27    6.53
  -4  -2  -3  157.71    6.56
  -4   2  -3  144.48    6.73
  -4  -2  -4    0.30    1.02
   4  -2   4    1.15    1.17
  -4   2  -4   -0.07    1.19
   4   2   4    0.89    1.16
  -4  -2  -5  206.30    8.43
  -4   2  -5  199.60    8.65
   4  -2   5  190.14    8.57
   4   2   5  202.04    8.34
   4   2   6    3.39    1.42
  -4  -2  -6    2.39    1.27
  -4   2  -6    0.60    0.97
   4  -2   6    2.15    1.35
   4   2   7    4.92    1.83
  -4  -2  -7    3.69    1.61
   4  -2   7    2.02    1.45
   4   2   8   19.47    2.91
   4  -2   8   15.53    2.71
   4  -2   9   47.08    4.69
   4   2   9   47.04    4.62
   4   2  10   38.12    4.44
   4  -2  10   29.00    3.80
   4  -2  11   81.57    6.73
   4   2  11   89.16    6.90
   4  -2  12   13.40    2.95
   4   2  12   18.18    3.57
   4  -2  13  216.64   12.09
   4   2  13  212.50   11.90
   4   2  14   10.27    3.00
   4  -2  14    7.73    2.49
  -4  -3  16  147.07    9.26
  -4   3  16  154.00   10.08
  -4   3  15    5.18    2.08
  -4  -3  15    9.14    2.72
  -4  -3  14   92.48    6.57
  -4  -3  13    3.99    1.46
  -4   3  13    2.93    1.97
  -4  -3  12   69.33    5.12
  -4   3  12   60.57    5.84
  -4   3  11    9.59    2.34
  -4  -3  11   11.73    2.17
  -4  -3  11   14.64    2.41
  -4   3  10    1.45    1.42
  -4  -3  10    3.70    1.60
  -4  -3  10    4.30    1.52
  -4  -3   9  198.45    8.11
  -4  -3   9  208.69    8.16
  -4  -3   9  211.49    9.21
  -4   3   9  195.74    9.64
  -4   3   8   37.26    3.91
  -4  -3   8   38.78    3.12
  -4   3   8   37.52    3.62
  -4  -3   8   34.52    3.35
  -4  -3   7  241.40    8.44
  -4   3   7  257.46   10.04
  -4  -3   7  264.11    9.70
  -4   3   7  264.42   10.65
  -4  -3   6  174.82    6.45
  -4   3   6  175.48    7.82
  -4  -3   6  175.31    7.37
  -4   3   6  200.96    8.58
  -4  -3   5    3.32    1.27
   4  -3  -5    6.66    1.60
  -4   3   5    4.86    1.45
  -4  -3   5    4.46    0.93
   4  -3  -4  778.28   20.56
  -4   3   4  746.70   20.45
  -4  -3   4  748.95   18.22
  -4  -3   4  767.27   19.59
   4   3  -3   14.07    1.35
  -4  -3   3   12.54    1.26
   4  -3  -3   19.11    2.29
  -4   3   3   16.30    2.09
  -4  -3   2  284.48    7.91
   4   3  -2  284.98    7.93
   4  -3  -2  267.90    9.54
  -4   3   2  275.31    9.55
   4  -3  -1   97.48    5.02
   4   3  -1   95.75    3.73
  -4  -3   1   80.57    3.55
  -4   3   1   89.95    4.81
  -4   3   0 2798.33   60.78
  -4  -3   0 2681.07   58.57
   4  -3   0 2685.12   60.60
   4   3   0 2608.00   58.53
   4  -3   1   18.07    2.24
  -4  -3  -1   12.79    1.53
   4   3   1   16.20    1.68
  -4   3  -1   15.79    2.08
   4   3   2  734.74   18.76
  -4   3  -2  728.48   20.05
  -4  -3  -2  741.72   18.86
   4  -3   2  719.95   19.93
   4   3   3   65.72    3.82
  -4   3  -3   58.09    4.14
  -4  -3  -3   56.43    3.72
   4  -3   3   62.86    4.27
   4  -3   4  232.76    9.28
  -4  -3  -4  222.66    8.55
   4   3   4  223.96    8.53
  -4   3  -4  246.39    9.49
  -4   3  -5  184.76    8.31
   4  -3   5  181.65    8.25
  -4  -3  -5  183.99    7.80
   4   3   5  172.80    7.61
  -4   3  -6    8.84    2.05
   4   3   6    7.58    1.69
   4  -3   6    6.79    2.07
  -4  -3  -6    9.11    1.90
  -4  -3  -7   70.45    5.00
   4  -3   7   68.56    5.18
   4   3   7   68.53    4.95
   4   3   8    0.51    1.57
   4  -3   8    0.70    1.52
   4   3   9    9.28    2.34
   4  -3   9   15.94    3.12
   4  -3  10   70.12    6.04
   4   3  10   70.70    5.96
   4   3  11   -1.41    1.94
   4  -3  11    1.48    1.64
   4   3  12   43.55    5.05
   4  -3  12   52.52    5.85
   4   3  13   35.33    4.78
   4  -3  13   35.00    4.83
   4  -3  14  175.88   11.16
   4   3  14  176.24   11.05
  -4   4  16   31.63    4.55
  -4  -4  15   39.62    4.51
  -4   4  15   34.36    4.64
  -4  -4  14   29.46    3.82
  -4  -4  13  213.39    9.87
  -4   4  13  201.38   11.42
  -4   4  12  187.86   10.66
  -4  -4  12  203.98    9.19
  -4   4  11   46.06    4.96
  -4  -4  11   54.51    4.24
  -4  -4  11   50.61    4.12
  -4  -4  10  472.38   15.03
  -4  -4  10  499.51   15.18
  -4   4  10  503.68   17.87
  -4   4   9    4.30    1.85
  -4  -4   9    6.35    1.59
  -4  -4   9    7.97    1.61
  -4  -4   8  208.13    7.56
  -4  -4   8  193.63    7.46
  -4  -4   8  211.61    8.68
  -4   4   8  202.49    9.11
  -4   4   8  202.29    9.51
  -4  -4   7   11.13    1.83
  -4   4   7   14.84    2.57
  -4  -4   7   14.24    1.70
  -4   4   7   14.31    2.23
   4  -4  -6  552.29   16.55
  -4  -4   6  510.33   13.91
  -4   4   6  546.00   16.63
  -4  -4   6  557.69   15.54
   4  -4  -5  124.64    6.31
  -4  -4   5  124.06    5.50
  -4   4   5  129.72    6.47
  -4  -4   5  129.31    4.63
   4  -4  -4  255.66    9.42
  -4   4   4  238.73    9.28
  -4  -4   4  245.10    6.96
  -4  -4   4  254.47    8.23
  -4  -4   3    1.67    0.57
   4  -4  -3    0.77    1.14
  -4   4   3    1.63    1.22
  -4   4   2   11.56    1.92
   4   4  -2   12.12    1.10
   4  -4  -2   10.91    1.94
  -4  -4   2   10.46    1.07
   4   4  -1   24.62    1.64
   4  -4  -1   26.51    2.73
  -4  -4   1   25.86    1.66
  -4   4   1   28.59    2.71
  -4   4   0  251.53    9.27
  -4  -4   0  234.87    7.21
   4  -4   0  251.34    9.28
   4   4   0  251.56    7.31
   4   4   1  611.66   15.63
  -4   4  -1  613.30   17.57
  -4  -4  -1  629.72   15.71
   4  -4   1  601.29   17.43
   4   4   2  168.18    6.26
  -4   4  -2  182.82    7.63
   4  -4   2  178.39    7.49
  -4  -4  -2  147.23    6.02
  -4  -4  -3  106.14    5.01
   4   4   3  105.65    4.99
  -4   4  -3  111.98    5.92
   4  -4   3  101.40    5.68
   4  -4   4  276.87   10.63
  -4  -4  -4  279.74    9.85
   4   4   4  273.32    9.70
  -4   4  -4  306.35   11.00
   4  -4   5  200.12    9.04
   4   4   5  207.16    8.53
  -4   4  -5  214.34    9.20
  -4  -4  -5  214.27    8.60
   4  -4   6  283.19   11.45
  -4  -4  -6  309.41   11.18
   4   4   6  284.92   10.82
   4  -4   7   75.93    5.66
   4   4   7   70.66    5.10
   4  -4   8  410.22   15.16
   4   4   8  399.52   14.50
   4   4   9    3.11    1.83
   4  -4   9   -0.12    1.59
   4  -4  10  247.12   11.87
   4   4  10  249.26   11.59
   4   4  11    6.55    2.58
   4  -4  11    2.99    1.98
   4  -4  12  261.52   13.00
   4   4  12  237.40   12.32
   4   4  13   23.23    4.16
   4  -4  13   24.97    4.06
   4  -4  14   73.05    7.15
   4   4  14   69.48    6.90
  -4  -5  15   23.58    3.63
  -4  -5  14    7.61    2.15
  -4   5  14    4.64    2.12
  -4  -5  13  132.03    7.43
  -4   5  13  134.30    9.17
  -4   5  12    1.87    2.31
  -4  -5  12   -0.95    1.25
  -4  -5  11  575.19   18.01
  -4  -5  11  659.23   18.53
  -4   5  11  601.18   21.22
  -4  -5  10   73.02    4.60
  -4   5  10   74.56    6.18
  -4  -5  10   74.77    4.68
  -4  -5   9  393.40   11.93
  -4  -5   9  363.29   11.71
  -4   5   9  372.94   14.58
  -4  -5   8    0.22    0.79
  -4  -5   8    1.45    0.88
  -4  -5   7  640.34   17.12
  -4   5   7  682.25   20.44
  -4  -5   7  703.74   17.29
  -4  -5   7  704.47   18.99
  -4   5   7  692.35   20.91
  -4  -5   6   20.51    2.24
   4  -5  -6   23.03    2.84
  -4  -5   6   21.89    1.73
  -4   5   6   18.56    2.60
  -4  -5   6   23.00    1.78
   4  -5  -5 1210.95   31.44
  -4  -5   5 1288.12   29.64
  -4   5   5 1226.06   31.63
  -4  -5   5 1217.65   27.63
   4  -5  -4   30.02    3.00
  -4   5   4   32.57    3.11
  -4  -5   4   28.01    2.22
  -4  -5   4   29.15    1.54
   4  -5  -3  251.61    9.46
  -4  -5   3  229.90    6.05
  -4   5   3  246.63    9.35
  -4  -5   3  261.48    7.69
  -4  -5   2  442.91   10.66
   4   5  -2  464.28   10.73
   4  -5  -2  449.72   14.18
  -4   5   2  476.61   14.31
  -4   5   1    1.08    1.16
   4  -5  -1    2.34    1.37
   4   5  -1    1.63    0.54
  -4  -5   1    1.36    0.50
   4   5   0   13.73    1.25
  -4   5   0   14.88    2.18
  -4  -5   0   14.11    1.27
   4  -5   0   13.84    2.12
  -4  -5  -1   -0.22    0.69
   4   5   1    0.89    0.63
  -4   5  -1    0.97    0.97
   4  -5   1    1.55    1.47
  -4   5  -2   92.47    5.32
   4   5   2   79.11    3.85
  -4  -5  -2   78.38    3.87
   4  -5   2   78.04    4.93
  -4  -5  -3   62.42    3.76
  -4   5  -3   68.65    4.67
   4   5   3   66.51    3.85
   4  -5   3   63.84    4.56
  -4   5  -4    2.84    1.29
   4   5   4    4.35    1.29
   4  -5   4    6.39    1.75
  -4  -5  -4    4.19    1.26
   4  -5   5  538.89   17.20
   4   5   5  533.30   16.10
  -4   5  -5  555.56   17.35
   4  -5   6    1.90    1.70
   4   5   6    0.07    1.07
   4  -5   7  559.05   18.42
   4   5   7  551.53   17.48
   4  -5   8    2.54    1.64
   4   5   8    5.06    2.08
   4  -5   9  601.28   20.61
   4   5   9  627.48   20.24
   4   5  10   12.41    2.81
   4  -5  10   18.59    3.52
   4  -5  11  467.50   18.23
   4   5  11  464.97   17.80
   4  -5  12   63.45    6.24
   4   5  12   65.52    6.34
   4  -5  13  245.83   13.29
   4   5  13  271.00   13.64
   4   5  14    0.82    1.75
  -4  -6  14   57.23    4.95
  -4   6  14   59.67    6.34
  -4  -6  13   23.52    2.99
  -4   6  13   21.49    3.95
  -4  -6  12  249.68    9.99
  -4   6  12  228.80   12.18
  -4   6  11   14.73    3.19
  -4  -6  11   18.54    2.45
  -4  -6  11   19.85    2.53
  -4   6  10    0.71    1.50
  -4  -6  10    0.89    0.98
  -4  -6  10    0.32    0.84
  -4   6   9    8.24    2.43
  -4  -6   9    8.71    1.54
  -4  -6   9    8.94    1.57
  -4  -6   8  118.37    5.12
  -4  -6   8  137.32    5.37
  -4   6   8  122.62    7.38
  -4   6   7   20.80    3.01
  -4  -6   7   17.52    1.67
  -4  -6   7   17.54    1.66
   4  -6  -6   64.65    4.84
  -4  -6   6   71.50    2.97
  -4   6   6   57.90    4.58
  -4  -6   6   75.35    3.03
  -4  -6   6   68.96    3.92
   4  -6  -5  497.51   15.70
  -4   6   5  531.46   16.10
  -4  -6   5  457.47   11.22
  -4  -6   5  485.68   11.24
  -4  -6   5  485.61   13.35
   4  -6  -4   18.97    2.57
  -4   6   4   15.29    2.24
  -4  -6   4   16.59    1.73
   4  -6  -3  669.77   19.60
  -4   6   3  662.40   19.48
  -4  -6   3  696.50   16.73
  -4   6   2   25.33    2.77
   4  -6  -2   26.85    2.97
   4   6  -1  559.13   12.95
   4  -6  -1  579.39   17.07
  -4   6   1  581.80   17.02
   4   6   0    0.78    0.48
  -4   6   0   -0.23    1.03
   4  -6   0    1.79    1.22
  -4   6  -1  813.81   22.47
   4   6   1  820.33   19.46
   4  -6   1  794.01   22.33
  -4   6  -2  170.94    7.77
   4   6   2  162.42    5.95
   4  -6   2  148.95    7.38
  -4   6  -3 1048.27   27.29
   4   6   3 1011.06   24.91
   4  -6   3  971.35   26.74
  -4   6  -4  264.37   10.41
   4   6   4  230.38    8.65
   4  -6   4  243.23   10.13
   4  -6   5  157.88    7.96
   4   6   5  147.40    6.83
   4  -6   6  306.92   12.36
   4   6   6  325.89   11.65
   4  -6   7   22.67    3.29
   4   6   7   16.04    2.60
   4   6   8   75.98    5.48
   4  -6   8   70.01    5.69
   4  -6   9    0.17    1.58
   4   6   9   -0.39    1.65
   4   6  10  208.30   10.46
   4  -6  10  198.61   10.67
   4   6  11   52.18    5.44
   4  -6  11   44.99    5.20
   4  -6  12    3.60    2.19
   4   6  12    4.34    2.17
   4  -6  13   91.35    7.79
   4   6  13   93.46    7.78
   4   6  14   41.37    5.26
  -4   7  14  110.39    8.68
  -4   7  13   24.20    4.25
  -4  -7  13   25.13    3.07
  -4   7  12   44.25    5.35
  -4  -7  12   38.55    3.56
  -4   7  11   -0.35    1.91
  -4  -7  11   -0.21    0.95
  -4   7  10    5.43    2.29
  -4  -7  10    5.93    1.44
  -4  -7  10    7.98    1.58
  -4  -7   9   19.91    2.03
  -4   7   9   19.85    3.11
  -4  -7   9   20.19    2.06
  -4  -7   8   41.90    2.61
  -4  -7   8   41.33    2.65
  -4   7   8   42.13    4.52
  -4   7   7    1.51    1.36
  -4  -7   7    2.75    0.69
  -4  -7   7    2.04    0.67
   4  -7  -6  258.17   10.57
  -4   7   6  271.00   10.85
  -4  -7   6  239.16    6.40
  -4  -7   6  238.19    6.37
   4  -7  -5  288.60   11.30
  -4   7   5  296.29   11.44
   4  -7  -4  563.42   17.29
  -4   7   4  531.24   17.05
  -4  -7   4  552.36   14.00
  -4  -7   3   13.10    1.23
   4  -7  -3   19.31    2.71
  -4   7   3   13.57    2.20
  -4  -7   2  853.27   19.25
   4  -7  -2  823.36   23.20
  -4   7   2  810.48   23.09
  -4   7   1    0.32    1.12
   4  -7  -1   -0.21    1.34
  -4   7   0  102.71    5.81
   4  -7   0  103.08    5.88
   4   7   0  103.65    3.49
  -4   7  -1   -0.55    1.33
   4   7   1    0.45    0.55
   4  -7   1   -0.18    1.28
  -4   7  -2  847.63   23.14
   4   7   2  807.67   20.00
   4  -7   2  785.30   22.63
  -4   7  -3   56.59    4.40
   4   7   3   53.46    3.34
   4  -7   3   40.85    3.82
  -4   7  -4  215.98    9.42
   4  -7   4  207.91    9.30
   4   7   4  197.44    7.75
   4  -7   5   15.07    2.62
   4   7   5   14.88    2.18
   4  -7   6   34.72    3.83
   4   7   6   26.89    3.01
   4  -7   7    2.96    1.61
   4   7   7    3.21    1.45
   4  -7   8   -1.43    1.47
   4   7   8    1.08    1.39
  -4  -7  -8    1.73    1.36
   4  -7   9   12.59    2.72
   4   7   9   10.17    2.38
   4   7  10   13.10    2.85
   4  -7  10   13.41    2.96
   4  -7  11   -1.61    2.21
   4   7  11   -0.65    1.81
   4   7  12  262.36   13.17
   4  -7  12  272.31   13.67
   4  -7  13    2.65    2.18
   4   7  13    5.04    2.18
  -4   8  14   44.01    5.75
  -4   8  13   63.42    6.54
  -4   8  12  226.84   12.28
  -4  -8  12  216.53    8.89
  -4   8  11   12.94    3.04
  -4  -8  11    8.80    1.73
  -4  -8  10  125.94    5.75
  -4  -8  10  140.00    5.88
  -4   8  10  122.39    8.25
  -4   8   9   21.69    3.50
  -4  -8   9   20.71    1.97
  -4  -8   9   20.47    2.01
  -4  -8   8   84.49    3.84
  -4  -8   8  105.17    4.04
  -4   8   8   90.93    6.53
  -4   8   7   18.86    3.09
  -4  -8   7   16.50    1.26
  -4  -8   7   14.98    1.21
   4  -8  -6   62.30    4.94
   4  -8  -5   37.39    3.78
   4  -8  -4  188.02    8.80
  -4   8   4  206.93    9.12
   4  -8  -3  341.25   12.70
  -4   8   3  368.29   12.93
  -4   8   2    0.39    1.03
   4  -8  -2    1.52    1.45
  -4  -8   2    1.08    0.35
   4  -8  -1  383.73   13.38
  -4   8   1  383.63   13.23
  -4  -8   1  379.37    8.80
   4   8   0    9.67    0.84
  -4   8   0    9.99    1.89
   4  -8   0    9.84    2.10
  -4   8  -1   63.44    4.62
   4   8   1   65.15    2.92
   4  -8   1   65.13    4.69
   4   8   2    4.26    0.94
  -4   8  -2    6.13    1.71
   4  -8   2    5.01    1.76
  -4   8  -3  662.30   19.55
   4  -8   3  605.71   19.07
   4   8   3  623.59   16.75
   4  -8   4  115.65    6.82
   4   8   4  114.51    5.52
   4   8   5  165.33    7.37
   4  -8   5  167.72    8.53
   4   8   6   49.67    4.01
  -4  -8  -6   46.16    3.58
   4  -8   6   46.38    4.48
   4   8   7   31.54    3.51
   4  -8   7   21.23    3.34
  -4  -8  -7   30.78    3.19
   4  -8   8  168.20    9.30
   4   8   8  163.06    8.51
  -4  -8  -8  182.32    8.48
   4   8   9    4.44    2.02
   4  -8   9    3.34    1.63
   4  -8  10  119.00    8.24
   4   8  10  108.82    7.41
   4  -8  11   56.87    6.05
   4   8  11   48.74    5.37
   4   8  12   84.37    7.18
   4  -8  12   94.46    7.74
   4   8  13  133.66    9.43
   4  -8  13  139.33    9.81
  -4   9  13  231.51   12.92
  -4   9  12   -0.54    1.78
  -4  -9  11  241.29    8.74
  -4   9  11  217.63   11.95
  -4  -9  10   82.41    4.28
  -4   9  10   86.37    6.98
  -4  -9   9  351.12   10.64
  -4  -9   9  409.90   10.92
  -4   9   9  383.31   15.56
  -4   9   8   10.38    2.70
  -4  -9   8   11.11    1.18
  -4  -9   8    8.49    1.03
  -4  -9   7  579.76   12.85
  -4  -9   7  550.08   12.84
  -4   9   7  542.32   18.88
   4  -9  -6   20.06    3.10
   4  -9  -5  205.44    9.57
   4  -9  -4    6.98    2.02
   4  -9  -3   77.35    5.42
  -4   9   3   76.26    5.28
   4  -9  -2  114.62    6.64
  -4   9   2  123.79    6.76
   4  -9  -1   48.64    4.21
  -4   9   1   39.20    3.70
  -4   9   0    2.32    1.27
   4   9   0    2.91    0.48
   4   9   0    3.15    0.51
   4  -9   0    2.44    1.62
   4   9   1    0.77    0.56
  -4   9  -1   -0.56    1.10
   4  -9   1    1.03    1.34
  -4  -9  -1   -0.18    0.37
   4   9   2    2.19    0.87
  -4   9  -2    4.22    1.60
   4  -9   2   -0.70    1.64
  -4  -9  -2    1.79    0.65
   4  -9   3  374.13   13.69
  -4  -9  -3  360.17   10.46
   4   9   3  394.32   11.49
   4   9   4  163.99    6.78
   4  -9   4  150.81    8.03
  -4  -9  -4  149.10    5.99
   4   9   5  363.64   12.02
  -4  -9  -5  339.60   11.09
   4  -9   5  352.17   13.62
   4   9   6   68.02    4.76
  -4  -9  -6   63.84    4.28
   4  -9   6   65.43    5.36
   4   9   7  540.19   17.58
  -4  -9  -7  569.98   17.05
   4  -9   7  543.51   19.02
   4  -9   8   69.67    5.93
   4   9   8   72.26    5.54
  -4  -9  -8   68.80    5.05
   4  -9   9  527.85   19.14
   4   9   9  502.64   17.83
   4   9  10   58.03    5.38
   4  -9  10   45.09    5.13
   4  -9  11  282.36   13.74
   4   9  11  270.59   12.97
   4   9  12    6.63    2.30
   4  -9  12   12.00    3.10
   4   9  13  235.98   12.98
   4  -9  13  259.65   13.82
  -4  10  13  110.54    8.74
  -4  10  12   91.47    7.75
  -4  10  11    7.53    2.63
  -4 -10  10  547.56   14.62
  -4  10  10  510.46   19.73
  -4  10   9    7.13    2.45
  -4 -10   9   12.22    1.38
  -4 -10   8  508.76   11.94
  -4 -10   8  483.31   11.94
  -4  10   8  456.70   17.67
  -4  10   7   59.14    5.39
   4 -10  -6  188.25    9.50
   4 -10  -5   90.42    6.26
   4 -10  -4  140.41    7.78
   4 -10  -3  207.26    9.63
   4 -10  -2   97.03    6.30
   4 -10  -1  210.11    9.56
   4  10   0   13.96    0.89
   4  10   0   12.63    0.85
   4 -10   0   11.93    2.37
   4  10   1  188.98    5.87
   4 -10   1  168.50    8.58
   4  10   1  197.55    5.94
  -4 -10  -2    5.83    0.81
   4  10   2    5.58    1.05
   4 -10   2    4.63    2.01
   4  10   3  286.91    9.34
   4 -10   3  283.02   11.73
  -4 -10  -3  290.05    8.45
   4  10   4  384.01   12.02
   4 -10   4  376.48   14.08
  -4 -10  -4  360.69   10.90
   4  10   5  155.22    7.09
   4 -10   5  150.50    8.33
  -4 -10  -5  146.99    6.31
   4  10   6  389.98   13.45
  -4 -10  -6  396.45   12.65
   4 -10   6  375.49   14.83
   4 -10   7   38.76    4.62
   4  10   7   43.71    4.10
  -4 -10  -7   35.43    3.43
   4  10   8  700.41   21.81
  -4 -10  -8  703.49   20.92
   4 -10   8  711.41   23.26
   4  10   9    8.79    2.53
   4 -10   9    7.69    2.46
   4 -10  10   90.33    7.37
   4  10  10  102.89    7.27
   4  10  11    5.17    2.32
   4 -10  11   11.92    3.14
   4 -10  12  332.62   15.79
   4  10  12  348.77   15.58
   4  10  13   30.62    4.50
  -4  11  12   72.54    7.05
  -4  11  11  176.84   10.79
  -4  11  10    1.71    2.35
  -4  11   9  126.02    8.45
  -4  11   8   31.50    4.20
  -4 -11   8   28.25    1.22
  -4 -11   8   29.09    1.24
  -4  11   7    4.75    2.23
   4 -11  -7   -0.60    1.58
   4 -11  -6  158.89    8.83
   4 -11  -5    4.47    1.96
   4 -11  -4   78.07    5.77
   4 -11  -3  131.18    7.66
   4 -11  -2  546.63   18.18
   4 -11  -1    0.43    1.51
   4  11   0  399.66    9.14
   4 -11   0  381.46   14.31
   4  11   0  389.98    9.14
   4  11   1    0.74    0.46
   4  11   1    1.99    0.60
   4 -11   1   -0.04    1.49
   4  11   2  358.50   10.23
   4  11   2  345.09   10.12
   4 -11   2  334.87   13.26
   4  11   3  116.94    5.23
   4 -11   3  111.65    6.97
  -4 -11  -3  109.01    4.17
   4  11   4  320.82   10.65
   4 -11   4  319.76   12.90
  -4 -11  -4  303.76    9.42
   4  11   5   60.21    4.24
   4 -11   5   55.92    5.01
  -4 -11  -5   55.97    3.56
   4  11   6  224.56    9.46
   4 -11   6  221.19   10.69
  -4 -11  -6  196.22    8.11
   4  11   7  160.34    8.16
   4 -11   7  161.37    9.30
  -4 -11  -7  156.89    7.35
  -4 -11  -8    3.58    1.49
   4 -11   8    4.47    2.34
   4  11   8    0.49    1.29
   4  11   9   68.88    5.73
   4 -11   9   79.02    6.66
   4 -11  10   69.02    6.44
   4  11  10   68.91    6.05
   4  11  11   29.32    4.19
   4 -11  11   31.06    4.59
   4 -11  12  123.38    9.23
   4  11  12  131.67    9.15
   4  11  13    4.80    2.39
  -4  12  12   33.56    4.84
  -4  12  11   10.80    3.18
  -4  12  10   59.49    6.13
  -4  12   9   -0.47    1.93
  -4  12   8   34.00    4.38
   4 -12  -7  111.95    7.65
  -4  12   7  104.22    7.42
   4 -12  -6   12.83    2.79
   4 -12  -5  109.19    7.27
   4 -12  -4    5.56    2.02
   4 -12  -3  228.15   10.71
   4 -12  -2   70.53    5.58
   4 -12  -1  641.74   20.51
   4 -12   0    0.99    1.69
   4  12   0    1.16    0.32
   4  12   0    1.32    0.32
   4  12   1  552.66   13.86
   4 -12   1  529.64   18.41
   4  12   1  573.79   13.91
   4  12   2   36.08    2.54
   4  12   2   34.87    2.45
   4 -12   2   32.61    3.87
   4  12   3   78.17    4.21
   4  12   3   83.59    4.33
   4 -12   3   78.82    5.95
  -4 -12  -4    2.13    0.79
   4  12   4    2.78    1.14
   4  12   4    1.78    1.08
   4 -12   4    2.14    1.51
   4  12   5   70.36    4.74
   4 -12   5   71.44    5.84
  -4 -12  -5   70.33    3.97
   4 -12   6   36.30    4.33
   4  12   6   39.13    3.67
  -4 -12  -6   35.41    3.06
  -4 -12  -7   12.86    2.18
   4 -12   7   17.69    3.27
   4  12   7   10.66    2.25
   4  12   8   99.53    6.67
   4 -12   8   96.81    7.34
  -4 -12  -8  101.43    6.04
   4 -12   9    0.32    2.03
   4  12   9    1.87    2.00
   4  12  10  114.64    7.90
   4 -12  10  131.76    9.03
   4  12  11   95.97    7.57
   4 -12  11   97.39    7.91
   4  12  12   46.35    5.49
   4  12  13   92.17    7.92
  -4  13  12   44.76    5.75
  -4  13  11  140.35    9.76
  -4  13  10    4.32    2.18
  -4  13   9  207.07   11.40
  -4  13   8    7.46    2.69
   4 -13  -7   62.55    5.78
  -4  13   7   51.81    5.39
   4 -13  -6   24.17    3.77
   4 -13  -5   33.40    4.27
   4 -13  -4    3.93    2.09
   4 -13  -3   70.50    5.75
   4 -13  -2   39.47    4.29
   4 -13  -1   -1.24    1.74
   4 -13   0   72.12    5.77
   4  13   0   76.22    2.38
   4  13   0   72.76    2.34
   4  13   1  120.34    4.40
   4  13   1  117.03    4.37
   4 -13   1  124.23    7.71
   4  13   2  242.96    7.92
   4  13   2  245.76    7.95
   4 -13   2  230.18   11.04
   4  13   3   70.53    4.03
   4  13   3   70.49    4.06
   4 -13   3   67.66    5.63
   4  13   4   13.96    2.00
   4  13   4   16.67    2.24
   4 -13   4   14.25    2.78
   4  13   5  109.15    5.99
   4  13   5  121.81    6.35
   4 -13   5  113.22    7.61
   4  13   6  201.78    8.94
   4  13   6  192.48    8.92
   4 -13   6  191.13   10.37
  -4 -13  -6  192.31    7.74
   4  13   7  285.35   11.87
   4 -13   7  302.66   13.61
  -4 -13  -7  295.35   10.72
   4 -13   8    6.38    2.62
   4  13   8    1.31    1.31
   4  13   9  122.43    7.87
   4 -13   9  132.79    9.00
   4 -13  10   -0.46    1.83
   4  13  10    4.59    2.20
   4  13  11  136.45    9.09
   4 -13  11  136.58    9.60
   4  13  12    1.84    2.09
  -4  14  11    2.07    1.77
  -4  14  10  445.31   18.68
  -4  14   9   13.76    3.26
  -4  14   8  435.37   17.64
  -4  14   7    0.91    1.72
   4 -14  -7    0.18    1.85
   4 -14  -6  325.14   14.28
   4 -14  -5    8.29    2.40
   4 -14  -4  216.15   10.97
   4 -14  -3    0.19    1.57
   4 -14  -2   48.61    5.02
   4 -14  -1    2.79    1.81
   4  14   0    4.47    0.54
   4  14   0    5.44    0.59
   4 -14   0    5.72    2.13
   4  14   1   14.32    1.42
   4  14   1   16.77    1.50
   4 -14   1    9.26    2.60
   4  14   2   89.66    4.24
   4  14   2   87.86    4.25
   4 -14   2   86.18    6.56
   4  14   3   10.67    1.69
   4  14   3   12.08    1.71
   4 -14   3    9.15    2.67
   4  14   4   77.49    4.66
   4  14   4   78.52    4.76
   4 -14   4   71.49    6.06
   4 -14   5   25.13    3.97
   4  14   5   26.19    2.94
   4  14   5   27.56    3.06
   4  14   6  584.91   18.26
   4  14   6  575.64   18.26
   4 -14   6  579.97   20.69
   4 -14   7    2.17    2.21
   4  14   7    2.66    1.56
   4  14   8  575.20   19.46
   4 -14   8  579.51   21.27
   4 -14   9   10.36    2.89
   4  14   9   14.50    3.04
   4  14  10  570.79   20.73
   4 -14  10  592.31   22.14
   4 -14  11    2.40    1.87
   4  14  11    0.76    1.74
   4  14  12  166.78   10.52
  -4  15  10   24.57    4.24
  -4  15   9  117.20    8.72
  -4  15   8   15.28    3.24
  -4  15   7  138.32    9.08
   4 -15  -6   36.78    4.72
   4 -15  -5   86.53    6.93
   4 -15  -4  144.52    8.94
   4 -15  -3  133.92    8.56
   4 -15  -2   35.36    4.43
   4 -15  -1   32.28    4.27
   4 -15   0  589.67   20.39
   4  15   0  602.09   13.43
   4  15   0  570.99   13.37
   4  15   1   95.05    3.95
   4 -15   1   92.50    7.00
   4  15   1   92.65    3.84
   4  15   2  202.71    7.14
   4 -15   2  213.36   10.88
   4  15   2  196.13    7.10
   4  15   3   71.63    4.25
   4 -15   3   72.02    6.21
   4  15   3   77.15    4.36
   4  15   4  212.73    8.69
   4 -15   4  241.77   11.84
   4  15   4  237.02    9.07
   4  15   5   50.06    4.05
   4 -15   5   55.74    5.61
   4  15   5   45.50    3.87
   4 -15   6   58.58    5.85
   4  15   6   56.07    4.63
   4  15   7  121.61    7.30
   4 -15   7  120.80    8.48
   4 -15   8   24.70    4.13
   4  15   8   13.68    2.79
   4  15   9  234.84   11.58
   4 -15   9  232.88   12.67
   4 -15  10    2.63    1.95
   4  15  10   -0.01    1.79
   4  15  11  216.74   11.97
   4  15  12   41.96    5.31
  -4  16  10   13.99    3.28
  -4  16   9    0.90    2.19
  -4  16   8    2.29    1.95
  -4  16   7   16.73    3.45
   4 -16  -6    4.04    2.35
   4 -16  -5  130.39    8.80
   4 -16  -4   -2.37    2.10
   4 -16  -3  150.36    9.24
   4 -16  -2    1.98    1.67
   4 -16  -1  451.62   17.53
   4  16   0   13.64    1.00
   4 -16   0    8.70    2.57
   4 -16   1  525.16   19.55
   4  16   1  541.85   13.87
   4  16   2   55.15    3.33
   4 -16   2   42.25    4.88
   4 -16   3  243.09   12.33
   4  16   3  264.48    9.27
   4  16   4    3.93    1.42
   4 -16   4    6.01    2.43
   4 -16   5   69.88    6.48
   4  16   5   79.05    5.19
   4  16   6    9.11    2.02
   4 -16   6    5.91    2.18
   4  16   7   34.56    3.99
   4 -16   7   40.27    5.14
   4  16   8    5.28    2.08
   4 -16   8    8.63    2.75
   4 -16   9   10.02    2.86
   4  16   9   11.08    2.74
   4  16  10   15.10    3.29
   4  16  11    7.52    2.28
  -4  17   9   90.38    7.85
  -4  17   8   28.64    4.46
  -4  17   7   36.92    4.90
   4 -17  -6   99.38    7.95
   4 -17  -5   19.64    3.66
   4 -17  -4  117.84    8.42
   4 -17  -3    1.52    2.16
   4 -17  -2   96.93    7.49
   4 -17  -1    2.50    2.08
   4 -17   0  101.36    7.58
   4 -17   1    0.80    1.96
   4 -17   2   97.04    7.50
   4  17   2  101.65    4.77
   4  17   3   24.11    2.51
   4 -17   3   17.84    3.61
   4 -17   4  206.33   11.38
   4  17   4  206.16    8.59
   4 -17   5  161.03   10.07
   4  17   5  168.13    8.04
   4  17   6    7.56    2.10
   4 -17   6    5.92    2.37
   4 -17   7   81.80    7.19
   4  17   7   84.23    6.12
   4  17   8   -1.01    1.61
   4 -17   8    1.61    1.69
   4  17   9  114.31    7.96
   4 -17   9  125.59    9.20
   4  17  10   12.38    2.88
   4  17  11   34.56    4.86
  -4  18   8  213.04   12.61
  -4  18   7    7.61    2.73
   4 -18  -6  315.67   15.19
   4 -18  -5    8.72    2.70
   4 -18  -4   23.93    4.11
   4 -18  -3   25.86    4.08
   4 -18  -2   -4.00    2.43
   4 -18  -1   88.85    7.32
   4 -18   0   59.20    5.99
   4 -18   1   41.70    5.04
   4 -18   2   20.01    3.82
   4 -18   3   53.68    5.79
   4 -18   4  255.16   13.14
   4 -18   5   36.31    4.95
   4  18   5   35.65    3.58
   4 -18   6  225.22   12.46
   4  18   6  221.53   10.05
   4  18   7   13.52    2.49
   4 -18   7   18.29    3.50
   4 -18   8  233.92   12.94
   4  18   8  218.76   10.93
   4  18   9   -3.52    2.40
   4  18  10  172.73   10.41
  -4  19   8    0.83    1.94
  -4  19   7  219.51   12.44
   4 -19  -6    1.98    1.66
   4 -19  -5  231.57   12.88
   4 -19  -4    6.02    2.00
   4 -19  -3   54.44    5.91
   4 -19  -2   45.58    5.43
   4 -19  -1   51.20    5.75
   4 -19   0    1.13    2.04
   4 -19   1    4.24    2.35
   4 -19   2   62.58    6.18
   4 -19   3  118.74    8.80
   4 -19   4   41.56    5.30
   4 -19   5  153.19   10.22
   4 -19   6    5.22    2.16
   4 -19   7  152.62   10.35
  -4  20   7    7.84    2.92
  -4  20   6  118.28    8.93
   4 -20  -5   42.85    5.59
   4 -20  -4   10.48    2.96
   4 -20  -3  324.66   15.61
   4 -20  -2    4.17    2.41
   4 -20  -1  192.26   11.53
   4 -20   0    1.00    1.90
   4 -20   1  222.14   12.36
   4 -20   2   26.61    4.24
   4 -20   3  260.67   13.67
   4 -20   4   29.46    4.71
   4 -20   5  121.38    9.15
   4 -20   6  144.97   10.18
  -4  21   6   16.69    3.52
   4 -21  -3    3.18    1.89
   4 -21  -2  172.37   11.01
   4 -21  -1  -10.38    2.90
   4 -21   0  177.48   11.16
   4 -21   1   -1.52    2.29
   4 -21   2  113.17    8.75
   4 -21   3    0.11    1.98
   4 -21   4  131.10    9.64
  -5   0  16  222.52   12.04
  -5   0  15    2.11    2.34
  -5   0  14   93.68    6.94
  -5   0  13    0.20    1.51
  -5   0  12  350.99   15.01
  -5   0  11    0.65    1.50
  -5   0  10  614.34   20.43
  -5   0   9   -0.05    1.32
  -5   0   9   -1.28    1.27
  -5   0   8   27.13    3.34
  -5   0   8   28.38    3.08
  -5   0   7    3.99    1.77
  -5   0   7    5.52    1.73
  -5   0   6   24.20    3.01
  -5   0   6   17.78    2.29
   5   0  -5    1.26    0.99
  -5   0   5    0.56    0.86
   5   0  -4   95.24    4.91
  -5   0   4   92.57    4.85
  -5   0   3    0.35    0.79
   5   0  -3    1.18    1.01
  -5   0   2  416.78   12.61
   5   0  -2  425.36   12.70
  -5   0   1    0.18    0.89
   5   0  -1   -0.77    0.93
  -5   0   0  475.26   13.99
   5   0   0  470.03   13.95
   5   0   1    0.86    1.02
  -5   0  -1    0.01    0.91
  -5   0  -2  690.23   19.19
   5   0   2  678.98   19.10
   5   0   3   -0.17    1.17
  -5   0  -3    0.28    1.01
   5   0   4  143.51    7.11
  -5   0  -4  151.62    7.28
   5   0   5   -0.02    1.21
  -5   0  -5   -0.17    0.96
   5   0   6 1165.12   31.33
   5   0   7   -0.78    1.42
   5   0   8  147.92    8.51
   5   0   9    3.01    2.05
   5   0  10    9.57    2.85
   5   0  11    0.32    1.92
   5   0  12   52.14    5.82
   5   0  13    2.61    2.27
  -5   1  16    2.75    2.27
  -5  -1  15  129.88    8.41
  -5   1  15  121.11    8.45
  -5   1  14   -0.32    1.82
  -5  -1  14    3.17    1.86
  -5  -1  13   21.06    3.23
  -5   1  13   15.63    3.41
  -5  -1  12   47.73    4.47
  -5  -1  12   44.40    5.03
  -5   1  12   41.98    5.02
  -5  -1  11  142.77    8.51
  -5   1  11  142.38    8.67
  -5  -1  10  343.79   12.70
  -5  -1  10  361.56   14.10
  -5   1  10  342.38   14.12
  -5  -1   9   69.40    4.81
  -5   1   9   69.06    5.05
  -5  -1   9   73.57    5.53
  -5   1   9   72.80    5.74
  -5  -1   8  105.87    5.71
  -5   1   8  103.54    6.04
  -5  -1   8  101.62    6.32
  -5   1   8  102.78    6.60
  -5   1   7  125.73    6.46
  -5  -1   7  119.07    5.89
  -5  -1   7  117.71    6.72
  -5   1   7  113.29    6.80
  -5   1   6  128.02    6.30
  -5  -1   6  128.65    5.87
  -5  -1   6  130.53    6.71
  -5   1   6  138.17    7.14
   5  -1  -5   65.67    4.27
  -5   1   5   65.13    4.22
  -5  -1   5   58.93    3.67
  -5  -1   4  322.98   10.33
   5   1  -4  347.42   10.61
   5  -1  -4  347.68   11.24
  -5   1   4  335.61   11.10
  -5  -1   3  195.90    7.30
   5   1  -3  208.52    7.48
   5  -1  -3  211.25    8.06
  -5   1   3  201.08    7.89
  -5   1   2  281.23    9.66
  -5  -1   2  275.88    9.11
   5   1  -2  277.71    9.13
   5  -1  -2  278.84    9.72
  -5   1   1   92.97    4.90
  -5  -1   1   83.38    4.37
   5  -1  -1   91.34    4.91
   5   1  -1   88.87    4.52
  -5   1   0   46.93    3.61
  -5  -1   0   50.98    3.50
   5  -1   0   53.22    3.74
   5   1   0   55.19    3.51
  -5   1  -1  334.45   11.26
   5  -1   1  337.11   11.24
  -5  -1  -1  327.30   10.75
   5   1   1  323.13   10.74
   5  -1   2    1.72    1.25
   5   1   2    1.73    1.09
  -5   1  -2   -0.05    0.95
  -5  -1  -2    1.18    1.11
   5   1   3  206.47    8.38
  -5  -1  -3  212.49    8.50
  -5   1  -3  204.28    8.63
   5  -1   3  205.36    8.62
   5  -1   4    8.58    2.25
  -5  -1  -4    7.53    1.71
   5   1   4    7.44    1.80
  -5   1  -4    5.20    1.55
   5  -1   5  336.90   12.87
   5   1   5  361.83   12.92
  -5   1  -5  367.79   13.29
  -5  -1  -5  391.83   13.33
   5  -1   6  103.31    6.52
   5   1   6  108.02    6.52
   5  -1   7   37.27    4.16
   5   1   7   31.35    3.62
   5  -1   8  145.15    8.55
   5   1   8  174.99    9.07
   5  -1   9   20.03    3.35
   5   1   9   19.14    3.29
   5  -1  10  100.07    7.35
   5   1  10   96.46    7.27
   5  -1  11   13.87    3.23
   5   1  11   14.62    3.20
   5  -1  12  329.16   15.24
   5   1  12  314.58   14.96
   5  -1  13   11.44    3.18
   5   1  13   13.07    3.32
  -5   2  16   -0.10    1.82
  -5   2  15    7.73    2.39
  -5  -2  14   62.11    5.48
  -5  -2  13  133.95    7.83
  -5   2  13  153.63    9.87
  -5   2  12    6.93    2.60
  -5  -2  12    9.31    2.10
  -5  -2  11  307.26   11.81
  -5  -2  11  313.21   13.25
  -5   2  11  303.30   13.75
  -5  -2  10   40.26    4.27
  -5   2  10   39.26    4.47
  -5  -2  10   40.76    3.69
  -5  -2   9  751.75   21.48
  -5  -2   9  806.27   23.41
  -5   2   9  790.09   24.14
  -5  -2   8    7.44    1.98
  -5   2   8   13.64    2.70
  -5  -2   8    9.26    1.74
  -5   2   8   10.16    2.00
  -5   2   7  575.51   17.61
  -5  -2   7  557.31   16.13
  -5  -2   7  577.02   17.65
  -5   2   7  582.35   18.55
  -5  -2   6    9.79    1.95
   5  -2  -6    9.78    1.84
  -5   2   6    8.20    1.79
  -5  -2   6    7.83    1.41
   5  -2  -5  560.02   16.50
  -5   2   5  537.86   16.35
  -5  -2   5  548.34   14.99
  -5  -2   5  558.11   16.45
  -5   2   4    2.68    1.22
  -5  -2   4    4.86    1.13
   5   2  -4    1.89    0.83
   5  -2  -4    2.72    1.14
  -5  -2   3  254.16    8.27
   5   2  -3  258.48    8.34
   5  -2  -3  253.50    9.43
  -5   2   3  261.87    9.48
  -5   2   2    3.65    1.29
   5   2  -2    4.34    1.13
   5  -2  -2    1.49    1.04
  -5  -2   2    2.79    0.82
  -5   2   1   45.44    3.44
  -5  -2   1   36.99    2.71
   5  -2  -1   35.35    3.19
   5   2  -1   34.35    2.64
  -5  -2   0   12.03    1.63
  -5   2   0    7.44    1.49
   5  -2   0   14.56    2.12
   5   2   0    9.14    1.51
   5   2   1   14.87    1.90
  -5  -2  -1   12.21    1.72
  -5   2  -1   12.94    2.04
   5  -2   1   13.17    2.16
  -5  -2  -2  116.52    5.57
  -5   2  -2  117.62    6.10
   5  -2   2  106.43    5.83
   5   2   2  106.56    5.36
   5   2   3   34.58    3.11
  -5  -2  -3   36.27    3.19
  -5   2  -3   33.64    3.30
   5  -2   3   36.16    3.45
   5  -2   4  135.00    7.09
   5   2   4  138.13    6.80
  -5  -2  -4  145.59    6.98
  -5   2  -4  150.70    7.46
   5  -2   5  303.88   11.85
   5   2   5  290.97   11.25
  -5  -2  -5  306.99   11.50
   5  -2   6    0.69    1.31
   5   2   6    5.41    1.74
   5  -2   7  553.36   18.48
   5   2   7  530.33   17.86
   5  -2   8   19.73    3.16
   5   2   8   19.34    3.09
   5  -2   9  574.20   20.15
   5   2   9  571.81   19.81
   5   2  10    5.42    2.13
   5  -2  10    6.30    2.34
   5  -2  11  332.14   14.85
   5   2  11  295.62   14.10
   5   2  12   19.61    3.71
   5  -2  12   14.55    3.48
   5  -2  13  428.23   18.43
   5   2  13  404.42   17.92
  -5   3  16    2.73    2.19
  -5   3  15    8.40    2.52
  -5  -3  14   36.68    4.08
  -5   3  14   40.41    5.42
  -5  -3  13   16.62    2.63
  -5   3  13   15.57    3.52
  -5  -3  12  157.15    8.01
  -5   3  12  156.77    9.82
  -5   3  11   27.39    4.01
  -5  -3  11   33.80    3.46
  -5   3  10    5.26    2.29
  -5  -3  10    9.11    1.92
  -5  -3  10    7.14    1.62
  -5  -3  10   12.10    2.53
  -5  -3   9    0.22    1.30
  -5   3   9    0.70    1.66
  -5  -3   9    3.75    1.47
  -5  -3   8  692.32   19.67
  -5  -3   8  787.94   21.90
  -5   3   8  764.36   23.01
  -5  -3   7    6.88    2.20
  -5   3   7    7.60    2.15
  -5   3   7    9.18    1.92
  -5  -3   7    4.32    1.19
   5  -3  -6  218.67    9.12
  -5   3   6  218.53    9.12
  -5  -3   6  214.96    7.49
  -5  -3   6  212.77    8.66
   5  -3  -5   44.50    3.76
  -5   3   5   46.95    3.81
  -5  -3   5   44.31    2.81
  -5  -3   5   45.97    3.53
   5   3  -4  456.56   12.19
   5  -3  -4  455.90   14.29
  -5   3   4  409.97   13.84
  -5  -3   4  441.37   12.09
  -5  -3   3   76.78    3.69
   5   3  -3   80.21    3.75
   5  -3  -3   85.77    5.07
  -5   3   3   85.15    4.97
   5   3  -2  152.46    5.58
   5  -3  -2  148.92    6.95
  -5  -3   2  148.36    5.55
  -5   3   2  149.29    6.90
  -5   3   1  147.22    6.88
   5  -3  -1  143.04    6.82
   5   3  -1  153.37    5.72
  -5  -3   1  141.52    5.56
  -5   3   0   29.06    2.98
   5   3   0   30.55    2.38
   5  -3   0   30.77    3.09
  -5  -3   0   24.86    2.25
  -5  -3  -1    2.22    0.94
  -5   3  -1    1.84    1.14
   5   3   1    1.40    0.98
   5  -3   1    1.12    1.07
  -5   3  -2   15.77    2.41
   5  -3   2   16.75    2.48
   5   3   2   11.68    1.78
  -5  -3  -2   14.78    1.99
  -5  -3  -3    5.78    1.45
   5  -3   3    3.81    1.52
  -5   3  -3    5.74    1.62
   5   3   3    3.52    1.16
   5   3   4  102.15    5.63
  -5   3  -4   90.57    5.80
  -5  -3  -4   96.94    5.53
   5  -3   4   92.35    5.87
   5  -3   5   74.52    5.38
  -5  -3  -5   83.07    5.25
   5   3   5   78.39    5.10
   5  -3   6   55.84    4.86
   5   3   6   55.53    4.48
  -5  -3  -6   53.84    4.42
   5  -3   7  208.37   10.28
   5   3   7  205.19    9.65
   5  -3   8  315.24   13.39
   5   3   8  307.27   12.80
   5   3   9   13.39    2.68
   5  -3   9   14.01    3.08
   5  -3  10  416.55   16.91
   5   3  10  411.19   16.41
   5   3  11    7.24    2.42
   5  -3  11    2.07    1.90
   5  -3  12  167.08   10.54
   5   3  12  163.32   10.23
   5   3  13   52.98    6.00
  -5   4  14  230.00   12.95
  -5   4  13   69.47    6.77
  -5  -4  13   71.40    5.33
  -5  -4  12  221.24    9.52
  -5   4  12  221.51   11.88
  -5   4  11    5.57    2.39
  -5  -4  11    5.80    1.66
  -5  -4  10   71.73    4.68
  -5  -4  10   81.31    4.88
  -5  -4  10   83.77    5.87
  -5   4  10   85.20    6.71
  -5  -4   9   52.78    3.67
  -5  -4   9   48.32    3.53
  -5  -4   9   52.54    4.46
  -5   4   9   46.85    4.80
  -5  -4   8   21.36    2.83
  -5   4   8   23.46    3.44
  -5  -4   8   17.76    2.05
  -5   4   7  433.86   14.98
  -5  -4   7  415.06   12.22
  -5  -4   7  452.20   14.27
  -5   4   7  438.85   15.75
  -5  -4   6   11.58    1.90
   5  -4  -6   11.51    2.29
  -5   4   6    7.67    1.79
  -5  -4   6   10.16    1.36
   5  -4  -5  178.14    8.08
  -5   4   5  167.10    7.87
  -5  -4   5  170.90    5.84
  -5  -4   5  171.26    7.10
  -5  -4   4  184.56    6.11
   5  -4  -4  199.28    8.55
  -5   4   4  192.12    8.38
  -5  -4   4  198.25    7.54
  -5   4   3   10.02    1.84
   5   4  -3   14.25    1.39
   5  -4  -3   15.51    2.26
  -5  -4   3   11.61    1.24
   5   4  -2  378.56   10.48
   5  -4  -2  422.98   13.39
  -5  -4   2  376.69   10.45
  -5   4   2  383.36   13.04
  -5   4   1   81.85    5.07
   5  -4  -1   90.36    5.35
   5   4  -1   88.54    3.90
  -5  -4   1   78.10    3.69
  -5   4   0  638.11   18.35
  -5  -4   0  595.72   15.78
   5  -4   0  610.52   18.15
   5   4   0  606.93   15.78
   5   4   1   18.25    1.98
  -5  -4  -1   16.73    1.88
  -5   4  -1   18.38    2.48
   5  -4   1   18.97    2.62
   5   4   2  177.90    7.02
  -5   4  -2  187.17    8.40
   5  -4   2  187.35    8.39
  -5  -4  -2  190.06    7.26
   5  -4   3    8.87    2.01
  -5   4  -3    4.91    1.70
   5   4   3    6.73    1.45
  -5  -4  -3    7.36    1.55
   5   4   4  430.57   13.63
  -5  -4  -4  421.00   13.59
   5  -4   4  421.90   14.73
   5  -4   5   13.09    2.58
  -5  -4  -5    6.94    1.68
   5   4   5   15.79    2.48
   5  -4   6   33.73    3.84
   5   4   6   34.45    3.47
  -5  -4  -6   38.35    3.71
   5   4   7   12.03    2.38
   5  -4   7   19.11    3.20
   5  -4   8  213.58   10.83
   5   4   8  216.34   10.31
   5  -4   9  460.21   17.40
   5   4   9  433.23   16.55
   5  -4  10   85.37    7.23
   5   4  10   77.33    6.53
   5  -4  11   89.19    7.38
   5   4  11   96.40    7.43
   5   4  12   54.73    5.97
   5  -4  12   43.21    5.52
   5   4  13   51.21    5.87
  -5   5  13  595.08   22.52
  -5   5  12   30.82    4.39
  -5  -5  12   33.33    3.38
  -5   5  11   19.54    3.67
  -5  -5  11   25.24    2.77
  -5  -5  10  260.50    9.43
  -5   5  10  258.07   12.37
  -5   5   9    0.32    1.59
  -5  -5   9    0.96    0.98
  -5  -5   9   -0.37    0.89
  -5  -5   9    2.15    1.41
  -5  -5   8  120.01    5.23
  -5  -5   8  119.65    5.18
  -5  -5   8  127.13    6.59
  -5   5   8  112.08    7.42
  -5  -5   7  100.12    4.41
  -5  -5   7  104.26    4.44
  -5  -5   7  111.43    5.92
  -5   5   7  106.12    7.06
  -5  -5   6   10.66    1.83
  -5  -5   6   13.48    1.35
   5  -5  -6   14.77    2.43
  -5   5   6   12.66    2.28
  -5  -5   5   20.93    2.25
   5  -5  -5   26.72    3.19
  -5   5   5   30.83    3.27
  -5  -5   5   23.39    1.64
  -5  -5   4    1.23    0.96
   5  -5  -4    4.99    1.79
  -5  -5   4    2.60    0.64
  -5   5   4    4.94    1.57
   5  -5  -3   94.15    5.84
  -5  -5   3   87.38    3.30
  -5   5   3   98.62    5.74
  -5  -5   2   55.13    2.60
   5   5  -2   57.90    2.65
   5  -5  -2   54.95    4.38
  -5   5   2   62.67    4.52
  -5   5   1  309.76   11.32
  -5  -5   1  290.27    8.42
   5  -5  -1  298.42   11.24
   5   5  -1  300.60    8.50
  -5  -5   0   14.89    1.57
  -5   5   0   15.92    2.42
   5   5   0   19.68    1.73
   5  -5   0   12.27    2.25
  -5   5  -1  585.99   17.66
   5  -5   1  547.56   17.28
   5   5   1  557.43   14.97
  -5  -5  -1  554.97   14.95
   5  -5   2   -0.34    1.27
  -5  -5  -2    0.90    0.85
   5   5   2    0.81    0.74
  -5   5  -2   -0.25    1.05
   5   5   3 1114.52   27.89
  -5  -5  -3 1138.43   28.05
   5  -5   3 1094.23   29.92
   5  -5   4    5.16    1.81
  -5  -5  -4    4.41    1.40
   5   5   4    4.41    1.38
  -5  -5  -5  432.07   13.99
   5   5   5  411.21   13.78
   5  -5   5  410.94   14.98
   5  -5   6   58.94    5.11
   5   5   6   57.28    4.54
   5  -5   7  166.00    9.20
   5   5   7  179.68    8.79
   5   5   8   36.54    4.08
   5  -5   8   35.79    4.27
   5   5   9   25.96    3.79
   5  -5   9   26.16    4.20
   5  -5  10  192.74   10.94
   5   5  10  206.76   10.78
   5   5  11    5.39    2.36
   5  -5  11    4.36    2.02
   5  -5  12   84.84    7.44
   5   5  12   82.02    7.19
   5   5  13   22.86    4.16
  -5   6  13   18.20    3.64
  -5   6  12    8.92    2.83
  -5  -6  11  127.73    6.20
  -5   6  11  118.89    8.51
  -5   6  10   33.17    4.43
  -5  -6  10   27.87    2.70
  -5  -6   9  163.19    6.52
  -5  -6   9  179.43    6.70
  -5   6   9  167.88    9.53
  -5   6   8    6.69    2.07
  -5  -6   8    5.55    1.17
  -5  -6   8    7.41    1.20
  -5  -6   8    5.69    1.56
  -5  -6   7  792.23   18.64
  -5  -6   7  755.99   18.51
  -5  -6   7  787.38   21.25
  -5   6   7  749.43   23.81
  -5  -6   6    1.26    1.02
  -5  -6   6    0.62    0.48
  -5  -6   6    0.06    0.44
   5  -6  -6   -0.11    1.41
   5  -6  -5  391.30   14.39
  -5  -6   5  422.61    9.98
  -5  -6   5  428.21    9.99
  -5  -6   5  393.80   12.25
   5  -6  -4  138.18    7.28
  -5   6   4  141.26    7.23
  -5  -6   4  120.62    3.39
  -5  -6   4  132.66    5.45
   5  -6  -3  387.23   13.59
  -5  -6   3  377.31    8.88
  -5   6   3  398.16   13.66
  -5  -6   3  379.90   10.98
   5   6  -2  126.55    3.87
   5  -6  -2  138.75    7.10
  -5  -6   2  123.60    3.87
  -5   6   2  134.38    7.00
  -5   6   1   46.27    3.99
  -5  -6   1   43.61    2.26
   5   6  -1   47.21    2.32
   5  -6  -1   46.40    4.08
  -5   6   0  232.95    9.75
  -5  -6   0  223.32    7.00
   5  -6   0  228.57    9.76
   5   6   0  233.32    7.05
  -5   6  -1   30.84    3.35
  -5  -6  -1   34.44    2.45
   5  -6   1   26.53    3.19
   5   6   1   38.58    2.58
  -5  -6  -2  720.70   18.54
   5   6   2  708.10   18.51
   5  -6   2  681.54   21.00
   5  -6   3   21.92    3.24
   5   6   3   18.52    2.18
  -5  -6  -3   16.28    2.08
   5   6   4   92.40    5.14
   5  -6   4  100.23    6.38
   5   6   5   91.57    5.44
   5  -6   5   85.04    6.11
   5  -6   6   36.36    4.16
   5   6   6   37.12    3.64
   5  -6   7  116.26    7.67
   5   6   7  142.23    7.61
   5   6   8   15.79    2.63
   5  -6   8   15.61    3.13
   5  -6   9  196.71   10.81
   5   6   9  193.30   10.00
   5   6  10    4.38    2.14
   5  -6  10   -0.50    1.76
   5  -6  11  436.57   17.94
   5   6  11  386.73   16.49
   5   6  12   19.57    3.74
   5  -6  12   16.58    3.51
   5   6  13   98.55    8.11
  -5   7  13   13.35    3.29
  -5   7  12  104.16    8.24
  -5   7  11    5.39    2.58
  -5  -7  10  425.64   12.60
  -5   7  10  437.77   17.46
  -5   7   9   43.86    4.94
  -5  -7   9   38.59    2.58
  -5  -7   8  199.31    6.25
  -5  -7   8  193.22    6.20
  -5   7   8  184.00   10.07
  -5  -7   7    1.57    0.57
   5  -7  -7    0.37    1.32
  -5  -7   7    1.77    0.54
   5  -7  -6  841.85   25.47
  -5  -7   6  909.23   22.74
  -5  -7   5    0.04    0.69
   5  -7  -5   -0.70    1.65
   5  -7  -4  156.98    8.14
  -5  -7   4  163.72    5.96
  -5  -7   3    5.31    1.04
   5  -7  -3    5.01    1.89
   5  -7  -2   81.69    5.58
  -5   7   2   86.87    5.72
  -5   7   1    0.00    1.18
   5   7  -1    0.94    0.43
   5  -7  -1    1.16    1.42
   5   7   0   26.35    1.76
   5  -7   0   27.54    3.30
   5  -7   1   85.74    5.80
   5   7   1   83.98    3.82
   5   7   2   13.54    1.68
   5  -7   2    8.58    2.16
   5  -7   3   19.98    2.94
   5   7   3   20.75    2.19
   5   7   4  178.80    7.55
   5  -7   4  176.29    9.01
   5   7   5    3.33    1.29
   5  -7   5    7.35    2.06
   5   7   6  364.14   13.11
   5  -7   6  368.17   14.70
   5   7   7    7.73    2.04
   5  -7   7    7.38    2.29
   5  -7   8  271.78   12.90
   5   7   8  290.59   12.13
   5  -7   9  127.76    8.74
   5   7   9  134.28    8.16
   5  -7  10  641.58   23.04
   5   7  10  651.29   22.14
   5   7  11    4.94    2.29
   5  -7  11    3.86    2.35
   5  -7  12  342.47   16.26
   5   7  12  341.57   15.59
   5   7  13    4.44    2.47
  -5   8  12   70.29    6.80
  -5   8  11  206.48   11.71
  -5   8  10   39.20    4.94
  -5  -8   9  129.99    4.77
  -5   8   9  141.60    8.92
  -5   8   8    1.37    1.85
  -5  -8   8    0.81    0.52
   5  -8  -7   31.06    4.00
   5  -8  -6   11.58    2.53
   5  -8  -5  288.22   12.44
  -5  -8   5  342.95    9.87
   5  -8  -4   31.50    3.64
  -5  -8   4   30.63    2.15
   5  -8  -3  326.53   12.91
  -5  -8   3  344.32    9.29
   5  -8  -2   85.38    5.82
  -5  -8   2   80.04    3.23
   5  -8  -1   41.55    4.20
   5  -8   0  170.76    8.63
   5   8   0  170.13    5.13
   5   8   1   72.00    3.42
   5  -8   1   74.15    5.51
   5   8   2  445.10   12.59
   5  -8   2  458.22   15.92
   5   8   3    3.33    1.11
   5  -8   3    3.77    1.58
   5   8   4   90.58    5.00
   5  -8   4   89.83    6.32
   5   8   5  135.30    6.70
   5  -8   5  114.29    7.39
   5  -8   6    5.65    2.15
   5   8   6    7.28    1.76
   5   8   7  158.89    8.17
   5  -8   7  150.61    9.10
   5  -8   8    1.44    1.70
   5   8   8    0.87    1.30
   5  -8   9   46.98    5.28
   5   8   9   50.39    4.94
   5  -8  10    1.04    1.68
   5   8  10    1.90    1.76
   5  -8  11  255.04   13.21
   5   8  11  216.63   11.77
   5   8  12   17.37    3.63
   5   8  13   89.58    7.72
  -5   9  12    2.45    1.57
  -5   9  11  193.56   11.41
  -5   9  10    6.62    2.48
  -5   9   9   99.32    7.59
  -5   9   8   -0.94    1.65
   5  -9  -7    0.09    1.48
   5  -9  -6   55.58    5.10
   5  -9  -5   22.53    3.40
   5  -9  -4  116.60    7.26
   5  -9  -3  186.90    9.32
   5  -9  -2   46.03    4.43
  -5  -9   2   47.03    1.86
   5  -9  -1  280.86   11.75
  -5  -9   1  269.55    6.79
   5   9   0   29.43    1.50
   5  -9   0   24.86    3.41
   5   9   1  778.11   18.70
   5  -9   1  781.63   23.54
   5   9   2    2.19    0.93
   5  -9   2    4.72    1.78
   5   9   3  496.00   14.07
   5  -9   3  465.22   16.87
   5  -9   4    1.60    1.59
   5   9   4    1.76    1.07
   5   9   5  334.43   11.73
   5  -9   5  325.57   13.78
   5  -9   6   27.07    3.88
   5   9   6   31.27    3.35
  -5  -9  -6   26.48    2.91
  -5  -9  -7  194.12    8.79
   5   9   7  201.15    9.45
   5  -9   7  217.35   11.16
   5  -9   8   27.21    4.11
   5   9   8   19.70    2.94
   5   9   9   89.01    6.61
   5  -9   9   94.91    7.64
   5  -9  10   -1.11    2.01
   5   9  10    6.32    2.73
   5  -9  11   -2.92    2.46
   5   9  11    0.27    1.99
   5   9  12    3.92    2.32
  -5  10  12  113.30    8.96
  -5  10  11   12.77    3.20
  -5  10  10    0.84    1.88
  -5  10   9    8.86    2.90
  -5  10   8   27.87    4.27
   5 -10  -7  204.06   10.64
   5 -10  -6    4.01    2.04
   5 -10  -5  549.40   19.04
   5 -10  -4   51.23    4.87
   5 -10  -3    5.72    2.02
   5 -10  -2  244.75   11.11
   5 -10  -1   41.16    4.36
   5 -10   0  835.33   25.22
   5  10   1    8.79    1.07
   5 -10   1    9.63    2.49
  -5 -10  -1   11.44    0.97
   5  10   2  328.80    9.84
   5 -10   2  322.40   13.39
  -5 -10  -2  338.90    9.13
   5  10   3   16.51    2.01
   5 -10   3   21.76    3.38
  -5 -10  -3   16.46    1.73
   5  10   4  594.35   17.05
   5 -10   4  558.80   19.83
  -5 -10  -4  617.99   16.29
   5 -10   5   -0.99    1.85
   5  10   5    0.64    0.96
  -5 -10  -5    1.46    1.08
   5  10   6  357.04   12.83
   5 -10   6  346.00   14.72
  -5 -10  -6  355.84   12.07
  -5 -10  -7   99.57    5.96
   5 -10   7  110.62    7.81
   5  10   7  103.97    6.46
   5 -10   8   48.77    5.34
   5  10   8   45.97    4.55
   5  10   9   61.78    5.55
   5 -10   9   66.45    6.38
   5 -10  10    7.52    2.64
   5  10  10    4.02    1.93
   5 -10  11   60.95    6.41
   5  10  11   54.18    5.77
   5  10  12   16.79    3.45
  -5  11  11   20.55    4.27
  -5  11  10  297.10   14.57
  -5  11   9   15.53    3.30
  -5  11   8  250.46   12.74
   5 -11  -7   13.13    2.87
   5 -11  -6  371.04   15.18
   5 -11  -5   19.01    3.34
   5 -11  -4  436.56   16.48
   5 -11  -3   94.25    6.77
   5 -11  -2  166.33    9.13
   5 -11  -1  264.28   11.90
   5 -11   0   50.85    5.01
   5  11   1    0.96    0.44
   5  11   1    1.44    0.60
   5 -11   1   -0.07    1.72
  -5 -11  -2    0.92    0.43
   5  11   2    0.74    0.67
   5 -11   2    0.06    1.58
  -5 -11  -3    7.22    1.10
   5  11   3    6.63    1.31
   5 -11   3    4.75    2.06
   5  11   4   39.92    3.20
  -5 -11  -4   38.37    2.75
   5 -11   4   35.85    4.47
   5 -11   5   30.65    4.16
   5  11   5   41.65    3.54
  -5 -11  -5   37.06    2.96
   5 -11   6  221.08   11.52
  -5 -11  -6  226.76    8.95
   5  11   6  237.63    9.86
   5 -11   7    1.19    1.89
   5  11   7    2.54    1.37
   5 -11   8  484.21   18.84
   5  11   8  452.56   16.59
   5 -11   9   38.72    5.11
   5  11   9   31.88    4.33
   5 -11  10  202.24   11.71
   5  11  10  177.03   10.17
   5  11  11   20.11    3.74
   5  11  12  316.27   15.10
  -5  12  11   86.14    7.79
  -5  12  10  137.79    9.64
  -5  12   9  115.23    8.54
  -5  12   8    2.26    1.91
   5 -12  -7  164.25    9.76
   5 -12  -6   25.76    3.88
   5 -12  -5   41.30    4.72
   5 -12  -4   -2.05    2.12
   5 -12  -3  247.02   11.80
   5 -12  -2   -0.43    1.87
   5 -12  -1  233.50   11.34
   5 -12   0   46.57    4.84
   5  12   1    0.49    0.40
   5  12   1    0.90    0.41
   5 -12   1    1.75    1.87
   5  12   2   51.02    2.87
   5  12   2   47.01    2.78
   5 -12   2   42.22    4.69
   5  12   3   96.27    4.72
   5 -12   3  103.94    7.38
   5  12   3   95.05    4.75
  -5 -12  -3   90.62    3.55
  -5 -12  -4   18.11    1.72
   5  12   4   20.10    2.24
   5 -12   4   17.17    3.14
   5 -12   5   95.80    7.17
   5  12   5   81.58    5.10
   5 -12   6   13.03    3.19
   5  12   6   18.15    2.68
   5 -12   7  296.65   13.90
   5  12   7  271.91   11.56
   5 -12   8    7.89    2.73
   5  12   8    5.39    1.85
   5  12   9  126.34    8.02
   5 -12   9  117.53    8.74
   5 -12  10   -1.67    2.15
   5  12  10   -0.60    2.00
   5  12  11   75.21    6.69
   5  12  12    0.33    1.60
  -5  13  10   83.84    7.52
  -5  13   9   15.49    3.36
  -5  13   8   66.61    6.40
   5 -13  -7   10.69    2.87
   5 -13  -6  258.28   12.78
   5 -13  -5   53.55    5.49
   5 -13  -4   -0.61    1.77
   5 -13  -3   81.61    6.62
   5 -13  -2  185.87   10.20
   5 -13  -1  596.66   20.67
   5 -13   0    1.65    1.74
   5  13   1  247.37    6.56
   5 -13   1  243.58   11.94
   5 -13   2    1.63    1.73
   5  13   2    3.98    0.94
   5 -13   3  384.10   15.80
   5  13   3  382.82   11.59
   5  13   4    0.22    0.76
   5 -13   4   -0.94    1.89
   5 -13   5  259.52   12.81
   5  13   5  269.71   10.19
   5  13   6   27.52    3.15
   5 -13   6   29.10    4.31
   5 -13   7   33.57    4.71
   5  13   7   30.70    3.59
   5  13   8   97.12    6.68
   5 -13   8  103.15    8.17
   5 -13   9   11.34    3.04
   5  13   9    7.69    2.29
   5  13  10   40.67    4.79
   5  13  11   10.15    3.06
   5  13  12   27.47    4.23
  -5  14  10  186.03   11.63
  -5  14   9   27.18    4.19
  -5  14   8   11.08    2.89
   5 -14  -7    1.59    2.39
   5 -14  -6   31.69    4.44
   5 -14  -5    5.51    2.47
   5 -14  -4   20.46    3.66
   5 -14  -3   60.47    5.87
   5 -14  -2  385.06   15.97
   5 -14  -1   28.48    4.10
   5 -14   0  110.19    7.89
   5 -14   1   33.51    4.44
   5 -14   2  350.59   15.15
   5  14   2  345.39    9.84
   5  14   3   -0.87    0.88
   5 -14   3    4.48    2.23
   5 -14   4  617.02   22.05
   5  14   4  625.70   17.66
   5 -14   5   52.14    5.73
   5  14   5   54.59    4.10
   5  14   6  243.74   10.23
   5 -14   6  240.94   12.67
   5  14   7    0.64    1.55
   5 -14   7    0.75    1.83
   5 -14   8   58.28    6.08
   5  14   8   56.60    5.13
   5 -14   9   15.90    3.51
   5  14   9   14.74    2.93
   5  14  10   14.49    3.29
   5  14  11    2.38    2.29
   5  14  12   18.95    3.91
  -5  15   9   18.41    3.81
  -5  15   8  213.34   12.27
   5 -15  -7   -2.47    2.07
   5 -15  -6   34.94    4.75
   5 -15  -5   29.19    4.38
   5 -15  -4  131.39    8.90
   5 -15  -3  111.49    8.12
   5 -15  -2  461.70   18.25
   5 -15  -1  224.18   11.74
   5 -15   0  133.32    8.86
   5 -15   1  361.81   15.73
   5 -15   2    1.91    2.14
   5 -15   3  333.20   15.00
   5  15   4   22.90    2.53
   5 -15   4   22.51    3.98
   5  15   5   76.91    4.93
   5 -15   5   78.94    7.00
   5  15   6   73.97    5.22
   5 -15   6   78.86    7.06
   5  15   7   48.31    4.50
   5 -15   7   47.28    5.58
   5  15   8   97.44    6.79
   5 -15   8   89.77    7.86
   5  15   9    8.17    2.59
   5  15  10   89.92    7.15
   5  15  11   10.56    2.98
  -5  16   8   17.84    3.55
   5 -16  -7  198.48   11.83
   5 -16  -6   45.11    5.45
   5 -16  -5  220.83   12.27
   5 -16  -4    7.43    2.57
   5 -16  -3  134.33    9.19
   5 -16  -2   23.71    3.87
   5 -16  -1   43.86    5.27
   5 -16   0    7.74    2.95
   5 -16   1   -1.36    2.15
   5 -16   2    6.46    2.58
   5 -16   3   12.81    3.16
   5 -16   4   -2.39    2.56
   5 -16   5   58.27    6.16
   5 -16   6   15.42    3.49
   5 -16   7  122.90    9.17
  -5  17   7    0.96    1.63
   5 -17  -7   -3.36    2.27
   5 -17  -6  208.94   12.21
   5 -17  -5    2.51    2.06
   5 -17  -4  223.15   12.49
   5 -17  -3  180.77   10.97
   5 -17  -2   15.83    3.39
   5 -17  -1   92.47    7.62
   5 -17   0   90.95    7.61
   5 -17   1  157.81   10.15
   5 -17   2    9.47    2.95
   5 -17   3   53.49    6.01
   5 -17   4   22.00    3.97
   5 -17   5   42.66    5.42
   5 -17   6   64.00    6.59
   5 -18  -5   94.49    8.09
   5 -18  -4  168.60   10.88
   5 -18  -3   13.31    3.45
   5 -18  -2   55.90    6.14
   5 -18  -1   21.24    3.91
   5 -18   0  257.98   13.54
   5 -18   1    2.15    2.28
   5 -18   2  349.90   16.30
   5 -18   3    6.39    2.71
   5 -18   4   88.59    7.83
   5 -18   5    7.79    2.75
   5 -19  -3   96.18    8.14
   5 -19  -2    2.58    1.76
   5 -19  -1  194.00   11.78
   5 -19   0    2.58    2.19
   5 -19   1  554.69   21.90
   5 -19   2    2.33    2.18
   5 -19   3  267.19   14.28
  -6   0  13    0.67    1.71
  -6   0  12    8.52    2.87
  -6   0  11   -0.63    1.77
  -6   0  10  100.33    7.27
  -6   0   9    3.25    1.94
  -6   0   8  141.26    7.20
  -6   0   8  152.35    8.39
  -6   0   7   -0.33    1.18
  -6   0   7   -0.32    1.01
  -6   0   6  108.95    5.84
  -6   0   6  114.02    6.75
  -6   0   5   -0.25    0.89
   6   0  -5    0.72    1.15
   6   0  -4  532.74   15.85
  -6   0   4  518.93   15.63
   6   0  -3   -1.08    1.20
  -6   0   3   -1.25    1.16
  -6   0   2  841.43   22.66
   6   0  -2  856.68   22.74
   6   0  -1   -0.17    1.30
  -6   0   1   -0.13    1.10
  -6   0   0   27.77    2.87
   6   0   0   19.88    2.53
  -6   0  -1   -0.31    1.10
   6   0   1    0.59    1.12
   6   0   2    7.45    1.89
  -6   0  -2    5.23    1.69
   6   0   3   -0.49    1.21
  -6   0  -3    1.79    1.27
   6   0   4   99.17    6.32
   6   0   5    0.20    1.26
   6   0   6   17.47    2.90
   6   0   7   -2.59    1.75
   6   0   8   54.27    5.31
   6   0   9    3.95    2.24
   6   0  10  477.89   18.92
   6   0  11    1.11    1.83
   6   0  12  315.60   15.46
  -6   1  14  130.31    8.63
  -6   1  14  131.15    9.64
  -6  -1  13   36.94    5.06
  -6   1  13   46.64    5.52
  -6  -1  12  221.24   11.61
  -6   1  12  223.98   11.98
  -6  -1  11   28.43    4.12
  -6   1  11   31.45    4.27
  -6  -1  10  117.13    7.61
  -6   1  10  117.02    7.88
  -6  -1   9   74.08    5.15
  -6  -1   9   84.42    6.19
  -6   1   9   83.91    6.44
  -6  -1   8   23.51    3.25
  -6   1   8   20.13    3.12
  -6   1   8   27.95    3.25
  -6  -1   8   20.47    2.64
  -6   1   7  136.82    7.06
  -6  -1   7  133.78    6.50
  -6  -1   7  143.66    7.67
  -6   1   7  134.98    7.79
  -6   1   6    0.64    1.03
  -6  -1   6    0.33    1.07
  -6  -1   6    2.02    1.27
   6   1  -5  199.54    7.80
   6  -1  -5  174.24    7.96
  -6   1   5  175.91    7.86
  -6  -1   5  194.06    7.67
  -6   1   4    0.93    1.02
   6   1  -4   -0.03    1.00
  -6  -1   4    0.74    0.90
   6  -1  -4    0.99    0.99
  -6   1   3  328.84   11.54
  -6  -1   3  354.60   11.23
   6   1  -3  334.95   11.15
   6  -1  -3  328.67   11.63
   6   1  -2   29.06    2.75
   6  -1  -2   32.98    3.18
  -6   1   2   25.71    2.81
  -6  -1   2   26.11    2.61
  -6   1   1  324.82   11.33
   6  -1  -1  301.69   11.18
   6   1  -1  309.78   10.76
  -6  -1   1  318.56   10.76
  -6   1   0  148.02    7.07
   6  -1   0  136.64    6.90
   6   1   0  147.59    6.74
  -6  -1   0  140.93    6.59
  -6   1  -1    7.84    1.77
  -6  -1  -1    8.99    1.73
   6  -1   1    7.24    1.79
   6   1   1    6.73    1.56
  -6  -1  -2   47.10    3.81
   6  -1   2   40.89    3.80
  -6   1  -2   52.29    4.20
   6   1   2   45.69    3.80
  -6  -1  -3    1.94    1.17
   6  -1   3   -1.10    1.26
   6   1   3    2.05    1.21
   6   1   4  866.66   24.71
  -6  -1  -4  911.97   25.08
   6  -1   4  853.73   25.08
   6  -1   5    2.91    1.44
   6   1   5    1.10    1.47
   6  -1   6  205.97   10.06
   6   1   6  207.66    9.92
   6  -1   7   60.89    5.51
   6   1   7   65.99    5.56
   6  -1   8   89.15    6.81
   6   1   8   84.73    6.56
   6  -1   9  162.01    9.71
   6   1   9  158.35    9.51
   6   1  10   53.61    5.73
   6  -1  10   52.64    5.64
   6  -1  11  201.23   11.71
   6   1  11  192.61   11.40
   6   1  12   13.38    3.22
  -6   2  13  399.07   17.52
  -6   2  12   -1.47    2.02
  -6  -2  12   -1.22    1.80
  -6   2  11  264.10   13.10
  -6  -2  11  290.06   12.97
  -6  -2  10    7.75    2.15
  -6   2  10   10.28    2.71
  -6  -2   9   95.09    6.54
  -6   2   9   99.49    7.10
  -6  -2   8   25.59    3.32
  -6   2   8   28.09    3.78
  -6  -2   8   26.85    2.87
  -6  -2   7    3.56    1.17
  -6  -2   7    7.30    1.98
  -6   2   7    3.83    1.85
  -6   2   7    1.18    1.16
   6  -2  -6   64.58    4.66
  -6   2   6   56.12    4.39
  -6  -2   6   60.54    3.83
  -6  -2   6   63.57    4.73
  -6   2   5    4.02    1.39
  -6  -2   5    5.27    1.29
   6  -2  -5    7.09    1.74
  -6  -2   4   31.42    2.67
   6   2  -4   30.60    2.63
  -6   2   4   26.69    2.85
   6  -2  -4   28.46    3.10
   6   2  -3   31.91    2.73
  -6  -2   3   34.70    2.81
  -6   2   3   27.32    2.96
   6  -2  -3   30.57    3.16
  -6   2   2    4.51    1.50
   6   2  -2    1.56    0.96
   6  -2  -2    2.63    1.40
  -6  -2   2    2.27    1.00
  -6   2   1   78.13    5.09
   6   2  -1   86.53    4.73
   6  -2  -1   81.11    5.21
  -6  -2   1   73.44    4.37
  -6  -2   0   22.49    2.42
   6  -2   0   26.50    3.02
   6   2   0   24.08    2.52
  -6   2   0   28.92    3.11
  -6   2  -1  250.87   10.20
   6  -2   1  250.87   10.16
   6   2   1  237.50    9.17
  -6  -2  -1  249.39    9.33
   6  -2   2   16.45    2.60
  -6  -2  -2   26.33    2.88
   6   2   2   21.39    2.65
  -6   2  -2   20.82    2.91
  -6  -2  -3  558.75   16.93
   6  -2   3  531.43   17.53
   6   2   3  534.28   16.71
   6  -2   4    9.01    2.18
   6   2   4    6.71    1.80
  -6  -2  -4   10.06    2.12
   6   2   5 1152.37   30.97
   6  -2   5 1135.49   31.60
   6  -2   6    0.07    1.46
   6   2   6    2.43    1.35
   6  -2   7  352.56   14.55
   6   2   7  360.64   14.22
   6  -2   8    5.20    1.79
   6   2   8    4.95    2.20
   6  -2   9   67.56    6.27
   6   2   9   62.68    5.88
   6  -2  10   84.07    7.21
   6   2  10   76.08    6.70
   6  -2  11    5.12    2.59
   6   2  11    8.42    2.85
   6   2  12    1.76    1.77
  -6   3  13    1.73    1.73
  -6   3  12  237.35   12.65
  -6   3  11   52.97    5.71
  -6  -3  11   56.18    4.35
  -6  -3  11   54.58    5.20
  -6  -3  10   76.03    5.94
  -6   3  10   70.57    6.32
  -6  -3   9   54.25    4.81
  -6   3   9   54.06    5.35
  -6  -3   8   46.66    3.50
  -6  -3   8   46.02    4.29
  -6   3   8   55.28    5.15
  -6  -3   7   35.16    3.59
  -6   3   7   32.87    4.08
  -6  -3   7   29.85    2.65
  -6  -3   6   10.53    2.18
  -6  -3   6   13.19    1.74
   6  -3  -6   12.35    2.29
  -6   3   6   14.11    2.33
  -6  -3   5   37.86    2.73
  -6   3   5   34.20    3.36
   6  -3  -5   37.96    3.65
  -6  -3   5   37.52    3.50
   6   3  -4   55.73    3.39
  -6  -3   4   52.67    3.29
   6  -3  -4   54.18    4.36
  -6   3   4   50.36    4.20
   6   3  -3  138.55    5.68
   6  -3  -3  130.96    7.01
  -6  -3   3  139.65    5.65
  -6   3   3  133.56    6.95
  -6   3   2   56.59    4.32
   6   3  -2   46.07    3.13
   6  -3  -2   57.26    4.43
  -6  -3   2   50.20    3.29
  -6  -3   1    2.17    0.82
  -6   3   1    0.76    0.97
   6   3  -1    3.46    1.15
   6  -3  -1    4.76    1.73
  -6   3   0  761.30   21.47
   6  -3   0  732.32   21.34
   6   3   0  710.16   19.39
  -6  -3   0  712.75   19.38
   6   3   1   11.29    1.83
  -6  -3  -1    8.90    1.65
   6  -3   1    6.20    1.85
  -6   3  -1    9.48    2.12
  -6  -3  -2  853.55   22.77
   6  -3   2  815.08   24.09
   6   3   2  845.02   22.65
  -6  -3  -3    9.94    2.02
   6  -3   3    7.89    1.93
   6   3   3   12.14    2.06
   6   3   4  107.07    6.12
   6  -3   4  108.88    6.85
  -6  -3  -4  109.63    6.22
   6  -3   5    7.04    2.10
   6   3   5    8.85    2.12
   6  -3   6  429.45   16.20
   6   3   6  431.85   15.43
   6  -3   7   61.15    5.55
   6   3   7   55.38    5.05
   6  -3   8  161.34    9.50
   6   3   8  147.38    8.70
   6  -3   9   29.07    4.32
   6   3   9   36.74    4.46
   6  -3  10   40.56    5.17
   6   3  10   43.54    5.10
   6  -3  11   47.19    5.63
   6   3  11   42.24    5.18
   6   3  12   14.28    3.27
  -6   4  13   76.78    7.09
  -6   4  12   36.43    5.11
  -6   4  11   28.95    4.34
  -6   4  10   43.46    5.13
  -6  -4  10   56.41    5.06
  -6  -4  10   54.16    3.87
  -6  -4   9   94.63    6.21
  -6   4   9   89.98    6.98
  -6  -4   8  131.21    7.29
  -6   4   8  135.30    8.39
  -6   4   7   33.19    4.14
  -6  -4   7   39.68    2.82
  -6  -4   7   35.49    3.52
   6  -4  -6  191.02    9.09
  -6  -4   6  185.73    8.29
  -6  -4   6  189.60    6.77
  -6  -4   5    0.71    1.03
   6  -4  -5    4.48    1.91
  -6  -4   5    4.89    1.08
   6  -4  -4  256.68   10.51
  -6  -4   4  240.17    7.72
  -6   4   4  244.68   10.22
  -6  -4   3    5.39    1.12
  -6   4   3    7.24    1.76
   6   4  -3    5.06    1.03
   6  -4  -3    7.58    1.82
  -6   4   2  195.08    8.86
   6   4  -2  195.86    6.93
   6  -4  -2  185.44    8.82
  -6  -4   2  206.70    6.98
  -6   4   1   13.24    2.42
   6   4  -1    8.12    1.37
   6  -4  -1   13.55    2.46
  -6  -4   1    9.86    1.50
  -6  -4   0  395.67   11.94
   6  -4   0  398.61   14.13
   6   4   0  390.13   11.90
  -6  -4  -1  315.11   10.58
   6  -4   1  316.38   12.35
   6   4   1  327.41   10.66
   6  -4   2   77.26    5.59
  -6  -4  -2   71.28    4.54
   6   4   2   84.96    4.90
   6  -4   3   -0.02    1.38
   6   4   3    2.37    1.15
  -6  -4  -3    1.38    1.16
  -6  -4  -4   19.87    2.68
   6  -4   4   13.65    2.70
   6   4   4   17.89    2.51
   6  -4   5    2.00    1.91
   6   4   5   -0.61    1.10
   6   4   6   56.13    4.82
   6  -4   6   60.22    5.56
   6  -4   7  137.60    8.54
   6   4   7  131.67    7.80
   6  -4   8  127.73    8.50
   6   4   8  114.90    7.62
   6  -4   9   63.33    6.09
   6   4   9   69.72    6.10
   6  -4  10  159.35   10.13
   6   4  10  138.85    9.17
   6  -4  11   15.54    3.64
   6   4  11   10.37    2.84
   6   4  12  197.23   11.69
  -6   5  12   59.73    6.34
  -6   5  11   54.78    5.95
  -6  -5  10  105.38    6.72
  -6   5  10  100.83    7.79
  -6  -5   9  196.15    9.29
  -6   5   9  194.89   10.78
  -6  -5   8    1.43    1.07
  -6  -5   8    0.96    0.75
   6  -5  -7  436.53   16.01
  -6  -5   7  459.73   14.93
  -6  -5   6    1.06    1.19
   6  -5  -6    0.53    1.58
  -6  -5   6    1.67    0.72
   6  -5  -5  500.71   17.37
  -6  -5   5  541.61   13.54
  -6  -5   5  535.09   15.91
  -6  -5   4    6.13    1.39
  -6  -5   4    7.98    1.08
   6  -5  -4    5.81    1.86
   6   5  -3  237.11    7.13
   6  -5  -3  208.25    9.73
  -6  -5   3  229.95    7.00
  -6  -5   2   33.24    2.22
   6   5  -2   30.70    2.18
   6  -5  -2   33.11    3.65
  -6  -5   1   76.99    3.79
   6   5  -1   78.71    3.84
   6  -5  -1   72.57    5.39
   6  -5   0   89.25    6.02
   6   5   0   94.41    4.50
  -6  -5   0   91.54    4.48
   6  -5   1  429.16   15.31
   6   5   1  441.06   12.87
  -6  -5  -1  414.82   12.71
  -6  -5  -2   50.74    3.60
   6  -5   2   50.93    4.56
   6   5   2   45.60    3.48
   6   5   3   56.98    4.10
  -6  -5  -3   56.03    4.12
   6  -5   3   61.98    5.25
   6  -5   4   30.07    3.83
   6   5   4   28.57    3.03
  -6  -5  -4   30.35    3.14
   6  -5   5   24.28    3.54
  -6  -5  -5   30.42    3.46
   6   5   5   29.98    3.31
   6   5   6  164.45    8.46
   6  -5   6  181.84    9.83
   6   5   7   85.71    6.18
   6  -5   7   80.97    6.65
   6  -5   8   44.40    5.17
   6   5   8   42.01    4.48
   6  -5   9  219.55   11.91
   6   5   9  215.45   11.10
   6  -5  10   17.35    3.42
   6   5  10   14.14    3.06
   6  -5  11  244.42   13.30
   6   5  11  224.07   12.25
   6   5  12    0.60    1.76
  -6   6  12   14.32    3.45
  -6   6  11   94.09    7.78
  -6   6  10    7.31    2.93
  -6  -6   9   70.99    5.18
  -6   6   9   78.00    6.70
  -6  -6   8  150.73    7.49
  -6   6   8  148.30    9.16
   6  -6  -7   95.14    6.66
  -6  -6   7   94.59    3.70
  -6  -6   7   98.94    5.63
   6  -6  -6  259.01   11.47
  -6  -6   6  257.51    7.02
  -6  -6   6  262.70    7.07
  -6  -6   6  262.33    9.73
  -6  -6   5   11.11    1.84
  -6  -6   5   11.59    0.95
   6  -6  -5   11.71    2.38
  -6  -6   4  105.60    3.36
   6  -6  -4   95.78    6.39
  -6  -6   4  101.99    5.13
   6  -6  -3   67.89    5.32
  -6  -6   3   61.43    2.55
   6   6  -2   47.53    2.41
   6  -6  -2   45.74    4.31
  -6  -6   2   50.02    2.46
  -6  -6   1  192.59    6.38
   6   6  -1  203.51    6.52
   6  -6  -1  190.91    9.44
  -6  -6   0  218.83    7.37
   6  -6   0  228.31   10.32
   6   6   0  217.57    7.36
  -6  -6  -1  344.73   10.76
   6  -6   1  355.20   13.67
   6   6   1  349.76   10.75
  -6  -6  -2    5.14    1.32
   6   6   2    5.26    1.30
   6  -6   2    7.42    2.13
   6   6   3  575.30   16.65
  -6  -6  -3  558.40   16.50
   6  -6   3  554.68   18.93
   6  -6   4    3.12    1.69
   6   6   4    3.46    1.29
  -6  -6  -4    2.69    1.28
   6   6   5  193.39    8.70
   6  -6   5  180.70    9.78
   6   6   6   75.71    5.43
   6  -6   6   73.92    6.29
   6   6   7  422.32   15.41
   6  -6   7  418.14   16.88
   6  -6   8   28.95    4.29
   6   6   8   25.19    3.54
   6  -6   9  115.64    8.47
   6   6   9  109.53    7.64
   6  -6  10  101.45    8.24
   6   6  10  100.59    7.60
   6   6  11   23.22    4.11
   6   6  12   34.18    4.76
  -6   7  12   67.48    6.87
  -6   7  11    1.81    2.00
  -6   7  10  233.68   12.53
  -6   7   9    4.22    2.36
  -6   7   8  125.38    8.56
   6  -7  -7    9.49    2.59
  -6  -7   7    3.96    1.48
  -6  -7   6    6.67    1.61
   6  -7  -6    8.15    2.29
  -6  -7   5   11.73    1.82
   6  -7  -5   13.36    2.66
   6  -7  -4   27.29    3.57
  -6  -7   4   26.11    2.37
   6  -7  -3   58.46    5.08
  -6  -7   3   68.10    3.71
   6   7  -2  265.76    6.72
   6  -7  -2  285.16   11.91
   6   7  -1    1.88    0.69
   6  -7  -1   -0.92    1.70
   6  -7   0  245.47   11.26
   6   7   0  260.68    7.92
   6   7   1   35.95    2.60
   6  -7   1   35.67    4.06
   6  -7   2  413.23   15.55
   6   7   2  411.62   12.47
   6   7   3    4.62    1.31
   6  -7   3    4.51    1.94
   6   7   4  434.75   13.85
   6  -7   4  390.85   15.71
   6  -7   5    0.66    1.84
   6   7   5    0.90    1.05
   6   7   6   72.51    5.27
   6  -7   6   82.59    6.65
   6  -7   7    1.03    2.18
   6   7   7   -0.81    1.68
   6   7   8  353.61   14.23
   6  -7   8  338.40   15.39
   6  -7   9    0.92    1.77
   6   7   9    0.24    1.62
   6  -7  10  117.66    8.92
   6   7  10  112.41    8.12
   6   7  11    3.76    2.36
   6   7  12    7.26    2.80
  -6   8  11   65.49    6.64
  -6   8  10  101.38    8.13
  -6   8   9   49.99    5.60
  -6   8   8  126.94    8.76
   6  -8  -7   84.83    6.65
   6  -8  -6  182.56    9.95
  -6  -8   6  201.73    7.59
  -6  -8   5    0.02    0.75
   6  -8  -5    0.01    1.47
   6  -8  -4   59.51    5.26
  -6  -8   4   59.59    3.34
   6  -8  -3   56.06    5.16
  -6  -8   3   57.55    3.18
   6  -8  -2   34.24    4.18
  -6  -8   2   26.00    2.03
   6   8  -1  207.27    5.46
   6  -8  -1  228.05   10.68
   6  -8   0  100.96    6.97
   6   8   0  108.13    4.07
   6   8   1   24.27    2.01
   6  -8   1   23.87    3.34
   6  -8   2   78.32    6.17
   6   8   2   72.17    4.07
   6   8   3  309.53   10.54
   6  -8   3  310.07   13.39
   6   8   4   31.20    3.11
   6  -8   4   26.71    3.83
   6   8   5  194.75    8.59
   6  -8   5  169.67    9.79
   6  -8   6   18.79    3.53
   6   8   6   17.10    2.72
   6  -8   7    7.75    2.80
   6   8   7    9.70    2.24
   6   8   8  187.34    9.77
   6  -8   8  192.74   11.19
   6   8   9   79.48    6.45
   6  -8   9   70.17    6.77
   6   8  10   81.84    6.88
   6  -8  10   82.06    7.44
   6   8  11   21.29    3.88
   6   8  12  169.37   10.73
  -6   9  11   24.51    4.22
  -6   9  10   37.63    5.15
  -6   9   9  143.14    9.68
  -6   9   8    3.85    2.29
   6  -9  -7  350.73   14.90
   6  -9  -6   14.08    2.76
   6  -9  -5  297.70   13.15
   6  -9  -4   -2.30    1.92
  -6  -9   4   -0.36    0.50
   6  -9  -3  165.25    9.35
  -6  -9   3  187.02    5.87
   6  -9  -2   42.53    4.55
  -6  -9   2   40.49    2.22
   6  -9  -1  428.12   16.26
   6   9   0   48.33    2.18
   6  -9   0   47.93    4.93
   6  -9   1   54.12    5.28
   6   9   1   67.83    3.27
   6   9   2    2.10    0.93
   6  -9   2    2.78    1.80
   6   9   3    2.55    1.08
   6  -9   3    3.71    2.16
   6   9   4   53.26    3.92
   6  -9   4   45.35    4.89
   6  -9   5    7.59    2.59
   6   9   5    8.57    1.86
   6  -9   6   43.27    4.97
   6   9   6   39.67    3.81
   6   9   7   86.63    6.06
   6  -9   7   91.67    7.46
   6   9   8    7.21    2.34
   6  -9   8    9.03    2.54
   6   9   9  165.49    9.61
   6  -9   9  194.43   11.53
   6   9  10   12.45    2.92
   6   9  11  181.54   10.80
   6   9  12   -1.99    2.03
  -6  10  10   83.22    7.53
  -6  10   9   96.26    7.90
  -6  10   8  152.73    9.93
   6 -10  -7   45.99    5.19
   6 -10  -6  238.27   11.87
   6 -10  -5    1.13    1.75
   6 -10  -4  494.12   18.28
   6 -10  -3    2.27    1.70
   6 -10  -2  555.54   19.60
   6 -10  -1  104.35    7.24
  -6 -10   1   85.69    2.69
   6 -10   0   24.05    3.66
   6 -10   1  160.41    9.37
   6  10   1  166.46    5.44
   6 -10   2   84.45    6.73
   6  10   2   85.77    4.16
   6  10   3  149.48    6.40
   6 -10   3  151.73    9.09
   6  10   4    2.54    1.16
   6 -10   4    5.18    2.25
   6  10   5   66.83    4.64
   6 -10   5   76.68    6.56
   6 -10   6    4.26    2.36
   6  10   6    1.97    1.38
   6  10   7   37.23    3.95
   6 -10   7   37.35    4.83
   6  10   8   85.13    6.36
   6 -10   8   91.14    7.70
   6  10   9  164.92    9.63
   6 -10   9  175.92   11.07
   6  10  10   34.89    4.68
   6  10  11   11.80    2.98
  -6  11  10  114.76    8.96
  -6  11   9   67.61    6.77
  -6  11   8  105.94    8.25
   6 -11  -7    4.68    2.51
   6 -11  -6    4.89    2.49
   6 -11  -5   95.53    7.34
   6 -11  -4   -2.70    1.92
   6 -11  -3   65.27    5.98
   6 -11  -2  106.27    7.64
   6 -11  -1   37.07    4.48
   6 -11   0  109.76    7.85
   6 -11   1    9.26    2.79
   6 -11   2  293.16   13.78
   6  11   2  321.11    9.46
   6  11   3    8.12    1.43
   6 -11   3   12.96    2.85
   6  11   4  288.65   10.28
   6 -11   4  299.35   13.88
   6  11   5   27.28    3.02
   6 -11   5   25.91    4.15
   6  11   6  358.40   13.22
   6 -11   6  375.38   16.28
   6 -11   7   52.36    5.78
   6  11   7   51.84    4.73
   6 -11   8   50.54    5.85
   6  11   8   46.50    4.66
   6  11   9   24.39    3.71
   6  11  10   63.77    6.14
   6  11  11   19.94    3.75
  -6  12   9   80.84    7.55
  -6  12   8   51.94    5.81
   6 -12  -7    2.79    2.22
   6 -12  -6   22.73    3.82
   6 -12  -5    3.54    2.36
   6 -12  -4   -0.75    1.74
   6 -12  -3   89.34    7.16
   6 -12  -2  101.38    7.57
   6 -12  -1  207.81   11.12
   6 -12   0   18.24    3.60
   6 -12   1  310.52   14.22
   6 -12   2   18.10    3.48
   6 -12   3  237.41   12.29
   6  12   4    6.67    1.48
   6 -12   4    4.95    2.12
   6  12   5  194.80    8.40
   6 -12   5  185.58   11.05
   6  12   6   13.11    2.36
   6 -12   6   15.07    3.28
   6  12   7  165.05    8.59
   6 -12   7  164.58   10.54
   6 -12   8   17.97    3.88
   6  12   8   19.19    3.14
   6  12   9   13.08    2.97
   6  12  10  153.03    9.51
   6  12  11    3.22    2.11
  -6  13   8   18.46    3.71
   6 -13  -7   75.88    6.96
   6 -13  -6   -0.38    1.94
   6 -13  -5  298.02   14.28
   6 -13  -4   18.21    3.87
   6 -13  -3  569.14   21.05
   6 -13  -2    4.42    2.27
   6 -13  -1   53.46    5.65
   6 -13   0    5.62    2.10
   6 -13   1   -0.79    1.89
   6 -13   2   55.55    5.90
   6 -13   3    1.39    1.90
   6 -13   4   42.16    5.12
   6 -13   5   -2.39    2.42
   6 -13   6  149.40    9.96
   6 -13   7   24.83    4.27
   6 -14  -7    0.38    1.92
   6 -14  -6  331.50   15.61
   6 -14  -5    4.73    2.46
   6 -14  -4  621.08   22.71
   6 -14  -3   18.78    3.61
   6 -14  -2  244.62   12.81
   6 -14  -1   -0.02    1.90
   6 -14   0  179.51   10.74
   6 -14   1    1.01    2.03
   6 -14   2    2.04    2.13
   6 -14   3    0.98    1.69
   6 -14   4   12.87    3.41
   6 -14   5   50.63    5.69
   6 -14   6   30.07    4.86
   6 -15  -7  123.52    9.30
   6 -15  -6    8.40    2.93
   6 -15  -5  177.31   10.99
   6 -15  -4   23.65    4.22
   6 -15  -3  181.83   11.06
   6 -15  -2    6.64    2.09
   6 -15  -1  117.06    8.69
   6 -15   0  125.52    9.08
   6 -15   1   39.84    5.18
   6 -15   2   50.41    5.78
   6 -15   3    4.39    2.06
   6 -15   4  195.16   11.67
   6 -15   5   -0.91    2.28
   6 -16  -5    5.95    2.28
   6 -16  -4   49.64    5.85
   6 -16  -3    9.79    2.87
   6 -16  -2    3.82    2.47
   6 -16  -1  126.97    9.33
   6 -16   0    4.36    2.23
   6 -16   1  244.94   13.30
   6 -16   2    2.23    2.46
   6 -16   3  213.13   12.37
   6 -16   4    0.29    2.06
   6 -17  -3   92.35    8.01
   6 -17  -2    3.43    2.27
   6 -17  -1   62.50    6.55
   6 -17   0  102.04    8.38
   6 -17   1   18.71    3.94
   6 -17   2  133.10    9.78
  -7   0  13    1.99    2.17
  -7   0  12  323.84   15.17
  -7   0  11   -2.15    2.22
  -7   0  10   57.60    5.69
  -7   0   9   -0.57    1.79
  -7   0   8  202.87   10.40
  -7   0   7   -0.45    1.30
  -7   0   6   22.37    3.25
   7   0  -5    0.42    1.14
  -7   0   5   -1.15    1.10
  -7   0   4  122.22    6.51
   7   0  -4  124.94    6.63
   7   0  -3    0.00    1.05
  -7   0   3    1.58    1.07
   7   0  -2    2.15    1.08
  -7   0   2    8.37    1.83
  -7   0   1    1.32    1.26
   7   0  -1   -0.97    1.27
  -7   0   0   34.94    3.57
   7   0   0   32.27    3.46
   7   0   1    0.25    1.16
   7   0   2  399.52   14.35
   7   0   3   -0.33    1.43
   7   0   4  319.35   12.87
   7   0   5   -0.92    1.58
   7   0   6  453.02   17.05
   7   0   7   -1.03    1.56
   7   0   8   57.82    5.81
   7   0   9    1.80    2.00
   7   0  10   37.69    5.04
  -7  -1  13   65.02    6.44
  -7   1  12   10.90    2.81
  -7  -1  12   13.39    3.08
  -7  -1  11  116.88    8.24
  -7   1  11  117.06    8.63
  -7  -1  10    4.67    2.29
  -7   1  10    1.47    2.22
  -7  -1   9  153.22    8.99
  -7   1   9  146.44    9.15
  -7  -1   8   25.65    3.63
  -7   1   8   17.51    3.24
  -7  -1   7   14.71    2.67
  -7   1   7   12.13    2.90
  -7  -1   6   33.95    3.88
   7  -1  -6   32.14    3.48
   7   1  -5   32.11    3.09
   7  -1  -5   31.55    3.46
  -7   1   5   30.21    3.31
  -7  -1   5   32.64    3.16
  -7   1   4  380.93   13.40
   7   1  -4  390.58   12.91
   7  -1  -4  386.78   13.59
  -7  -1   4  381.33   12.75
   7   1  -3    2.35    1.16
   7  -1  -3    2.72    1.43
  -7   1   3    3.74    1.58
  -7  -1   3    2.90    1.38
   7   1  -2  163.75    7.50
   7  -1  -2  157.77    7.83
  -7   1   2  161.73    7.83
  -7  -1   2  168.89    7.50
  -7  -1   1    1.82    1.23
   7   1  -1   -0.49    1.02
   7  -1  -1    1.83    1.20
  -7   1   1    2.75    1.23
   7  -1   0  137.50    7.39
   7   1   0  133.67    6.91
  -7  -1   0  135.56    6.86
   7  -1   1  151.85    7.94
   7   1   1  153.25    7.62
  -7  -1  -1  147.51    7.52
   7  -1   2  177.18    8.86
   7   1   2  161.51    8.09
   7  -1   3  207.94    9.88
   7   1   3  201.53    9.44
   7  -1   4   30.39    3.68
   7   1   4   30.85    3.61
   7  -1   5  290.21   12.66
   7   1   5  296.69   12.53
   7  -1   6    8.54    2.46
   7   1   6    5.48    2.10
   7   1   7   85.11    6.62
   7  -1   7   83.63    6.81
   7  -1   8    3.38    1.74
   7   1   8    5.49    2.40
   7  -1   9  108.39    8.29
   7   1   9  129.78    8.89
   7  -1  10   18.49    3.58
   7   1  10   21.56    3.83
  -7   2  12    2.09    2.41
  -7  -2  12   -0.96    1.97
  -7  -2  11    5.31    2.46
  -7   2  11    2.09    2.15
  -7  -2  10    8.00    2.28
  -7   2  10   16.60    3.32
  -7  -2   9   68.01    5.87
  -7   2   9   75.65    6.62
  -7  -2   8   30.88    3.89
  -7   2   8   29.73    4.07
  -7  -2   7  211.58   10.14
  -7   2   7  230.09   11.26
  -7  -2   6   -2.05    1.71
   7  -2  -6    0.68    1.41
   7  -2  -5  410.17   14.58
   7   2  -4    2.29    0.91
   7  -2  -4    2.14    1.37
  -7  -2   4    1.90    1.23
   7   2  -3  494.24   14.87
   7  -2  -3  453.59   16.01
  -7  -2   3  509.85   14.90
  -7  -2   2    2.33    1.21
   7   2  -2    0.53    0.86
   7  -2  -2    2.37    1.56
   7   2  -1  262.10    9.89
   7  -2  -1  249.18   10.76
  -7  -2   1  264.35    9.78
  -7  -2   0   -0.39    1.18
   7  -2   0    0.72    1.39
   7   2   0    3.36    1.27
  -7  -2  -1  224.10    9.29
   7  -2   1  217.96   10.06
   7   2   1  227.67    9.38
  -7  -2  -2   28.94    3.32
   7  -2   2   32.05    3.70
   7   2   2   26.61    3.08
   7  -2   3  168.98    8.93
   7   2   3  159.62    8.16
   7  -2   4    8.02    2.24
   7   2   4   10.28    2.21
   7  -2   5   11.03    2.73
   7   2   5   11.51    2.45
   7  -2   6   22.25    3.45
   7   2   6   23.41    3.37
   7  -2   7   32.85    4.48
   7   2   7   23.85    3.61
   7  -2   8    9.25    2.58
   7   2   8   13.97    3.14
   7  -2   9  158.26   10.18
   7   2   9  155.56    9.90
   7  -2  10    0.28    1.73
   7   2  10    0.63    1.89
  -7   3  12    0.85    1.77
  -7  -3  12    0.94    2.02
  -7   3  11   14.24    3.20
  -7  -3  11   10.41    2.70
  -7  -3  10   10.09    2.50
  -7   3  10    6.01    2.69
  -7  -3   9    2.93    1.64
  -7   3   9    1.79    1.80
  -7  -3   8   79.14    5.97
  -7   3   8   82.21    6.75
  -7   3   7   40.68    4.64
  -7  -3   7   45.97    4.33
   7  -3  -6  185.61    9.21
  -7  -3   6  177.71    8.73
  -7  -3   5   25.80    3.14
   7  -3  -5   28.71    3.50
   7   3  -4  254.74    8.92
   7  -3  -4  238.14   10.60
  -7  -3   3    8.67    1.58
   7   3  -3    7.66    1.44
   7  -3  -3    7.98    1.89
   7   3  -2  530.67   15.24
   7  -3  -2  480.69   16.84
  -7  -3   2  511.16   14.93
   7   3  -1   60.25    4.08
   7  -3  -1   62.42    5.08
  -7  -3   1   57.49    3.94
  -7  -3   0  338.25   11.34
   7  -3   0  304.10   12.60
   7   3   0  317.44   11.18
  -7  -3  -1   36.14    3.39
   7   3   1   36.61    3.31
   7  -3   1   30.18    3.69
  -7  -3  -2   99.29    5.84
   7  -3   2   94.35    6.48
   7   3   2  105.27    5.97
   7  -3   3  128.10    7.83
  -7  -3  -3  139.14    7.35
   7   3   3  127.80    7.01
   7  -3   4   35.55    4.31
   7   3   4   41.31    4.05
   7  -3   5  121.66    7.94
   7   3   5  124.37    7.33
   7  -3   6    4.75    1.95
   7   3   6    3.41    1.81
   7   3   7   58.88    5.37
   7  -3   7   65.22    6.00
   7  -3   8   15.69    3.20
   7   3   8   17.01    3.41
   7  -3   9   22.44    3.87
   7   3   9   15.85    3.49
   7  -3  10   70.29    7.02
   7   3  10   66.54    6.52
  -7   4  11    1.05    1.68
  -7  -4  11    1.49    1.84
  -7  -4  10  310.14   13.08
  -7   4  10  279.13   14.08
  -7  -4   9   22.50    3.30
  -7   4   9   24.41    4.07
  -7  -4   8   29.15    3.49
  -7   4   8   32.03    4.45
  -7  -4   7   91.46    6.02
  -7   4   7   79.96    6.76
   7  -4  -6   97.68    6.68
  -7  -4   6  100.95    6.15
  -7  -4   5    6.80    1.82
   7  -4  -5    9.25    2.24
   7  -4  -4    0.33    1.16
   7   4  -3   -0.43    0.72
   7  -4  -3   -0.04    1.34
   7   4  -2    7.61    1.38
   7  -4  -2    5.04    1.84
  -7  -4   2    8.12    1.56
  -7  -4   1  123.76    5.68
   7   4  -1  120.28    5.68
   7  -4  -1  112.67    7.09
  -7  -4   0  124.96    6.09
   7  -4   0  132.46    7.85
   7   4   0  140.47    6.41
  -7  -4  -1   41.65    3.50
   7   4   1   47.93    3.66
   7  -4   1   36.39    4.05
   7  -4   2  144.40    8.44
   7   4   2  155.16    7.32
  -7  -4  -2  151.98    7.33
   7   4   3    5.65    1.85
  -7  -4  -3    5.25    1.67
   7  -4   3    3.33    1.86
   7  -4   4  267.12   12.35
   7   4   4  270.36   11.11
   7  -4   5    4.42    2.03
   7   4   5    7.40    1.97
   7   4   6  121.30    7.48
   7  -4   6  127.62    8.44
   7  -4   7    5.96    2.70
   7   4   7   -0.50    1.99
   7   4   8  224.66   11.32
   7  -4   8  210.12   11.79
   7   4   9   64.92    6.15
   7  -4   9   70.39    6.86
   7   4  10  197.38   11.44
   7   4  11   12.94    3.33
  -7   5  11  124.32    9.22
  -7   5  10   51.43    5.82
  -7  -5  10   57.50    5.15
  -7  -5   9  175.42    8.94
  -7   5   9  165.82   10.36
  -7  -5   8   -0.87    1.43
  -7   5   8    3.47    2.47
   7  -5  -7  268.46   12.35
  -7  -5   7  307.99   11.69
  -7  -5   6   33.24    3.39
   7  -5  -6   25.26    3.59
   7  -5  -5   27.49    3.76
  -7  -5   5   35.76    3.43
  -7  -5   4    0.74    1.30
   7  -5  -4    1.36    1.30
   7   5  -3    1.49    0.76
   7  -5  -3    3.82    2.05
   7   5  -2  115.19    4.98
   7  -5  -2  106.20    6.99
   7   5  -1   18.78    2.08
   7  -5  -1   27.27    3.61
   7  -5   0   58.76    5.23
   7   5   0   54.49    3.61
  -7  -5   0   59.15    3.77
   7  -5   1  106.76    7.21
   7   5   1  109.58    5.62
  -7  -5  -1  110.40    5.64
   7   5   2   24.74    2.72
  -7  -5  -2   24.25    2.77
   7  -5   2   26.56    3.62
  -7  -5  -3  154.79    7.54
   7  -5   3  140.03    8.64
   7   5   3  144.51    7.19
   7  -5   4   19.29    3.42
   7   5   4   18.24    2.64
   7   5   5  268.26   11.33
   7  -5   5  267.69   12.78
   7  -5   6   30.64    4.31
   7   5   6   27.13    3.57
   7   5   7  360.57   14.56
   7  -5   7  351.50   15.72
   7  -5   8    3.62    1.80
   7   5   8    1.36    1.63
   7   5   9  213.91   11.41
   7  -5   9  202.83   11.94
   7   5  10   31.58    4.59
   7   5  11   86.62    7.73
  -7   6  10   95.94    8.00
  -7   6   9   14.79    3.38
  -7  -6   8  133.40    7.18
  -7   6   8  122.90    8.89
   7  -6  -7   51.07    5.11
  -7  -6   7   57.61    4.47
  -7  -6   6    5.72    1.75
   7  -6  -6    5.33    2.07
   7  -6  -5  124.45    7.94
  -7  -6   5  136.23    6.64
  -7  -6   4    2.63    1.25
   7  -6  -4    5.81    2.25
   7  -6  -3  288.74   12.67
   7   6  -2   25.17    1.93
   7  -6  -2   26.36    3.66
   7   6  -1  444.66   12.31
   7  -6  -1  411.87   16.09
   7   6   0   39.99    2.93
   7  -6   0   37.03    4.28
   7  -6   1  235.26   11.34
   7   6   1  238.04    8.69
   7  -6   2   63.28    5.64
   7   6   2   76.94    4.61
   7  -6   3   74.15    6.24
   7   6   3   69.79    4.73
   7   6   4   30.26    3.31
   7  -6   4   32.01    4.29
   7  -6   5   17.14    3.37
   7   6   5   17.55    2.78
   7   6   6  121.90    7.36
   7  -6   6  124.59    8.62
   7  -6   7    4.34    2.40
   7   6   7   -0.92    1.44
   7   6   8  264.55   12.35
   7  -6   8  259.81   13.63
   7  -6   9    0.88    2.45
   7   6   9    2.24    1.90
   7   6  10  103.44    8.05
   7   6  11   78.61    7.30
  -7   7  10  125.76    9.31
  -7   7   9    3.93    2.48
  -7   7   8  133.33    9.37
   7  -7  -7    0.78    1.87
   7  -7  -6  150.25    9.05
  -7  -7   6  156.40    7.17
  -7  -7   5    0.99    0.93
   7  -7  -5    2.71    2.04
   7  -7  -4  235.35   11.51
  -7  -7   4  244.22    8.92
  -7  -7   3    2.68    1.22
   7  -7  -3    1.88    1.57
   7  -7  -2  309.10   13.34
   7  -7  -1    1.03    1.75
   7   7   0  528.88   14.22
   7  -7   0  494.08   18.52
   7  -7   1    0.44    1.81
   7   7   1    0.20    0.82
   7  -7   2  118.40    7.85
   7   7   2  103.85    5.39
   7   7   3    9.36    1.77
   7  -7   3    8.50    2.62
   7   7   4    2.39    1.19
   7  -7   4    3.19    2.24
   7  -7   5    0.98    1.79
   7   7   5    1.83    1.32
   7  -7   6    8.69    2.94
   7   7   6   10.73    2.42
   7  -7   7    8.07    2.83
   7   7   7    8.91    2.38
   7  -7   8   32.36    4.84
   7   7   8   24.53    3.89
   7   7   9   19.92    3.51
   7   7  10  147.65    9.56
   7   7  11   -1.85    2.67
  -7   8   9   65.46    6.69
  -7   8   8  132.74    9.39
   7  -8  -7   23.64    3.86
   7  -8  -6    5.35    2.04
   7  -8  -5  101.65    7.40
   7  -8  -4   -0.46    1.94
   7  -8  -3  230.77   11.54
  -7  -8   2    8.11    1.50
   7  -8  -2   13.04    2.77
   7  -8  -1   44.49    4.85
   7  -8   0   73.80    6.27
   7  -8   1  148.27    9.10
   7  -8   2   92.67    7.20
   7   8   2   89.55    4.78
   7  -8   3   34.71    4.47
   7   8   3   35.92    3.22
   7   8   4   67.80    4.72
   7  -8   4   65.91    6.23
   7   8   5    1.37    1.22
   7  -8   5   -0.33    2.15
   7   8   6  129.62    7.47
   7  -8   6  126.38    8.88
   7  -8   7    0.28    1.75
   7   8   7    2.42    1.51
   7   8   8  122.57    8.01
   7  -8   8  137.53    9.63
   7   8   9    8.85    2.59
   7   8  10   48.55    5.30
   7   8  11  107.99    8.48
  -7   9   9  261.05   14.02
  -7   9   8    3.46    1.95
   7  -9  -7   96.05    7.58
   7  -9  -6   -0.24    1.80
   7  -9  -5   19.46    3.44
   7  -9  -4   16.03    3.27
   7  -9  -3    2.67    2.03
   7  -9  -2    2.19    2.04
   7  -9  -1   39.40    4.76
   7  -9   0   26.09    4.05
   7  -9   1   56.45    5.74
   7  -9   2    0.84    1.90
   7  -9   3  136.65    9.12
   7  -9   4   14.52    3.53
   7   9   5  143.70    7.46
   7  -9   5  156.65    9.95
   7   9   6    3.95    1.55
   7  -9   6    0.30    1.94
   7   9   7  473.92   17.05
   7  -9   7  492.20   19.94
   7   9   8   27.40    3.71
   7   9   9  285.33   13.26
   7   9  10    1.40    2.06
  -7  10   8   63.57    6.66
   7 -10  -7   37.26    4.88
   7 -10  -6  136.75    9.23
   7 -10  -5   84.54    7.26
   7 -10  -4    9.63    2.71
   7 -10  -3   32.09    4.57
   7 -10  -2    4.49    2.27
   7 -10  -1  145.54    9.24
   7 -10   0   87.88    7.19
   7 -10   1  105.47    8.02
   7 -10   2   65.01    6.34
   7 -10   3    5.85    2.65
   7 -10   4  257.93   13.25
   7 -10   5   21.61    4.06
   7 -10   6  285.09   14.42
   7 -11  -7    6.29    2.64
   7 -11  -6  347.57   15.83
   7 -11  -5    8.02    2.67
   7 -11  -4  171.62   10.43
   7 -11  -3    0.05    1.79
   7 -11  -2  228.47   12.21
   7 -11  -1    2.70    2.46
   7 -11   0   85.40    7.21
   7 -11   1   -1.16    2.12
   7 -11   2  144.02    9.65
   7 -11   3   24.79    4.19
   7 -11   4   49.90    5.76
   7 -11   5   94.68    7.88
   7 -11   6    2.76    2.27
   7 -12  -7  125.49    9.31
   7 -12  -6    0.07    1.77
   7 -12  -5  272.24   13.86
   7 -12  -4    0.38    2.08
   7 -12  -3  180.69   10.92
   7 -12  -2    1.11    1.98
   7 -12  -1  250.58   13.03
   7 -12   0    6.33    2.53
   7 -12   1   26.81    4.26
   7 -12   2   11.17    2.94
   7 -12   3   43.24    5.33
   7 -12   4    8.92    2.92
   7 -12   5   21.06    4.34
   7 -13  -6  102.29    8.34
   7 -13  -5    9.60    3.70
   7 -13  -4   39.62    5.14
   7 -13  -3    4.99    2.55
   7 -13  -2   15.15    3.20
   7 -13  -1   59.18    6.27
   7 -13   0    3.29    2.04
   7 -13   1   92.32    7.86
   7 -13   2   18.31    3.62
   7 -13   3  214.23   12.48
   7 -13   4   41.62    5.81
   7 -14  -4   38.15    5.10
   7 -14  -3   24.50    4.31
   7 -14  -2   -0.49    1.92
   7 -14  -1   26.02    4.32
   7 -14   0   -0.33    1.83
   7 -14   1    5.99    2.59
   7 -14   2   88.39    7.86
  -8   0  11    3.50    2.57
  -8   0  10    2.69    2.03
  -8   0   9    0.85    2.03
  -8   0   8   23.13    3.98
  -8   0   7    0.96    1.55
  -8   0   6   84.09    6.73
   8   0  -5    1.68    1.31
   8   0  -4  290.33   11.50
   8   0  -3   -0.67    1.39
   8   0  -2  293.40   11.74
   8   0  -1   -2.05    1.47
   8   0   0  114.59    6.96
   8   0   1   -0.60    1.25
   8   0   2  303.02   12.66
   8   0   3    2.17    1.79
   8   0   4   96.09    6.94
   8   0   5    3.61    2.10
   8   0   6   18.50    3.47
   8   0   7   -0.59    1.70
   8   0   8    2.82    1.78
  -8  -1  11   11.34    3.22
  -8   1  11    7.25    2.59
  -8  -1  10  126.74    8.85
  -8   1  10  140.24    9.49
  -8  -1   9    3.13    2.32
  -8   1   9    0.33    1.85
  -8  -1   8   61.75    5.80
  -8   1   8   60.62    5.94
  -8  -1   7   38.88    4.63
  -8   1   7   40.11    4.87
  -8  -1   6  112.06    7.51
   8  -1  -5   99.34    6.33
   8   1  -4   43.03    3.78
   8  -1  -4   43.96    4.16
   8   1  -3  172.30    8.13
   8  -1  -3  172.18    8.69
   8   1  -2   17.16    2.47
   8  -1  -2   14.85    2.67
   8   1  -1  211.66    9.45
   8  -1  -1  212.52    9.94
   8   1   0    9.97    2.11
   8  -1   0   17.10    2.93
   8  -1   1  117.91    7.41
   8   1   1  126.75    7.27
   8  -1   2   23.49    3.40
   8   1   2   26.84    3.39
   8  -1   3   50.35    5.19
   8   1   3   43.96    4.46
   8   1   4   29.39    3.82
   8  -1   4   28.02    3.93
   8  -1   5   42.61    4.79
   8   1   5   45.41    4.89
   8  -1   6   49.22    5.31
   8   1   6   42.93    5.02
   8  -1   7    1.59    1.68
   8   1   7   -0.19    1.74
   8  -1   8   20.61    3.77
   8   1   8   19.86    3.65
   8   1   9   10.74    2.84
  -8  -2  10    8.94    2.70
  -8   2  10   12.47    3.29
  -8  -2   9  295.92   13.39
  -8   2   9  278.44   13.89
  -8  -2   8    0.16    1.48
  -8   2   8    1.40    2.23
  -8  -2   7  250.47   11.56
  -8   2   7  228.23   12.04
  -8  -2   6   -1.87    1.83
   8  -2  -6    1.84    1.35
   8  -2  -5  182.03    9.19
   8  -2  -4   25.78    3.35
   8  -2  -3   73.86    5.69
   8   2  -2    3.41    1.25
   8  -2  -2    3.83    1.69
   8   2  -1    6.65    1.65
   8  -2  -1    3.68    1.82
   8   2   0   25.08    3.04
   8  -2   0   24.34    3.43
   8   2   1   47.76    4.27
   8  -2   1   40.62    4.50
   8  -2   2   -0.43    1.53
   8   2   2    2.18    1.26
   8  -2   3   64.82    5.79
   8   2   3   74.40    5.63
   8   2   4   13.60    2.61
   8  -2   4    9.62    2.70
   8  -2   5  207.21   11.11
   8   2   5  193.43   10.20
   8  -2   6    6.36    2.70
   8   2   6    3.53    1.81
   8  -2   7  166.01   10.29
   8   2   7  161.96    9.79
   8  -2   8    6.25    2.34
   8   2   8   10.14    2.82
   8   2   9  232.04   12.66
  -8   3  10   51.54    5.79
  -8  -3   9    8.63    2.53
  -8   3   9    9.21    3.00
  -8  -3   8  258.74   11.82
  -8   3   8  244.14   12.77
  -8  -3   7   33.33    4.01
  -8   3   7   21.09    3.77
   8  -3  -6  111.90    7.23
  -8  -3   6  116.05    7.23
   8  -3  -5   64.67    5.43
  -8  -3   5   67.20    5.38
   8  -3  -4   34.78    4.01
   8  -3  -3   80.97    6.16
   8  -3  -2   14.77    2.89
   8   3  -1    2.93    1.20
   8  -3  -1    1.21    1.39
   8   3   0   32.13    3.37
   8  -3   0   32.59    4.07
   8   3   1   36.76    3.58
   8  -3   1   31.55    4.08
   8  -3   2   92.47    6.87
   8   3   2   86.22    5.78
   8  -3   3   81.86    6.64
   8   3   3   82.75    5.82
   8  -3   4   81.12    6.68
   8   3   4   74.70    5.77
   8  -3   5   -1.67    1.82
   8   3   5    0.69    1.30
   8  -3   6  161.46   10.12
   8   3   6  163.54    9.49
   8  -3   7   11.08    2.90
   8   3   7    9.67    2.60
   8   3   8  217.27   11.84
   8  -3   8  227.34   12.66
   8   3   9    8.03    3.06
  -8   4   9   14.89    3.29
  -8   4   8   10.90    3.08
  -8   4   7   27.41    4.17
   8  -4  -6   74.88    6.12
  -8  -4   6   77.59    5.73
  -8  -4   5    2.50    1.23
   8  -4  -5    5.35    2.30
   8  -4  -4  151.88    8.78
   8  -4  -3   24.87    3.55
   8  -4  -2  216.86   10.78
   8  -4  -1   70.97    5.96
   8  -4   0  430.73   16.73
   8  -4   1    1.90    1.81
   8   4   1    3.82    1.62
   8  -4   2   75.09    6.38
   8   4   2   77.81    5.30
   8  -4   3    0.05    1.62
   8   4   3    0.46    1.15
   8  -4   4   58.86    5.77
   8   4   4   57.59    4.92
   8   4   5   37.25    4.21
   8  -4   5   34.61    4.71
   8  -4   6    0.12    1.62
   8   4   6   -1.44    1.91
   8  -4   7  133.29    9.37
   8   4   7  111.99    7.92
   8   4   8   -1.16    1.80
   8   4   9   27.84    4.33
  -8   5   9    6.18    2.91
  -8   5   8   48.23    5.52
   8  -5  -7   45.03    4.97
   8  -5  -6   19.26    3.57
   8  -5  -5   75.32    6.27
   8  -5  -4   43.87    4.79
   8  -5  -3  204.29   10.68
   8  -5  -2    2.67    1.95
   8  -5  -1  167.42    9.50
   8  -5   0   31.90    4.21
   8  -5   1  255.23   12.37
   8  -5   2    5.51    2.48
   8  -5   3  142.74    9.18
   8   5   4   12.68    2.45
   8  -5   4   14.52    3.24
   8  -5   5   60.06    6.17
   8   5   5   56.61    5.00
   8  -5   6    1.35    1.87
   8   5   6    1.40    1.72
   8  -5   7   13.19    3.28
   8   5   7   18.46    3.32
   8   5   8   52.54    5.46
   8   5   9    7.24    2.45
  -8   6   8    8.48    2.78
   8  -6  -7  284.28   13.36
   8  -6  -6   19.85    3.61
   8  -6  -5  122.73    8.26
   8  -6  -4   35.80    4.53
   8  -6  -3    4.46    1.85
   8  -6  -2  144.20    8.91
   8  -6  -1   11.07    3.04
   8  -6   0  146.36    9.14
   8  -6   1   -2.23    2.31
   8  -6   2   68.49    6.30
   8  -6   3   82.10    7.07
   8  -6   4   37.22    4.91
   8  -6   5   73.72    6.89
   8  -6   6   27.63    4.42
   8  -7  -7   -1.04    1.62
   8  -7  -6  172.30   10.20
   8  -7  -5    4.49    2.12
   8  -7  -4   41.67    4.97
   8  -7  -3   -0.32    2.23
   8  -7  -2    6.16    2.36
   8  -7  -1   37.87    4.86
   8  -7   0    0.96    1.76
   8  -7   1   -0.35    1.98
   8  -7   2   21.63    3.90
   8  -7   3    8.91    2.84
   8  -7   4  180.96   11.06
   8  -7   5    5.54    2.65
   8  -7   6  286.88   14.64
   8  -8  -7   34.13    4.54
   8  -8  -6   50.99    5.58
   8  -8  -5   64.35    6.19
   8  -8  -4   60.93    6.08
   8  -8  -3    8.20    2.54
   8  -8  -2  197.72   11.20
   8  -8  -1   -0.56    2.01
   8  -8   0   46.92    5.33
   8  -8   1    0.17    1.76
   8  -8   2  138.47    9.41
   8  -8   3   65.30    6.43
   8  -8   4    0.03    1.47
   8  -8   5  171.12   10.98
   8  -9  -7   36.29    4.96
   8  -9  -6    2.55    1.93
   8  -9  -5  107.37    8.21
   8  -9  -4    6.64    2.32
   8  -9  -3  110.98    8.34
   8  -9  -2   17.24    3.48
   8  -9  -1  332.18   15.31
   8  -9   0    3.19    2.10
   8  -9   1  193.85   11.48
   8  -9   2    0.28    1.63
   8  -9   3  148.56   10.00
   8  -9   4   23.21    4.31
   8 -10  -7   15.76    3.58
   8 -10  -6   35.96    4.90
   8 -10  -5   28.92    4.46
   8 -10  -4  112.52    8.68
   8 -10  -3   29.35    4.45
   8 -10  -2  101.89    8.18
   8 -10  -1   -0.05    1.96
   8 -10   0  111.20    8.50
   8 -10   1   31.14    4.66
   8 -10   2  265.01   14.00
   8 -10   3   13.23    3.45
   8 -11  -5    9.61    2.87
   8 -11  -4  162.86   10.57
   8 -11  -3    0.76    1.97
   8 -11  -2   31.43    4.69
   8 -11  -1   74.26    7.07
   8 -11   0    0.09    1.71
   8 -11   1   46.05    5.71
  -9   0   7    3.30    2.25
  -9   0   6  132.07    8.87
   9   0   2   28.75    3.85
   9   0   3   -2.03    2.03
   9   0   4   32.23    4.22
   9   0   5    6.81    2.83
   9   0   6   97.67    7.86
  -9   1   8   -3.50    2.36
  -9   1   7   84.04    7.24
  -9  -1   6    0.80    2.15
  -9   1   6    4.80    2.41
   9  -1   0   52.08    5.07
   9  -1   1   -0.03    1.57
   9  -1   2   41.65    4.74
   9  -1   3   17.84    3.48
   9  -1   4  125.13    8.57
   9  -1   5   54.08    5.92
   9   1   6   30.99    4.43
   9  -1   6   35.26    4.87
  -9   2   8   40.31    5.34
  -9   2   7    7.95    2.42
   9  -2  -1  120.36    7.90
   9  -2   0    1.25    1.82
   9  -2   1  148.41    9.17
   9  -2   2    0.43    1.82
   9  -2   3  219.44   11.63
   9  -2   4    4.14    2.43
   9  -2   5  181.36   10.96
   9  -2   6   20.68    4.15
  -9   3   7   72.64    7.00
   9  -3  -3   21.42    3.43
   9  -3  -2  117.44    7.91
   9  -3  -1   -0.60    1.93
   9  -3   0  109.98    7.85
   9  -3   1    0.82    1.84
   9  -3   2  261.38   13.00
   9  -3   3    6.78    2.70
   9  -3   4   68.13    6.56
   9  -3   5   15.20    3.31
   9  -4  -4  100.63    7.42
   9  -4  -3   13.63    3.04
   9  -4  -2   25.36    3.84
   9  -4  -1    8.33    2.52
   9  -4   0   -2.68    2.10
   9  -4   1   64.98    6.23
   9  -4   2   -2.52    2.40
   9  -4   3   28.91    4.15
   9  -4   4   31.64    4.48
   9  -4   5   16.58    3.56
   9  -5  -5  173.19   10.14
   9  -5  -4   -0.89    1.89
   9  -5  -3  104.52    7.77
   9  -5  -2    1.83    1.76
   9  -5  -1    4.24    2.14
   9  -5   0    3.22    1.99
   9  -5   1    4.50    2.24
   9  -5   2   12.03    3.07
   9  -5   3   10.25    2.97
   9  -5   4   -0.25    1.93
   9  -6  -6  102.75    7.89
   9  -6  -5   15.90    3.34
   9  -6  -4   27.56    4.29
   9  -6  -3   64.88    6.25
   9  -6  -2   28.57    4.48
   9  -6  -1   56.60    5.94
   9  -6   0    4.45    2.45
   9  -6   1  148.86    9.94
   9  -6   2    6.91    2.12
   9  -6   3  133.04    9.48
   9  -7  -6    6.80    2.75
   9  -7  -5    2.39    2.19
   9  -7  -4   49.71    5.65
   9  -7  -3    1.75    1.73
   9  -7  -2  130.72    9.21
   9  -7  -1    1.05    1.87
   9  -7   0  311.70   15.01
   9  -7   1    3.32    2.24
   9  -7   2  166.01   10.81
   9  -8  -5    7.02    2.49
   9  -8  -4   27.96    4.31
   9  -8  -3   62.64    6.44
   9  -8  -2   16.97    3.45
   9  -8  -1  109.22    8.64
   9  -8   0   -1.08    2.06
   0   0   0    0.00    0.00


TITL pvl488_auto in P2(1)/c
REM P2(1)/c (#14 in standard setting)
CELL 0.71073   7.213820  19.493998  13.465642  90.0000  92.9211  90.0000
ZERR   22.00   0.000252   0.000719   0.000461   0.0000   0.0031   0.0000
LATT  1
SYMM -x, y+1/2,-z+1/2
SFAC C H N O S Zn
UNIT 22.00 22.00 22.00 22.00 22.00 22.00
REM  CrysAlisPro recorded range (K): Min=130.0; max=130.1; aver:130.0
TEMP -143
TREF
HKLF 4
END
_computing_structure_solution     'SHELXT 2018/2 (Sheldrick, 2018)'
;
_shelx_hkl_checksum   52244

