 
data_pvl426_a
 
_audit_creation_method            'SHELXL-2018/3'
_shelx_SHELXL_version_number      '2018/3'
_chemical_name_systematic         ?
_chemical_name_common             ?
_chemical_melting_point           ?
_chemical_formula_moiety          ?
_chemical_formula_sum
 'C19 H15 N9 O5 S2 Zn' 
_chemical_formula_weight          578.89

loop_
 _atom_type_symbol
 _atom_type_description
 _atom_type_scat_dispersion_real
 _atom_type_scat_dispersion_imag
 _atom_type_scat_source
 'C'  'C'   0.0033   0.0016
 'International Tables Vol C Tables 4.2.6.8 and 6.1.1.4'
 'H'  'H'   0.0000   0.0000
 'International Tables Vol C Tables 4.2.6.8 and 6.1.1.4'
 'N'  'N'   0.0061   0.0033
 'International Tables Vol C Tables 4.2.6.8 and 6.1.1.4'
 'O'  'O'   0.0106   0.0060
 'International Tables Vol C Tables 4.2.6.8 and 6.1.1.4'
 'S'  'S'   0.1246   0.1234
 'International Tables Vol C Tables 4.2.6.8 and 6.1.1.4'
 'Zn'  'Zn'   0.2839   1.4301
 'International Tables Vol C Tables 4.2.6.8 and 6.1.1.4'
 
_space_group_crystal_system       monoclinic
_space_group_IT_number            14
_space_group_name_H-M_alt         'P 21/c'
_space_group_name_Hall            '-P 2ybc'
 
_shelx_space_group_comment
;
The symmetry employed for this shelxl refinement is uniquely defined
by the following loop, which should always be used as a source of
symmetry information in preference to the above space-group names.
They are only intended as comments.
;
 
loop_
 _space_group_symop_operation_xyz
 'x, y, z'
 '-x, y+1/2, -z+1/2'
 '-x, -y, -z'
 'x, -y-1/2, z-1/2'
 
_cell_length_a                    6.1186(3)
_cell_length_b                    18.2011(9)
_cell_length_c                    19.8262(11)
_cell_angle_alpha                 90
_cell_angle_beta                  97.886(5)
_cell_angle_gamma                 90
_cell_volume                      2187.1(2)
_cell_formula_units_Z             4
_cell_measurement_temperature     140(2)
_cell_measurement_reflns_used     ?
_cell_measurement_theta_min       ?
_cell_measurement_theta_max       ?
 
_exptl_crystal_description        ?
_exptl_crystal_colour             ?
_exptl_crystal_density_meas       ?
_exptl_crystal_density_method     ?
_exptl_crystal_density_diffrn     1.758          
_exptl_crystal_F_000              1176
_exptl_transmission_factor_min    ?
_exptl_transmission_factor_max    ?
_exptl_crystal_size_max           ?
_exptl_crystal_size_mid           ?
_exptl_crystal_size_min           ?
_exptl_absorpt_coefficient_mu     1.370
_shelx_estimated_absorpt_T_min    ?
_shelx_estimated_absorpt_T_max    ?
_exptl_absorpt_correction_type    ?
_exptl_absorpt_correction_T_min   ?
_exptl_absorpt_correction_T_max   ?
_exptl_absorpt_process_details    ?
_exptl_absorpt_special_details    ?
_diffrn_ambient_temperature       140(2)
_diffrn_radiation_wavelength      0.71073
_diffrn_radiation_type            MoK\a
_diffrn_source                    ?
_diffrn_measurement_device_type   ?
_diffrn_measurement_method        ?
_diffrn_detector_area_resol_mean  ?
_diffrn_reflns_number             10576
_diffrn_reflns_av_unetI/netI      0.0389
_diffrn_reflns_av_R_equivalents   0.0232
_diffrn_reflns_limit_h_min        -7
_diffrn_reflns_limit_h_max        6
_diffrn_reflns_limit_k_min        -16
_diffrn_reflns_limit_k_max        24
_diffrn_reflns_limit_l_min        -16
_diffrn_reflns_limit_l_max        26
_diffrn_reflns_theta_min          2.074
_diffrn_reflns_theta_max          29.043
_diffrn_reflns_theta_full         25.242
_diffrn_measured_fraction_theta_max   0.832
_diffrn_measured_fraction_theta_full  1.000
_diffrn_reflns_Laue_measured_fraction_max    0.832
_diffrn_reflns_Laue_measured_fraction_full   1.000
_diffrn_reflns_point_group_measured_fraction_max   0.832
_diffrn_reflns_point_group_measured_fraction_full  1.000
_reflns_number_total              4864
_reflns_number_gt                 3938
_reflns_threshold_expression      'I > 2\s(I)'
_reflns_Friedel_coverage          0.000
_reflns_Friedel_fraction_max      .
_reflns_Friedel_fraction_full     .
 
_reflns_special_details
;
 Reflections were merged by SHELXL according to the crystal
 class for the calculation of statistics and refinement.
 
 _reflns_Friedel_fraction is defined as the number of unique
 Friedel pairs measured divided by the number that would be
 possible theoretically, ignoring centric projections and
 systematic absences.
;
 
_computing_data_collection        ?
_computing_cell_refinement        ?
_computing_data_reduction         ?
_computing_structure_solution     'SHELXT 2018/2 (Sheldrick, 2018)'
_computing_structure_refinement 'SHELXL-2018/3 (Sheldrick, 2018)'
_computing_molecular_graphics     ?
_computing_publication_material   ?
_refine_special_details           ?
_refine_ls_structure_factor_coef  Fsqd
_refine_ls_matrix_type            full
_refine_ls_weighting_scheme       calc
_refine_ls_weighting_details
'w=1/[\s^2^(Fo^2^)+(0.0387P)^2^+0.0517P] where P=(Fo^2^+2Fc^2^)/3'
_atom_sites_solution_primary      ?
_atom_sites_solution_secondary    ?
_atom_sites_solution_hydrogens    geom
_refine_ls_hydrogen_treatment     constr
_refine_ls_extinction_method      none
_refine_ls_extinction_coef        .
_refine_ls_number_reflns          4864
_refine_ls_number_parameters      327
_refine_ls_number_restraints      0
_refine_ls_R_factor_all           0.0447
_refine_ls_R_factor_gt            0.0305
_refine_ls_wR_factor_ref          0.0809
_refine_ls_wR_factor_gt           0.0772
_refine_ls_goodness_of_fit_ref    1.110
_refine_ls_restrained_S_all       1.110
_refine_ls_shift/su_max           0.001
_refine_ls_shift/su_mean          0.000
 
loop_
 _atom_site_label
 _atom_site_type_symbol
 _atom_site_fract_x
 _atom_site_fract_y
 _atom_site_fract_z
 _atom_site_U_iso_or_equiv
 _atom_site_adp_type
 _atom_site_occupancy
 _atom_site_site_symmetry_order  
 _atom_site_calc_flag
 _atom_site_refinement_flags_posn
 _atom_site_refinement_flags_adp
 _atom_site_refinement_flags_occupancy
 _atom_site_disorder_assembly
 _atom_site_disorder_group
S1_1 S 1.23179(8) 0.25011(3) 0.36391(3) 0.01524(13) Uani 1 1 d . . . . .
O1_1 O 1.3722(2) 0.27530(9) 0.17902(7) 0.0197(4) Uani 1 1 d . . . . .
N1_1 N -0.0561(3) 0.55605(11) 0.36180(10) 0.0236(5) Uani 1 1 d . . . . .
C1_1 C 0.1139(4) 0.53849(15) 0.27244(13) 0.0294(6) Uani 1 1 d . . . . .
H1_1 H 0.218069 0.520974 0.244843 0.035 Uiso 1 1 calc R U . . .
Zn2_1 Zn 1.17996(4) 0.20021(2) 0.59589(2) 0.01532(9) Uani 1 1 d . . . . .
O2_1 O 1.0680(3) 0.30103(9) 0.22524(8) 0.0227(4) Uani 1 1 d . . . . .
N2_1 N -0.0506(4) 0.58297(13) 0.25080(11) 0.0347(5) Uani 1 1 d . . . . .
C2_1 C 0.2572(3) 0.47504(13) 0.38199(12) 0.0187(5) Uani 1 1 d . . . . .
S3_1 S 0.73576(9) 0.39607(3) 0.30443(3) 0.02154(14) Uani 1 1 d . . . . .
O3_1 O 1.0772(2) 0.09701(8) 0.59611(8) 0.0195(3) Uani 1 1 d . . . . .
N3_1 N 0.5145(3) 0.44472(10) 0.29980(9) 0.0194(4) Uani 1 1 d . . . . .
C3_1 C 0.4477(3) 0.44184(12) 0.36159(11) 0.0163(5) Uani 1 1 d . . . . .
O4_1 O 1.5579(3) 0.14806(10) 0.51863(8) 0.0276(4) Uani 1 1 d . . . . .
N4_1 N 0.7621(3) 0.36975(10) 0.38255(9) 0.0187(4) Uani 1 1 d . . . . .
C4_1 C 0.5897(3) 0.39807(12) 0.40947(11) 0.0157(5) Uani 1 1 d . . . . .
N5_1 N 0.6728(3) 0.34387(10) 0.52524(9) 0.0155(4) Uani 1 1 d . . . . .
C5_1 C 0.5372(3) 0.38723(12) 0.47637(11) 0.0161(5) Uani 1 1 d . . . . .
O6_1 O 1.2562(3) 0.21844(9) 0.50617(8) 0.0221(4) Uani 1 1 d . . . . .
N6_1 N 0.9165(3) 0.27016(10) 0.57849(9) 0.0169(4) Uani 1 1 d . . . . .
C6_1 C 0.3486(3) 0.41785(13) 0.49310(12) 0.0202(5) Uani 1 1 d . . . . .
H6_1 H 0.308701 0.409665 0.537129 0.024 Uiso 1 1 calc R U . . .
N7_1 N 0.6123(3) 0.33539(12) 0.58919(9) 0.0212(4) Uani 1 1 d . . . . .
C7_1 C 0.2117(4) 0.46154(14) 0.44600(12) 0.0221(5) Uani 1 1 d . . . . .
H7_1 H 0.082365 0.482396 0.459633 0.026 Uiso 1 1 calc R U . . .
N8_1 N 0.8047(3) 0.01578(11) 0.60528(10) 0.0201(4) Uani 1 1 d . . . . .
C8_1 C 0.8539(4) 0.30448(12) 0.52021(12) 0.0178(5) Uani 1 1 d . . . . .
H8_1 H 0.926578 0.301549 0.480914 0.021 Uiso 1 1 calc R U . . .
C9_1 C 0.7626(4) 0.29069(13) 0.61842(12) 0.0198(5) Uani 1 1 d . . . . .
H9_1 H 0.764759 0.273792 0.663840 0.024 Uiso 1 1 calc R U . . .
N10_1 N 0.1163(3) 0.52109(11) 0.33784(10) 0.0206(4) Uani 1 1 d . . . . .
C10_1 C 1.4239(4) 0.18806(12) 0.48508(11) 0.0168(5) Uani 1 1 d . . . . .
C11_1 C 1.4438(3) 0.20542(12) 0.41301(11) 0.0155(5) Uani 1 1 d . . . . .
C12_1 C 1.3694(3) 0.24744(12) 0.29424(11) 0.0152(5) Uani 1 1 d . . . . .
C13_1 C 1.2591(4) 0.27777(12) 0.22919(11) 0.0171(5) Uani 1 1 d . . . . .
C14_1 C 1.6125(4) 0.18954(13) 0.37671(11) 0.0185(5) Uani 1 1 d . . . . .
H14_1 H 1.743801 0.164866 0.395370 0.022 Uiso 1 1 calc R U . . .
C15_1 C 1.5706(4) 0.21368(13) 0.30875(11) 0.0195(5) Uani 1 1 d . . . . .
H15_1 H 1.670586 0.207301 0.276543 0.023 Uiso 1 1 calc R U . . .
C16_1 C 0.8908(4) 0.08160(13) 0.61173(11) 0.0183(5) Uani 1 1 d . . . . .
H16_1 H 0.808008 0.119629 0.629106 0.022 Uiso 1 1 calc R U . . .
C17_1 C 0.9178(4) -0.04563(14) 0.57910(14) 0.0304(6) Uani 1 1 d . . . . .
H17A_1 H 0.843769 -0.058711 0.533693 0.046 Uiso 1 1 calc R U . . .
H17B_1 H 0.915080 -0.087815 0.609695 0.046 Uiso 1 1 calc R U . . .
H17C_1 H 1.071131 -0.031940 0.576195 0.046 Uiso 1 1 calc R U . . .
C18_1 C -0.1475(4) 0.59184(14) 0.30781(13) 0.0266(6) Uani 1 1 d . . . . .
H18_1 H -0.273624 0.622101 0.308568 0.032 Uiso 1 1 calc R U . . .
C20_1 C 0.5804(4) 0.00202(15) 0.61985(14) 0.0307(6) Uani 1 1 d . . . . .
H20A_1 H 0.490221 -0.016882 0.578865 0.046 Uiso 1 1 calc R U . . .
H20B_1 H 0.516291 0.047948 0.633911 0.046 Uiso 1 1 calc R U . . .
H20C_1 H 0.584470 -0.034223 0.656557 0.046 Uiso 1 1 calc R U . . .
 
loop_
 _atom_site_aniso_label
 _atom_site_aniso_U_11
 _atom_site_aniso_U_22
 _atom_site_aniso_U_33
 _atom_site_aniso_U_23
 _atom_site_aniso_U_13
 _atom_site_aniso_U_12
S1_1 0.0162(3) 0.0189(3) 0.0110(3) 0.0005(2) 0.0030(2) 0.0006(2)
O1_1 0.0212(8) 0.0285(9) 0.0094(8) 0.0007(7) 0.0025(6) 0.0041(7)
N1_1 0.0217(10) 0.0209(11) 0.0272(12) -0.0003(9) -0.0005(8) 0.0048(9)
C1_1 0.0304(14) 0.0320(15) 0.0256(14) 0.0057(12) 0.0034(11) 0.0071(12)
Zn2_1 0.01877(14) 0.01697(15) 0.01018(14) 0.00053(10) 0.00183(10) -0.00194(11)
O2_1 0.0199(8) 0.0322(10) 0.0161(9) 0.0018(7) 0.0026(6) 0.0081(8)
N2_1 0.0349(12) 0.0381(14) 0.0297(13) 0.0071(11) -0.0010(10) 0.0106(11)
C2_1 0.0159(11) 0.0181(12) 0.0207(12) -0.0008(10) -0.0019(9) -0.0013(10)
S3_1 0.0243(3) 0.0234(3) 0.0180(3) 0.0019(2) 0.0069(2) 0.0017(3)
O3_1 0.0192(8) 0.0179(8) 0.0216(9) 0.0005(7) 0.0035(6) -0.0028(7)
N3_1 0.0217(10) 0.0180(10) 0.0186(10) 0.0009(8) 0.0032(8) -0.0019(8)
C3_1 0.0184(11) 0.0135(11) 0.0167(12) -0.0012(9) 0.0007(9) -0.0039(10)
O4_1 0.0268(9) 0.0356(10) 0.0191(9) 0.0107(8) -0.0013(7) 0.0029(8)
N4_1 0.0209(10) 0.0177(10) 0.0179(10) -0.0003(8) 0.0037(8) -0.0017(8)
C4_1 0.0151(10) 0.0135(11) 0.0181(12) -0.0016(9) 0.0014(8) -0.0045(9)
N5_1 0.0144(9) 0.0191(10) 0.0134(10) -0.0004(8) 0.0028(7) -0.0020(8)
C5_1 0.0155(10) 0.0154(11) 0.0167(12) -0.0008(9) -0.0004(8) -0.0028(9)
O6_1 0.0279(9) 0.0264(9) 0.0129(8) 0.0015(7) 0.0056(7) 0.0026(8)
N6_1 0.0201(9) 0.0178(10) 0.0127(10) 0.0011(8) 0.0028(7) -0.0035(8)
C6_1 0.0186(11) 0.0263(13) 0.0158(12) -0.0001(10) 0.0032(9) -0.0014(11)
N7_1 0.0206(9) 0.0292(12) 0.0146(10) 0.0023(9) 0.0049(8) -0.0005(9)
C7_1 0.0180(11) 0.0272(13) 0.0215(13) -0.0025(11) 0.0044(9) 0.0034(11)
N8_1 0.0168(9) 0.0186(10) 0.0245(11) 0.0021(9) 0.0013(8) -0.0025(8)
C8_1 0.0202(11) 0.0160(12) 0.0173(12) 0.0004(9) 0.0034(9) -0.0025(10)
C9_1 0.0207(11) 0.0241(13) 0.0147(12) -0.0002(10) 0.0029(9) -0.0012(10)
N10_1 0.0196(10) 0.0192(10) 0.0226(11) -0.0006(9) 0.0010(8) 0.0012(9)
C10_1 0.0194(11) 0.0166(11) 0.0139(11) -0.0005(9) 0.0000(9) -0.0075(10)
C11_1 0.0174(11) 0.0157(11) 0.0128(11) 0.0006(9) -0.0007(8) -0.0035(10)
C12_1 0.0183(11) 0.0160(11) 0.0118(11) -0.0018(9) 0.0034(8) -0.0016(10)
C13_1 0.0226(12) 0.0160(11) 0.0127(11) -0.0019(9) 0.0026(9) -0.0017(10)
C14_1 0.0163(11) 0.0213(12) 0.0177(12) 0.0025(9) 0.0021(9) 0.0021(10)
C15_1 0.0203(11) 0.0235(13) 0.0156(12) 0.0013(10) 0.0062(9) 0.0014(10)
C16_1 0.0211(11) 0.0172(12) 0.0156(12) 0.0024(10) -0.0012(9) 0.0020(10)
C17_1 0.0353(14) 0.0197(13) 0.0384(16) -0.0041(12) 0.0123(12) -0.0051(12)
C18_1 0.0262(13) 0.0206(13) 0.0315(15) -0.0012(11) -0.0015(11) 0.0019(11)
C20_1 0.0208(12) 0.0308(15) 0.0409(17) 0.0061(13) 0.0051(11) -0.0022(12)
 
_geom_special_details
;
 All esds (except the esd in the dihedral angle between two l.s. planes)
 are estimated using the full covariance matrix.  The cell esds are taken
 into account individually in the estimation of esds in distances, angles
 and torsion angles; correlations between esds in cell parameters are only
 used when they are defined by crystal symmetry.  An approximate (isotropic)
 treatment of cell esds is used for estimating esds involving l.s. planes.
;
 
loop_
 _geom_bond_atom_site_label_1
 _geom_bond_atom_site_label_2
 _geom_bond_distance
 _geom_bond_site_symmetry_2
 _geom_bond_publ_flag
S1_1 C12_1 1.714(2) . ?
S1_1 C11_1 1.716(2) . ?
O1_1 C13_1 1.288(3) . ?
O1_1 Zn2_1 1.9408(15) 4_565 ?
N1_1 C18_1 1.311(3) . ?
N1_1 N10_1 1.372(3) . ?
C1_1 N2_1 1.317(3) . ?
C1_1 N10_1 1.333(3) . ?
C1_1 H1_1 0.9500 . ?
Zn2_1 O6_1 1.9287(15) . ?
Zn2_1 O3_1 1.9809(16) . ?
Zn2_1 N6_1 2.0460(19) . ?
O2_1 C13_1 1.236(3) . ?
N2_1 C18_1 1.356(3) . ?
C2_1 C7_1 1.358(3) . ?
C2_1 N10_1 1.416(3) . ?
C2_1 C3_1 1.420(3) . ?
S3_1 N4_1 1.6081(19) . ?
S3_1 N3_1 1.610(2) . ?
O3_1 C16_1 1.254(3) . ?
N3_1 C3_1 1.345(3) . ?
C3_1 C4_1 1.437(3) . ?
O4_1 C10_1 1.223(3) . ?
N4_1 C4_1 1.348(3) . ?
C4_1 C5_1 1.421(3) . ?
N5_1 C8_1 1.335(3) . ?
N5_1 N7_1 1.377(2) . ?
N5_1 C5_1 1.424(3) . ?
C5_1 C6_1 1.363(3) . ?
O6_1 C10_1 1.285(3) . ?
N6_1 C8_1 1.323(3) . ?
N6_1 C9_1 1.363(3) . ?
C6_1 C7_1 1.411(3) . ?
C6_1 H6_1 0.9500 . ?
N7_1 C9_1 1.303(3) . ?
C7_1 H7_1 0.9500 . ?
N8_1 C16_1 1.308(3) . ?
N8_1 C17_1 1.448(3) . ?
N8_1 C20_1 1.462(3) . ?
C8_1 H8_1 0.9500 . ?
C9_1 H9_1 0.9500 . ?
C10_1 C11_1 1.485(3) . ?
C11_1 C14_1 1.368(3) . ?
C12_1 C15_1 1.371(3) . ?
C12_1 C13_1 1.478(3) . ?
C14_1 C15_1 1.407(3) . ?
C14_1 H14_1 0.9500 . ?
C15_1 H15_1 0.9500 . ?
C16_1 H16_1 0.9500 . ?
C17_1 H17A_1 0.9800 . ?
C17_1 H17B_1 0.9800 . ?
C17_1 H17C_1 0.9800 . ?
C18_1 H18_1 0.9500 . ?
C20_1 H20A_1 0.9800 . ?
C20_1 H20B_1 0.9800 . ?
C20_1 H20C_1 0.9800 . ?
 
loop_
 _geom_angle_atom_site_label_1
 _geom_angle_atom_site_label_2
 _geom_angle_atom_site_label_3
 _geom_angle
 _geom_angle_site_symmetry_1
 _geom_angle_site_symmetry_3
 _geom_angle_publ_flag
C12_1 S1_1 C11_1 91.54(11) . . ?
C13_1 O1_1 Zn2_1 108.70(14) . 4_565 ?
C18_1 N1_1 N10_1 102.1(2) . . ?
N2_1 C1_1 N10_1 111.6(2) . . ?
N2_1 C1_1 H1_1 124.2 . . ?
N10_1 C1_1 H1_1 124.2 . . ?
O6_1 Zn2_1 O1_1 123.28(7) . 4_566 ?
O6_1 Zn2_1 O3_1 106.39(7) . . ?
O1_1 Zn2_1 O3_1 111.81(7) 4_566 . ?
O6_1 Zn2_1 N6_1 91.26(7) . . ?
O1_1 Zn2_1 N6_1 111.83(7) 4_566 . ?
O3_1 Zn2_1 N6_1 110.34(7) . . ?
C1_1 N2_1 C18_1 101.8(2) . . ?
C7_1 C2_1 N10_1 120.0(2) . . ?
C7_1 C2_1 C3_1 118.0(2) . . ?
N10_1 C2_1 C3_1 122.0(2) . . ?
N4_1 S3_1 N3_1 101.02(10) . . ?
C16_1 O3_1 Zn2_1 120.82(15) . . ?
C3_1 N3_1 S3_1 106.56(15) . . ?
N3_1 C3_1 C2_1 127.4(2) . . ?
N3_1 C3_1 C4_1 113.05(19) . . ?
C2_1 C3_1 C4_1 119.6(2) . . ?
C4_1 N4_1 S3_1 106.68(15) . . ?
N4_1 C4_1 C5_1 127.3(2) . . ?
N4_1 C4_1 C3_1 112.68(19) . . ?
C5_1 C4_1 C3_1 120.00(19) . . ?
C8_1 N5_1 N7_1 109.83(18) . . ?
C8_1 N5_1 C5_1 131.19(19) . . ?
N7_1 N5_1 C5_1 118.90(17) . . ?
C6_1 C5_1 C4_1 118.5(2) . . ?
C6_1 C5_1 N5_1 119.6(2) . . ?
C4_1 C5_1 N5_1 121.79(19) . . ?
C10_1 O6_1 Zn2_1 122.07(15) . . ?
C8_1 N6_1 C9_1 103.74(19) . . ?
C8_1 N6_1 Zn2_1 124.61(15) . . ?
C9_1 N6_1 Zn2_1 131.60(15) . . ?
C5_1 C6_1 C7_1 121.0(2) . . ?
C5_1 C6_1 H6_1 119.5 . . ?
C7_1 C6_1 H6_1 119.5 . . ?
C9_1 N7_1 N5_1 102.52(18) . . ?
C2_1 C7_1 C6_1 122.8(2) . . ?
C2_1 C7_1 H7_1 118.6 . . ?
C6_1 C7_1 H7_1 118.6 . . ?
C16_1 N8_1 C17_1 122.41(19) . . ?
C16_1 N8_1 C20_1 120.9(2) . . ?
C17_1 N8_1 C20_1 116.51(19) . . ?
N6_1 C8_1 N5_1 109.4(2) . . ?
N6_1 C8_1 H8_1 125.3 . . ?
N5_1 C8_1 H8_1 125.3 . . ?
N7_1 C9_1 N6_1 114.5(2) . . ?
N7_1 C9_1 H9_1 122.7 . . ?
N6_1 C9_1 H9_1 122.7 . . ?
C1_1 N10_1 N1_1 108.69(19) . . ?
C1_1 N10_1 C2_1 131.8(2) . . ?
N1_1 N10_1 C2_1 119.50(19) . . ?
O4_1 C10_1 O6_1 125.8(2) . . ?
O4_1 C10_1 C11_1 120.9(2) . . ?
O6_1 C10_1 C11_1 113.33(19) . . ?
C14_1 C11_1 C10_1 129.0(2) . . ?
C14_1 C11_1 S1_1 111.59(17) . . ?
C10_1 C11_1 S1_1 119.43(16) . . ?
C15_1 C12_1 C13_1 129.8(2) . . ?
C15_1 C12_1 S1_1 111.71(16) . . ?
C13_1 C12_1 S1_1 118.46(16) . . ?
O2_1 C13_1 O1_1 124.5(2) . . ?
O2_1 C13_1 C12_1 119.86(19) . . ?
O1_1 C13_1 C12_1 115.56(19) . . ?
C11_1 C14_1 C15_1 112.7(2) . . ?
C11_1 C14_1 H14_1 123.6 . . ?
C15_1 C14_1 H14_1 123.6 . . ?
C12_1 C15_1 C14_1 112.4(2) . . ?
C12_1 C15_1 H15_1 123.8 . . ?
C14_1 C15_1 H15_1 123.8 . . ?
O3_1 C16_1 N8_1 123.3(2) . . ?
O3_1 C16_1 H16_1 118.4 . . ?
N8_1 C16_1 H16_1 118.4 . . ?
N8_1 C17_1 H17A_1 109.5 . . ?
N8_1 C17_1 H17B_1 109.5 . . ?
H17A_1 C17_1 H17B_1 109.5 . . ?
N8_1 C17_1 H17C_1 109.5 . . ?
H17A_1 C17_1 H17C_1 109.5 . . ?
H17B_1 C17_1 H17C_1 109.5 . . ?
N1_1 C18_1 N2_1 115.8(2) . . ?
N1_1 C18_1 H18_1 122.1 . . ?
N2_1 C18_1 H18_1 122.1 . . ?
N8_1 C20_1 H20A_1 109.5 . . ?
N8_1 C20_1 H20B_1 109.5 . . ?
H20A_1 C20_1 H20B_1 109.5 . . ?
N8_1 C20_1 H20C_1 109.5 . . ?
H20A_1 C20_1 H20C_1 109.5 . . ?
H20B_1 C20_1 H20C_1 109.5 . . ?
 
_refine_diff_density_max    0.362
_refine_diff_density_min   -0.291
_refine_diff_density_rms    0.069

_shelx_res_file
;
TITL pvl426_a.res in P2(1)/c
    pvl426_a.res
    created by SHELXL-2018/3 at 15:33:11 on 21-Jun-2023
REM Old TITL pvl426 in P2(1)/c
REM SHELXT solution in P2(1)/c: R1 0.084, Rweak 0.005, Alpha 0.033
REM <I/s>   0.503 for  153 systematic absences,  Orientation as input
REM Formula found by SHELXT:  C24 N5 O4 S2 Zn
CELL  0.71073   6.1186  18.2011  19.8262   90.000   97.886   90.000
ZERR    4.000   0.0003   0.0009   0.0011    0.000    0.005    0.000
LATT  1
SYMM -X, 1/2+Y, 1/2-Z
SFAC C H N O S ZN
UNIT 76 60 36 20 8 4
ACTA
L.S. 6
TEMP -133
BOND $H
LIST 4
FMAP 2
PLAN 20
OMIT 0
WGHT    0.038700    0.051700
FVAR       0.29877
RESI 1 M001
S1    5    1.231791    0.250109    0.363908    11.00000    0.01615    0.01892 =
         0.01098    0.00054    0.00300    0.00064
O1    4    1.372191    0.275299    0.179024    11.00000    0.02123    0.02852 =
         0.00944    0.00071    0.00250    0.00414
N1    3   -0.056148    0.556053    0.361805    11.00000    0.02169    0.02087 =
         0.02723   -0.00030   -0.00051    0.00483
C1    1    0.113947    0.538493    0.272438    11.00000    0.03040    0.03198 =
         0.02559    0.00573    0.00338    0.00714
AFIX  43
H1    2    0.218069    0.520974    0.244843    11.00000   -1.20000
AFIX   0
ZN2   6    1.179962    0.200205    0.595892    11.00000    0.01877    0.01697 =
         0.01018    0.00053    0.00183   -0.00194
O2    4    1.067997    0.301032    0.225241    11.00000    0.01988    0.03221 =
         0.01614    0.00177    0.00263    0.00813
N2    3   -0.050585    0.582970    0.250797    11.00000    0.03489    0.03808 =
         0.02967    0.00712   -0.00102    0.01056
C2    1    0.257151    0.475039    0.381990    11.00000    0.01595    0.01809 =
         0.02073   -0.00080   -0.00190   -0.00132
S3    5    0.735757    0.396066    0.304427    11.00000    0.02427    0.02342 =
         0.01803    0.00189    0.00687    0.00168
O3    4    1.077216    0.097008    0.596110    11.00000    0.01924    0.01787 =
         0.02159    0.00053    0.00346   -0.00276
N3    3    0.514509    0.444716    0.299799    11.00000    0.02168    0.01799 =
         0.01856    0.00094    0.00325   -0.00192
C3    1    0.447710    0.441840    0.361591    11.00000    0.01836    0.01346 =
         0.01669   -0.00121    0.00068   -0.00389
O4    4    1.557906    0.148062    0.518632    11.00000    0.02675    0.03564 =
         0.01908    0.01073   -0.00127    0.00291
N4    3    0.762084    0.369751    0.382552    11.00000    0.02086    0.01767 =
         0.01788   -0.00027    0.00373   -0.00171
C4    1    0.589731    0.398072    0.409467    11.00000    0.01515    0.01350 =
         0.01812   -0.00160    0.00141   -0.00449
N5    3    0.672770    0.343868    0.525244    11.00000    0.01436    0.01911 =
         0.01341   -0.00044    0.00275   -0.00200
C5    1    0.537217    0.387228    0.476374    11.00000    0.01548    0.01543 =
         0.01670   -0.00081   -0.00042   -0.00277
O6    4    1.256186    0.218444    0.506165    11.00000    0.02792    0.02635 =
         0.01290    0.00152    0.00557    0.00258
N6    3    0.916514    0.270161    0.578493    11.00000    0.02015    0.01784 =
         0.01273    0.00111    0.00275   -0.00348
C6    1    0.348620    0.417853    0.493097    11.00000    0.01860    0.02627 =
         0.01584   -0.00013    0.00322   -0.00138
AFIX  43
H6    2    0.308701    0.409665    0.537129    11.00000   -1.20000
AFIX   0
N7    3    0.612258    0.335386    0.589190    11.00000    0.02062    0.02923 =
         0.01455    0.00226    0.00489   -0.00054
C7    1    0.211740    0.461543    0.445997    11.00000    0.01799    0.02718 =
         0.02152   -0.00245    0.00441    0.00338
AFIX  43
H7    2    0.082365    0.482396    0.459633    11.00000   -1.20000
AFIX   0
N8    3    0.804658    0.015785    0.605283    11.00000    0.01682    0.01860 =
         0.02447    0.00215    0.00125   -0.00246
C8    1    0.853941    0.304477    0.520214    11.00000    0.02016    0.01603 =
         0.01730    0.00041    0.00336   -0.00249
AFIX  43
H8    2    0.926578    0.301549    0.480914    11.00000   -1.20000
AFIX   0
C9    1    0.762598    0.290690    0.618418    11.00000    0.02065    0.02412 =
         0.01472   -0.00015    0.00286   -0.00118
AFIX  43
H9    2    0.764759    0.273792    0.663840    11.00000   -1.20000
AFIX   0
N10   3    0.116340    0.521093    0.337842    11.00000    0.01961    0.01922 =
         0.02259   -0.00061    0.00103    0.00120
C10   1    1.423930    0.188061    0.485080    11.00000    0.01935    0.01658 =
         0.01391   -0.00046   -0.00004   -0.00746
C11   1    1.443814    0.205421    0.413009    11.00000    0.01735    0.01572 =
         0.01279    0.00061   -0.00071   -0.00348
C12   1    1.369436    0.247441    0.294242    11.00000    0.01831    0.01602 =
         0.01180   -0.00180    0.00342   -0.00158
C13   1    1.259131    0.277771    0.229189    11.00000    0.02259    0.01604 =
         0.01269   -0.00186    0.00265   -0.00168
C14   1    1.612498    0.189541    0.376706    11.00000    0.01626    0.02130 =
         0.01774    0.00247    0.00214    0.00213
AFIX  43
H14   2    1.743801    0.164866    0.395370    11.00000   -1.20000
AFIX   0
C15   1    1.570635    0.213681    0.308754    11.00000    0.02031    0.02354 =
         0.01556    0.00133    0.00616    0.00139
AFIX  43
H15   2    1.670586    0.207301    0.276543    11.00000   -1.20000
AFIX   0
C16   1    0.890807    0.081597    0.611725    11.00000    0.02110    0.01719 =
         0.01564    0.00240   -0.00122    0.00199
AFIX  43
H16   2    0.808008    0.119629    0.629106    11.00000   -1.20000
AFIX   0
C17   1    0.917803   -0.045634    0.579101    11.00000    0.03529    0.01965 =
         0.03842   -0.00411    0.01234   -0.00512
AFIX 137
H17A  2    0.843769   -0.058711    0.533693    11.00000   -1.50000
H17B  2    0.915080   -0.087815    0.609695    11.00000   -1.50000
H17C  2    1.071131   -0.031940    0.576195    11.00000   -1.50000
AFIX   0
C18   1   -0.147472    0.591843    0.307808    11.00000    0.02619    0.02062 =
         0.03146   -0.00116   -0.00148    0.00186
AFIX  43
H18   2   -0.273624    0.622101    0.308568    11.00000   -1.20000
AFIX   0
C20   1    0.580431    0.002023    0.619855    11.00000    0.02079    0.03082 =
         0.04087    0.00608    0.00509   -0.00217
AFIX 137
H20A  2    0.490221   -0.016882    0.578865    11.00000   -1.50000
H20B  2    0.516291    0.047948    0.633911    11.00000   -1.50000
H20C  2    0.584470   -0.034223    0.656557    11.00000   -1.50000
RESI 0
AFIX   0
HKLF 4




REM  pvl426_a.res in P2(1)/c
REM wR2 = 0.0809, GooF = S = 1.110, Restrained GooF = 1.110 for all data
REM R1 = 0.0305 for 3938 Fo > 4sig(Fo) and 0.0447 for all 4864 data
REM 327 parameters refined using 0 restraints

END

WGHT      0.0391      0.0000

REM Highest difference peak  0.362,  deepest hole -0.291,  1-sigma level  0.069
Q1    1   1.2966  0.2509  0.3223  11.00000  0.05    0.36
Q2    1   1.2878  0.2591  0.2682  11.00000  0.05    0.30
Q3    1   0.4737  0.4359  0.3280  11.00000  0.05    0.30
Q4    1   0.4328  0.3957  0.4814  11.00000  0.05    0.30
Q5    1   1.4342  0.2205  0.2945  11.00000  0.05    0.29
Q6    1   0.3543  0.4577  0.3729  11.00000  0.05    0.28
Q7    1   0.5051  0.4257  0.3869  11.00000  0.05    0.28
Q8    1   1.3539  0.2805  0.2090  11.00000  0.05    0.28
Q9    1   1.5776  0.1853  0.3361  11.00000  0.05    0.28
Q10   1   1.3657  0.2206  0.3967  11.00000  0.05    0.28
Q11   1   0.4713  0.4134  0.4889  11.00000  0.05    0.27
Q12   1   0.1288  0.5222  0.3028  11.00000  0.05    0.27
Q13   1   0.1807  0.4995  0.3574  11.00000  0.05    0.27
Q14   1   0.0110  0.5492  0.2574  11.00000  0.05    0.26
Q15   1   0.6378  0.4352  0.3091  11.00000  0.05    0.26
Q16   1   0.6095  0.4200  0.3029  11.00000  0.05    0.26
Q17   1   0.7023  0.0101  0.6161  11.00000  0.05    0.25
Q18   1  -0.0694  0.5940  0.2832  11.00000  0.05    0.25
Q19   1  -0.1153  0.5816  0.2743  11.00000  0.05    0.24
Q20   1   1.4316  0.1984  0.4488  11.00000  0.05    0.24
;
_shelx_res_checksum   22614

_shelx_hkl_file
;
   0   0  -2   30.07    1.47
   0   0   3   -1.29    1.38
   0   0  -3    2.68    1.23
   0   0   4 2235.79   15.50
   0   0  -4 2228.10   15.23
   0   0   5    5.88    2.27
   0   0   6  465.16    9.00
   0   0   7    1.51    2.48
   0   0   8 1230.37   16.40
   0   0  -8 1227.71   16.33
   0   0  -9    0.58    1.90
   0   0   9   -0.98    2.44
   0   0  10 4358.25   33.82
   0   0 -10 4317.09   34.19
   0   0 -11   -0.27    2.03
   0   0  11   -0.58    2.56
   0   0 -12   29.89    3.48
   0   0  12   24.64    3.47
   0   0 -13    4.16    2.09
   0   0  13    1.25    2.36
   0   0  14   77.25    6.16
   0   0 -14   85.19    6.00
   0   0  15   -3.98    3.35
   0   0  16   63.77    5.79
   0   0  17  -10.25    3.47
   0   0  18  385.04   14.59
   0   0  19    0.04    3.06
   0   0  20   94.20    8.12
   0   0  21   -1.02    3.03
   0   0  22  191.85   11.85
   0   0  23    3.13    3.77
   0   0  24   57.68    7.46
   0  -1   2  353.97    4.34
   0   1  -2  353.67    4.34
   0  -1  -2  364.00    4.43
   0   1   2  352.28    4.50
   0   1  -3  406.04    5.64
   0  -1   3  419.66    5.78
   0  -1  -3  404.31    5.77
   0   1   3  394.22    5.85
   0  -1   4 1398.77   12.05
   0   1  -4 1376.44   11.89
   0  -1  -4 1368.87   12.08
   0   1   4 1361.55   12.34
   0  -1   5 2329.72   17.13
   0   1   5 2253.93   17.76
   0   1  -5 2275.56   17.00
   0  -1  -5 2214.74   17.13
   0  -1  -6   21.49    2.52
   0  -1   6   16.89    2.61
   0   1  -6   20.05    2.40
   0   1   6   26.69    3.39
   0  -1  -7   25.60    2.68
   0   1   7   24.52    3.51
   0   1  -7   27.28    2.87
   0  -1   7   23.45    3.08
   0   1  -8  843.75   13.31
   0   1   8  842.05   13.76
   0  -1   8  856.85   13.39
   0  -1  -8  832.23   13.35
   0  -1   9  198.80    7.15
   0   1   9  200.05    7.57
   0  -1  -9  206.97    7.26
   0   1  10   91.09    5.56
   0  -1  10   78.97    4.96
   0  -1 -10   89.14    5.21
   0  -1  11  174.25    7.36
   0   1  11  187.36    7.93
   0  -1 -11  185.11    7.64
   0  -1  11  166.46    2.59
   0  -1  12  442.68   12.25
   0   1  12  426.65   12.37
   0   1 -12  475.19   12.66
   0  -1 -12  481.78   12.61
   0   1 -13   46.80    4.56
   0  -1 -13   53.62    4.74
   0   1  13   46.39    4.84
   0  -1  13   41.94    4.54
   0  -1  14 1892.73   27.12
   0   1  14 1896.43   27.26
   0  -1 -14 1975.07   27.48
   0   1 -14 1924.21   27.56
   0  -1  15  289.87   11.30
   0   1  15  269.82   11.17
   0   1  16  359.33   13.40
   0  -1  16  381.61   13.28
   0  -1  17    8.71    3.64
   0   1  17    0.87    3.34
   0  -1  18  108.36    7.96
   0   1  18  103.40    7.93
   0   1  19   19.97    4.49
   0  -1  19   27.85    4.80
   0   1  20    4.03    3.31
   0  -1  20    8.10    3.84
   0  -1  21   -0.32    2.97
   0   1  21   11.00    4.19
   0   1  22   21.79    4.94
   0  -1  22   16.47    4.50
   0   1  23   32.30    6.03
   0  -1  23   31.18    5.70
   0   1  24   92.40    9.07
   0  -1  24   95.46    9.20
   0   2   0 1875.43    8.95
   0  -2  -1  740.86    6.03
   0  -2   2  312.12    4.30
   0   2  -2  289.74    4.24
   0  -2  -2  286.35    4.40
   0   2   2  288.72    4.49
   0   2  -3  486.88    6.37
   0  -2   3  522.84    6.50
   0   2   3  497.50    6.73
   0  -2  -3  485.39    6.51
   0  -2  -4    5.76    1.70
   0   2   4    3.79    1.90
   0   2  -4    1.65    1.51
   0  -2   4    3.27    1.80
   0  -2  -5   12.29    2.02
   0   2   5    9.69    2.36
   0  -2   5   12.79    2.32
   0   2  -5   11.34    1.82
   0   2   6   20.15    2.81
   0  -2  -6   25.57    2.64
   0   2  -6   25.69    2.58
   0  -2   6   28.34    3.08
   0  -2   7  116.36    5.07
   0   2  -7  114.06    4.96
   0  -2  -7  113.61    4.89
   0   2  -8   80.10    4.40
   0   2   8   86.07    5.03
   0  -2   8   77.02    4.62
   0  -2  -8   79.64    4.44
   0   2  -9  463.71   10.72
   0  -2   9  473.81   10.76
   0   2   9  462.76   11.07
   0  -2  -9  456.74   10.58
   0   2  10  733.10   14.55
   0   2 -10  730.19   13.99
   0  -2  10  718.36   13.85
   0  -2 -10  706.98   13.82
   0   2 -11  673.81   14.19
   0   2  11  686.05   14.65
   0  -2  11  666.23   14.13
   0  -2 -11  658.89   14.11
   0   2  12  188.09    8.32
   0  -2  12  178.06    7.88
   0  -2 -12  189.88    8.01
   0  -2  13  114.50    6.70
   0   2  13   98.87    6.71
   0  -2 -13  114.62    6.67
   0  -2 -14    9.04    2.92
   0  -2  14   14.29    3.38
   0   2  14    5.46    2.90
   0  -2  14    6.98    0.80
   0   2  15   -2.47    3.25
   0  -2  15    1.33    2.90
   0  -2  16  171.85    9.04
   0   2  16  157.46    9.09
   0   2  17   58.52    6.06
   0  -2  17   62.14    6.04
   0   2  18   90.41    7.74
   0  -2  18   87.46    7.24
   0   2  19   68.72    6.92
   0  -2  19   75.13    7.13
   0   2  20    3.37    3.46
   0  -2  20    5.67    3.54
   0  -2  21   62.47    6.95
   0   2  21   43.88    5.94
   0   2  22  306.95   15.01
   0  -2  22  305.46   14.53
   0   2  23  133.79   10.52
   0  -2  23  137.29   10.35
   0   2  24   15.28    4.89
   0  -2  24   11.99    4.35
   0   3   0    0.82    1.98
   0  -3  -1  472.20    5.93
   0   3   1  537.85    6.36
   0   3  -2  325.39    4.90
   0   3   2  319.35    5.31
   0  -3  -2  302.71    5.12
   0  -3   3  290.44    5.12
   0   3  -3  276.88    5.12
   0  -3  -3  277.45    5.35
   0   3   3  273.35    5.49
   0  -3   4  253.58    5.41
   0   3  -4  240.34    5.33
   0  -3  -4  244.93    5.52
   0   3   4  226.10    5.77
   0   3  -5   51.37    3.00
   0  -3   5   51.65    3.11
   0   3   5   53.87    3.42
   0  -3  -5   51.90    3.09
   0  -3   6  666.69   10.38
   0   3  -6  656.43   10.31
   0   3   6  689.27   10.85
   0  -3  -6  690.47   10.59
   0  -3  -7   21.15    2.54
   0   3   7   17.76    2.85
   0   3  -7   20.28    2.43
   0  -3   7   16.63    2.58
   0   3  -8  495.55   10.40
   0  -3   8  496.03   10.27
   0  -3  -8  515.30   10.70
   0   3   8  523.36   10.97
   0  -3   9  196.42    7.11
   0   3  -9  184.40    7.02
   0  -3  -9  210.93    7.35
   0   3 -10  195.67    7.62
   0  -3  10  201.46    7.52
   0   3  10  189.65    8.07
   0  -3 -10  212.75    7.67
   0   3 -11   64.31    4.81
   0  -3  11   63.16    4.84
   0   3  11   65.18    5.32
   0  -3 -11   57.92    4.54
   0   3  12  421.44   12.60
   0  -3  12  414.24   11.67
   0   3 -12  413.06   11.98
   0  -3 -12  453.94   12.27
   0   3  13  165.69    8.42
   0   3 -13  161.09    7.90
   0  -3  13  155.98    7.84
   0  -3 -13  165.94    7.99
   0   3  14  136.05    7.87
   0  -3  14  136.46    7.49
   0  -3 -14  143.18    7.70
   0  -3  15  163.43    4.00
   0   3  15  175.16    9.11
   0  -3  15  177.04    8.87
   0  -3  16   15.47    3.96
   0   3  16   16.44    3.97
   0  -3  16   14.06    1.22
   0   3  17    0.01    3.00
   0  -3  17    8.68    3.55
   0  -3  18   10.28    3.46
   0   3  18    6.89    3.28
   0  -3  19   49.82    6.02
   0   3  19   50.18    6.30
   0   3  20   -9.32    4.39
   0  -3  20    3.84    3.20
   0   3  21  197.05   11.77
   0  -3  21  192.33   11.32
   0   3  22   38.98    6.03
   0  -3  22   71.54    6.62
   0  -3  23   52.84    7.00
   0   3  23   52.61    7.26
   0  -3  24    2.44    3.60
   0   4   0 1655.69   12.01
   0   4   1   32.40    2.26
   0  -4  -1   33.90    2.09
   0   4   2  239.26    5.04
   0  -4  -2  239.13    4.93
   0   4  -2  246.07    4.62
   0   4  -3  502.38    7.21
   0  -4  -3  503.09    7.51
   0   4   3  507.73    7.75
   0  -4   4 1167.04   11.65
   0   4  -4 1144.66   11.73
   0  -4  -4 1131.21   12.30
   0   4   4 1106.44   12.35
   0   4  -5   94.05    3.94
   0  -4   5   95.21    3.98
   0  -4  -5   95.58    4.06
   0   4   5   99.48    4.35
   0   4  -6   57.99    3.42
   0  -4   6   56.23    3.50
   0  -4  -6   60.46    3.56
   0   4   6   56.05    3.75
   0   4  -7  402.46    8.86
   0  -4   7  425.77    9.03
   0   4   7  417.40    9.34
   0  -4  -7  424.90    9.23
   0   4  -8   76.92    4.38
   0  -4   8   82.60    4.69
   0  -4  -8   81.75    4.53
   0   4   8   83.23    4.81
   0  -4  -9   11.75    2.56
   0   4   9    8.23    2.71
   0  -4   9    8.17    2.16
   0   4  -9   12.17    2.41
   0   4 -10  116.01    5.83
   0  -4  10  111.44    5.78
   0   4  10  110.98    6.02
   0  -4 -10  116.64    5.90
   0  -4 -10  120.17    2.66
   0   4 -11  358.31   10.45
   0  -4  11  333.50    9.99
   0   4  11  350.45   11.15
   0  -4 -11  355.55   10.45
   0  -4 -12    3.85    2.29
   0  -4  12    3.65    2.55
   0   4 -12    2.91    2.17
   0   4  12    6.47    3.22
   0   4 -13  271.70   10.18
   0   4  13  267.38   10.72
   0  -4  13  259.18    9.69
   0  -4 -13  276.54   10.16
   0   4 -14  134.42    7.66
   0  -4  14  133.73    7.45
   0   4  14  123.58    8.07
   0  -4  15   62.73    5.64
   0   4  15   64.22    5.98
   0   4  16    1.70    3.10
   0  -4  16    2.68    2.85
   0  -4  17  356.50    6.39
   0   4  17  358.28   13.83
   0  -4  17  365.14   13.34
   0  -4  18   32.09    5.08
   0  -4  18   39.02    1.97
   0   4  18   36.20    5.12
   0  -4  19   45.76    5.91
   0   4  19   38.51    5.49
   0  -4  20    9.19    3.88
   0   4  20    5.95    3.44
   0   4  21   21.49    4.89
   0  -4  21   27.36    4.98
   0  -4  22  174.91   11.24
   0   4  22  172.51   11.67
   0   4  23  178.93   12.14
   0  -4  23  169.62   11.39
   0  -4  24    7.46    4.29
   0   5   0    0.78    1.63
   0   5   1 2686.71   17.11
   0  -5  -1 2590.25   17.35
   0   5   2  115.15    4.02
   0  -5  -2  109.23    3.87
   0   5  -3  720.54    9.11
   0   5   3  693.51    9.83
   0  -5  -3  705.49    9.77
   0   5  -4   98.84    3.82
   0   5   4   89.35    4.18
   0  -5  -4   92.26    3.94
   0  -5   4   95.23    3.77
   0   5  -5  118.76    4.43
   0  -5   5  120.68    4.48
   0  -5  -5  123.01    4.67
   0   5   5  123.78    4.98
   0   5  -6   95.39    4.24
   0  -5   6   91.63    4.24
   0   5   6   95.60    4.68
   0  -5  -6   94.13    4.36
   0  -5   7  501.80    9.84
   0   5  -7  504.00   10.03
   0  -5  -7  514.95   10.28
   0   5   7  501.49   10.37
   0   5  -8   98.35    4.88
   0  -5   8   88.74    4.65
   0  -5  -8   88.72    4.82
   0   5   8   95.16    5.21
   0   5  -9 1044.37   16.17
   0  -5   9 1041.59   15.82
   0   5   9 1066.30   16.60
   0  -5  -9 1045.52   16.53
   0   5 -10   65.23    4.60
   0  -5  10   68.57    4.67
   0   5  10   75.22    5.09
   0  -5 -10   75.22    4.84
   0  -5  11  954.38   16.75
   0   5 -11  938.87   17.12
   0  -5 -11 1016.06   17.58
   0   5  11  972.32   17.72
   0  -5  12   -0.72    2.28
   0  -5 -12   -2.03    2.15
   0  -5 -12    4.08    0.78
   0   5  12   12.14    3.57
   0   5 -12    5.99    2.19
   0  -5  13   28.08    3.77
   0  -5 -13   35.90    4.10
   0   5  13   36.92    5.02
   0   5 -13   36.30    4.26
   0   5 -14   41.98    4.58
   0   5  14   41.46    5.31
   0  -5  14   43.87    4.55
   0   5  15   27.74    5.06
   0  -5  15   28.96    4.09
   0  -5  16  340.33   12.51
   0   5  16  341.45   13.52
   0  -5  17   94.32    7.16
   0   5  17   93.97    7.82
   0  -5  18    9.24    1.43
   0   5  18   15.51    4.37
   0  -5  18   10.48    3.58
   0   5  19   -0.96    3.36
   0  -5  19   -0.06    2.97
   0   5  20   48.23    6.65
   0  -5  20   44.95    5.90
   0   5  21  504.36   19.09
   0  -5  21  480.61   17.69
   0   5  22   -2.97    4.11
   0  -5  22    3.48    3.52
   0   5  23   -5.88    4.52
   0  -5  23   -0.45    3.34
   0  -5  24   31.99    6.07
   0   6   0  805.31   10.53
   0   6   1    1.18    1.77
   0  -6  -1    1.65    1.35
   0   6   2 1116.40   12.65
   0  -6  -2 1123.20   12.42
   0   6  -3    1.83    1.38
   0   6   3    8.74    2.37
   0  -6  -3    5.86    1.80
   0   6  -4    1.81    1.44
   0   6   4    0.75    1.96
   0  -6  -4    0.26    1.52
   0   6  -5   31.47    2.62
   0   6   5   27.59    2.89
   0  -6  -5   30.27    2.75
   0  -6   6  162.59    5.46
   0   6  -6  151.28    5.43
   0  -6  -6  149.33    5.63
   0   6   6  162.83    5.96
   0   6  -7  330.20    8.28
   0  -6   7  332.30    8.20
   0   6   7  328.57    8.86
   0  -6  -7  319.11    8.61
   0   6  -8   69.23    4.28
   0  -6   8   73.68    4.46
   0   6   8   73.31    4.55
   0  -6  -8   72.34    4.43
   0  -6   9  143.24    6.12
   0   6  -9  145.53    6.24
   0  -6  -9  144.20    6.43
   0   6   9  141.45    6.51
   0  -6  10   -3.04    2.24
   0   6  10    1.14    2.07
   0  -6 -10    4.77    2.11
   0   6 -10   -0.91    1.68
   0  -6  11    1.70    2.07
   0   6  11    1.68    2.51
   0  -6 -11   -0.19    1.84
   0   6 -11    0.61    1.95
   0   6 -12   72.85    5.27
   0  -6  12   63.11    4.84
   0   6  12   64.10    5.11
   0  -6 -12   66.50    5.11
   0   6  13  124.56    7.57
   0  -6  13  109.14    6.57
   0   6 -13  112.34    6.93
   0  -6 -13  119.08    6.90
   0  -6 -13  122.33    3.16
   0   6  14  193.18    9.76
   0  -6  14  177.20    8.54
   0   6 -14  201.10    9.21
   0   6  15    2.08    3.17
   0  -6  15   -0.68    2.38
   0  -6  16  313.98   12.12
   0   6  16  326.61   13.16
   0   6  17  468.86   16.19
   0  -6  17  452.45   14.91
   0   6  18  194.82   11.31
   0  -6  18  194.42   10.37
   0   6  19   72.60    7.48
   0  -6  19   68.87    6.73
   0   6  20   53.08    6.69
   0  -6  20   46.46    5.83
   0   6  21   -2.51    3.93
   0  -6  21   -5.20    4.24
   0   6  22   52.79    7.33
   0  -6  22   41.02    5.96
   0  -6  23  241.31   13.47
   0   6  23  245.42   14.55
   0  -6  24    1.83    3.45
   0   7   0    0.78    1.80
   0   7   1  567.05    9.48
   0   7  -1  572.45    9.56
   0  -7  -1  552.81    9.29
   0   7   2  785.23   11.41
   0  -7  -2  775.16   11.25
   0   7   3   90.04    4.31
   0  -7  -3   88.02    4.13
   0   7  -3   93.84    3.88
   0   7  -4  100.58    4.19
   0   7   4  102.77    4.68
   0  -7  -4   93.18    4.34
   0   7  -5  290.72    7.23
   0   7   5  273.71    7.59
   0  -7  -5  269.76    7.53
   0   7  -6   13.33    2.16
   0   7   6   13.02    2.42
   0  -7  -6   14.89    2.19
   0   7  -7  317.45    8.38
   0  -7  -7  324.05    8.72
   0   7   7  326.27    9.00
   0  -7   7  335.29    8.35
   0  -7   8   71.51    4.35
   0   7  -8   73.37    4.38
   0   7   8   78.53    4.90
   0  -7  -8   73.73    4.56
   0  -7   9  238.27    7.93
   0   7  -9  227.66    7.91
   0  -7  -9  246.15    8.45
   0   7   9  243.52    8.43
   0   7 -10  180.96    7.41
   0  -7  10  179.48    7.24
   0   7  10  184.06    7.84
   0  -7 -10  175.21    7.61
   0   7 -11  451.62   12.11
   0  -7  11  451.81   11.79
   0  -7 -11  459.67   12.37
   0   7  11  457.91   12.51
   0  -7  12   83.37    5.59
   0   7 -12   86.52    5.77
   0   7  12   80.82    5.85
   0  -7 -12   89.24    5.98
   0  -7  13   14.64    3.08
   0  -7 -13   16.34    3.13
   0   7  13   20.15    3.74
   0   7 -13   16.05    3.01
   0  -7 -14   64.04    2.58
   0  -7  14   56.39    5.10
   0   7  14   62.14    6.23
   0   7 -14   57.93    5.34
   0   7  15  544.35   17.11
   0  -7  15  540.67   15.14
   0  -7  16  109.33    7.44
   0   7  16   90.92    7.95
   0   7  17    6.52    4.13
   0  -7  17    5.72    2.68
   0   7  18  113.05    8.93
   0  -7  18  102.99    7.64
   0   7  19   29.06    5.59
   0  -7  19   23.70    4.41
   0   7  20  129.21    9.76
   0  -7  20  110.35    8.45
   0  -7  21   74.87    7.47
   0   7  21   93.25    9.02
   0   7  22   44.57    6.71
   0  -7  22   33.21    5.39
   0  -7  23   30.10    5.55
   0  -7  24   32.74    5.76
   0   8   0  373.62    8.24
   0   8  -1  568.48   10.20
   0   8   1  551.93   10.12
   0   8   2  130.60    5.15
   0  -8  -2  131.11    4.98
   0   8   3   94.45    4.50
   0  -8  -3   88.88    4.34
   0   8  -4    9.56    1.75
   0  -8  -4    9.73    1.94
   0   8   4    9.87    2.34
   0   8  -5    8.43    1.91
   0   8   5    9.85    2.44
   0  -8  -5   10.29    2.14
   0   8  -6  516.99   10.50
   0   8   6  536.66   11.19
   0  -8  -6  529.46   11.03
   0   8  -7   43.05    3.45
   0   8   7   38.66    3.63
   0  -8  -7   42.18    3.56
   0  -8   8   21.97    2.77
   0   8  -8   18.23    2.65
   0   8   8   23.15    3.38
   0  -8  -8   23.70    2.90
   0   8  -9  314.44    9.39
   0  -8  -9  308.48    9.52
   0   8   9  311.51    9.86
   0  -8   9  306.27    9.06
   0  -8  10  218.81    8.02
   0   8 -10  222.62    8.28
   0   8  10  215.39    8.54
   0  -8 -10  239.51    8.79
   0  -8  11   37.80    3.96
   0   8  11   34.48    4.06
   0  -8 -11   40.79    4.10
   0   8 -11   36.13    3.76
   0  -8  12  251.97    9.41
   0   8 -12  266.97    9.82
   0   8  12  262.82   10.14
   0  -8 -12  273.75   10.14
   0   8 -13  394.45   12.37
   0  -8  13  380.94   11.91
   0   8  13  390.83   12.71
   0  -8  14   47.22    4.84
   0   8  14   45.07    5.11
   0  -8 -14   48.84    2.83
   0  -8 -15  184.50    4.60
   0  -8  15  180.47    9.00
   0   8  15  183.83   10.07
   0   8  16  232.02   11.88
   0  -8  16  231.20   10.47
   0  -8  17   87.87    6.96
   0   8  17  100.30    8.41
   0   8  18   16.41    4.62
   0  -8  18   15.72    3.84
   0   8  19   68.97    7.66
   0  -8  19   61.00    6.28
   0   8  20   64.67    7.64
   0  -8  20   59.89    6.53
   0   8  21    4.62    4.36
   0  -8  21    9.56    3.73
   0   8  22   50.94    7.11
   0  -8  22   50.65    6.56
   0  -8  23  167.21   11.62
   0  -8  24   15.29    4.94
   0   9   0   -0.48    1.85
   0   9   1  198.66    6.56
   0   9  -1  206.83    6.77
   0  -9  -2 1138.55   15.17
   0   9   2 1132.43   15.37
   0   9   3   70.22    4.24
   0  -9  -3   74.65    4.11
   0   9  -4  218.17    6.58
   0   9   4  224.24    7.25
   0  -9  -4  216.50    6.93
   0   9  -5   45.02    3.32
   0   9   5   46.53    3.89
   0  -9  -5   46.28    3.54
   0   9  -6  495.51   10.62
   0   9   6  501.93   11.52
   0  -9  -6  495.83   11.32
   0   9  -7    0.14    1.49
   0   9   7    0.65    2.13
   0  -9  -7    1.05    1.88
   0   9  -8  652.56   13.13
   0   9   8  639.57   13.66
   0  -9  -8  657.37   13.81
   0   9  -9  134.78    6.40
   0  -9  -9  131.53    6.46
   0   9   9  124.99    6.52
   0   9 -10   54.16    4.51
   0  -9 -10   52.98    4.43
   0   9  10   53.44    4.69
   0  -9  10   50.67    4.21
   0  -9  11    2.01    2.15
   0   9 -11    0.03    2.04
   0   9  11    2.25    2.47
   0  -9 -11    7.20    2.32
   0  -9  12    7.34    2.57
   0   9 -12   12.14    2.76
   0   9  12   15.32    3.36
   0  -9 -12   15.23    3.01
   0   9 -13   49.34    4.69
   0  -9  13   46.67    4.62
   0   9  13   51.39    5.26
   0  -9  14    1.14    2.26
   0   9  14    2.78    2.86
   0  -9  15   79.17    6.14
   0   9  15   76.76    6.66
   0  -9 -15   79.32    3.68
   0  -9 -16   21.69    1.87
   0   9  16   26.28    5.54
   0  -9  16   14.21    3.37
   0   9  17    6.03    4.05
   0  -9  17    3.48    2.73
   0   9  18  152.08   10.70
   0  -9  18  132.84    8.47
   0   9  19   14.00    4.49
   0  -9  19   13.56    3.93
   0   9  20   56.60    7.27
   0  -9  20   54.63    6.50
   0  -9  21   91.05    8.08
   0   9  21  100.36    9.48
   0   9  22   14.67    4.85
   0  -9  22    6.73    3.65
   0  -9  23   60.97    7.28
   0  10   0 1235.20   16.74
   0  10   1   97.29    4.98
   0  10  -1   89.51    4.80
   0  10  -2   17.59    2.60
   0  10   2   18.15    2.74
   0 -10  -3   13.70    2.24
   0  10   3   11.99    2.47
   0  10   4   73.57    4.62
   0 -10  -4   67.77    4.44
   0  10  -4   69.36    4.05
   0  10  -5   19.11    2.33
   0  10   5   17.95    2.90
   0 -10  -5   13.88    2.45
   0  10  -6  635.71   12.44
   0  10   6  653.62   13.36
   0 -10  -6  634.94   13.24
   0  10  -7    1.33    1.53
   0  10   7   -0.12    2.24
   0 -10  -7    0.67    1.69
   0  10  -8    9.92    2.24
   0  10   8    6.85    2.31
   0 -10  -8    7.98    2.18
   0  10  -9   66.07    4.69
   0  10   9   69.92    5.17
   0 -10  -9   76.19    5.25
   0  10 -10 1763.93   23.85
   0  10  10 1763.18   25.05
   0 -10 -10 1830.11   25.04
   0  10 -11  112.91    6.49
   0 -10 -11  104.03    6.55
   0  10  11  119.52    7.07
   0  10 -12  308.99   10.88
   0  10  12  305.23   11.24
   0 -10  12  307.75   10.44
   0 -10  13   31.85    3.99
   0  10  13   24.63    3.92
   0  10 -13   28.11    3.99
   0 -10  14  524.71   14.74
   0  10  14  558.74   16.19
   0 -10  15   25.32    4.13
   0  10  15   27.24    4.59
   0  10  16  172.41   10.33
   0 -10  16  156.07    8.75
   0  10  17   17.97    5.14
   0 -10  17   13.42    3.52
   0  10  18   17.04    4.91
   0 -10  18   12.57    3.84
   0  10  19   13.13    4.70
   0 -10  19   10.62    3.57
   0  10  20  231.98   13.36
   0 -10  20  195.41   11.16
   0  10  21    6.14    4.67
   0 -10  21    1.45    2.99
   0 -10  22   14.26    4.07
   0 -10  23   15.14    4.24
   0  11   0   -1.18    1.88
   0  11  -1   79.47    4.75
   0  11   1   81.64    4.87
   0  11   2  459.78   10.83
   0  11  -2  468.99   11.17
   0 -11  -3   68.97    4.42
   0  11   3   64.76    4.38
   0  11  -4    2.16    1.58
   0 -11  -4    1.97    1.54
   0  11   4    0.77    1.91
   0  11  -5 1159.29   17.01
   0  11   5 1130.06   17.98
   0 -11  -5 1155.07   17.85
   0  11  -6  433.12   10.68
   0  11   6  415.37   11.30
   0 -11  -6  429.65   11.33
   0  11  -7   -0.26    1.47
   0  11   7    0.22    2.30
   0 -11  -7    0.53    1.67
   0  11  -8  253.72    8.72
   0  11   8  259.07    9.30
   0 -11  -8  252.53    9.20
   0  11  -9  121.59    6.30
   0  11   9  117.81    6.75
   0 -11  -9  116.00    6.52
   0  11 -10   23.60    3.33
   0  11  10   26.76    3.82
   0 -11 -10   22.41    3.18
   0  11 -11  111.52    6.59
   0  11  11  113.79    7.10
   0  11 -12   13.59    3.00
   0  11  12   15.37    3.59
   0  11  13    6.36    3.20
   0  11  14  124.36    8.19
   0 -11  14  141.26    7.86
   0 -11  15   43.31    4.89
   0  11  15   44.75    5.51
   0 -11  16   15.60    3.59
   0  11  16   22.06    4.45
   0  11  17    7.15    4.20
   0 -11  17    1.72    2.54
   0 -11  18  104.68    7.89
   0  11  18  138.34   10.12
   0  11  19   27.94    5.75
   0 -11  19   28.90    5.00
   0  11  20   22.54    5.61
   0 -11  20   22.03    4.68
   0  11  21   16.75    5.18
   0 -11  21    3.07    3.11
   0 -11  22   21.82    4.79
   0 -11  23   -1.98    3.42
   0  12   0  314.30    9.54
   0  12  -1  141.23    6.50
   0  12   1  149.33    6.73
   0  12  -2   33.02    3.44
   0  12   2   33.00    3.49
   0  12   3  384.81   10.49
   0  12  -3  397.83   10.84
   0  12  -4    5.27    1.63
   0 -12  -4    6.92    2.13
   0  12   4    6.99    2.36
   0  12  -5   39.03    3.42
   0  12   5   34.87    3.80
   0 -12  -5   36.57    3.66
   0  12  -6  216.07    7.84
   0  12   6  217.63    8.52
   0 -12  -6  225.32    8.46
   0  12  -7  295.41    9.40
   0  12   7  294.17    9.95
   0 -12  -7  313.87   10.18
   0  12  -8   31.54    3.48
   0  12   8   31.53    3.85
   0 -12  -8   38.71    4.05
   0  12  -9  492.01   12.81
   0  12   9  464.44   13.25
   0 -12  -9  489.60   13.52
   0  12 -10  232.39    9.16
   0  12  10  240.23    9.86
   0  12 -11   50.06    4.67
   0  12  11   53.79    5.34
   0  12 -12   78.80    5.89
   0  12  12   84.20    6.57
   0  12  13   36.63    4.94
   0  12  14   39.88    5.15
   0  12  15    2.90    2.96
   0  12  16  108.54    8.34
   0  12  17   46.84    6.41
   0 -12  17   27.09    4.26
   0  12  18   58.87    7.28
   0 -12  18   38.98    5.27
   0  12  19  306.26   15.23
   0 -12  19  235.73   11.92
   0  12  20   18.28    5.53
   0 -12  20   10.50    3.79
   0 -12  21    0.68    3.13
   0 -12  22   19.52    4.78
   0 -12  23    4.71    3.50
   0  13   0    5.08    2.43
   0  13  -1   58.70    4.68
   0  13   1   58.65    4.62
   0  13   2  201.35    7.97
   0  13  -2  199.52    8.15
   0  13  -3   15.39    2.82
   0  13   3   14.24    2.85
   0  13  -4    1.33    1.55
   0 -13  -4    2.37    1.74
   0  13   4    2.05    2.27
   0  13  -4    2.49    2.20
   0  13  -5  571.62   12.83
   0  13   5  584.70   13.90
   0 -13  -5  577.05   13.93
   0  13  -6   14.19    2.70
   0  13   6   11.86    2.82
   0 -13  -6   15.60    2.91
   0  13  -7   58.84    4.53
   0  13   7   59.75    4.90
   0 -13  -7   54.57    4.67
   0  13  -8    6.88    2.26
   0  13   8    9.77    2.94
   0 -13  -8    9.88    2.72
   0  13   9   36.40    4.46
   0  13  -9   31.46    3.67
   0  13 -10  123.74    7.01
   0  13  10  114.28    7.30
   0  13 -11  144.20    7.70
   0  13  11  147.95    8.43
   0  13  12    6.13    3.19
   0  13  13  110.73    7.75
   0  13  14    1.77    3.00
   0  13  15   80.25    7.11
   0  13  16   60.82    6.64
   0  13  17   98.66    8.22
   0  13  18    0.55    3.86
   0  13  19    9.72    4.93
   0  14   0   17.60    3.06
   0  14  -1   88.56    5.76
   0  14   1   89.11    5.59
   0  14  -2   65.83    5.08
   0  14   2   56.29    4.75
   0  14   3   45.23    4.36
   0  14  -3   47.74    4.51
   0  14  -4   10.39    2.26
   0  14  -4   11.85    2.70
   0  14   4   15.11    3.02
   0  14  -5   27.30    3.24
   0 -14  -5   25.98    3.40
   0  14   5   27.66    3.70
   0  14  -6   22.58    2.99
   0  14   6   20.15    3.37
   0 -14  -6   23.31    3.19
   0  14  -7   74.65    5.22
   0  14   7   78.54    5.85
   0 -14  -7   83.14    5.83
   0  14  -8   56.89    4.72
   0  14   8   65.08    5.60
   0  14  -9  122.81    6.87
   0  14   9  119.78    7.41
   0  14  10   41.49    5.00
   0  14 -10   36.15    4.19
   0  14  11   11.97    3.51
   0  14  12  118.56    8.03
   0  14  13   62.26    6.17
   0  14  14   67.14    6.49
   0  14  15   35.96    5.31
   0  14  16   12.56    4.30
   0  14  17   72.92    7.47
   0  14  18  110.16    9.87
   0  14  19  176.15   12.62
   0  15   0    3.92    2.78
   0  15   1  426.11   12.31
   0  15  -1  429.82   12.68
   0  15   2  567.74   14.34
   0  15  -2  567.82   14.48
   0  15   3   53.64    4.86
   0  15  -3   47.36    4.76
   0  15  -4    4.47    1.79
   0  15  -4    3.27    2.33
   0  15   4    6.34    2.71
   0  15  -5  128.65    6.69
   0  15   5  126.74    7.29
   0  15  -5  128.21    7.29
   0  15  -6    0.07    1.93
   0  15   6    0.86    2.28
   0  15  -7  355.77   11.31
   0  15   7  335.25   11.81
   0  15  -8    6.46    2.03
   0  15   8    4.62    2.67
   0  15  -9  110.64    6.74
   0  15   9  117.19    7.57
   0  15  10  110.93    7.62
   0  15  11  280.23   11.91
   0  15  12   23.43    4.60
   0  15  13   -2.02    3.06
   0  15  14    3.34    3.24
   0  15  15   86.55    7.69
   0  15  16   50.95    6.43
   0  15  17   96.97    8.55
   0  15  18   17.65    5.27
   0  15  18    9.18    4.40
   0  16   0    4.40    2.36
   0  16  -1    5.85    2.77
   0  16   1    6.43    2.50
   0  16   2   -0.38    2.39
   0  16  -2   -0.70    2.22
   0  16   3  424.02   13.07
   0  16  -3  407.56   12.96
   0  16   4  173.41    8.47
   0  16  -4  183.84    8.15
   0  16  -4  182.82    8.91
   0  16  -5    8.56    2.18
   0  16   5    9.90    3.01
   0  16  -5    8.31    2.82
   0  16  -6    3.20    1.80
   0  16   6    6.07    2.75
   0  16  -6    2.53    2.61
   0  16  -7  518.10   14.04
   0  16   7  499.25   14.70
   0  16  -8  171.90    8.36
   0  16   8  171.06    9.09
   0  16   9   27.83    4.33
   0  16  10   43.61    5.36
   0  16  11    4.00    3.04
   0  16  12   99.45    7.69
   0  16  13   81.25    7.19
   0  16  14   65.96    6.89
   0  16  15   51.27    6.40
   0  16  16    6.17    3.67
   0  16  17  129.03    9.77
   0  16  18   17.07    4.77
   0  17   0   -1.43    2.61
   0  17   1  165.50    8.47
   0  17  -1  167.23    8.68
   0  17  -2    1.30    2.66
   0  17   2   -0.45    2.89
   0  17  -3   15.79    3.66
   0  17   3   15.59    3.32
   0  17  -4   11.89    2.81
   0  17  -4   11.07    3.34
   0  17   4   15.28    4.05
   0  17  -5  185.05    8.54
   0  17   5  184.71    9.28
   0  17  -5  188.35    9.52
   0  17   6   54.27    5.53
   0  17  -6   48.27    5.36
   0  17   7   69.72    6.03
   0  17  -7   69.60    6.25
   0  17   8  125.74    8.23
   0  17   9   62.78    6.19
   0  17  10  162.74    9.39
   0  17  11  114.27    8.24
   0  17  12  107.87    8.23
   0  17  13    7.16    3.29
   0  17  14    7.38    3.56
   0  17  15   30.78    5.37
   0  17  16   11.34    4.08
   0  17  17  156.45   10.90
   0  17  18  111.42    9.46
   0  18   0  150.35    8.38
   0  18   1   17.31    3.54
   0  18  -1   22.60    3.83
   0  18  -2   27.60    4.25
   0  18   2   35.51    4.71
   0  18   3   23.85    3.94
   0  18  -3   19.51    3.87
   0  18   4  120.33    7.72
   0  18  -4  111.82    7.59
   0  18   5    5.72    3.11
   0  18  -5    8.23    3.15
   0  18   6   71.35    6.36
   0  18  -6   72.73    6.46
   0  18   7   -0.85    2.53
   0  18  -7    4.28    3.24
   0  18   8  202.22   10.29
   0  18  -8  191.46   10.33
   0  18   9   68.89    6.50
   0  18  10    8.08    3.33
   0  18  11    1.18    2.86
   0  18  12    1.00    3.20
   0  18  13   35.82    5.65
   0  18  14   12.06    4.21
   0  18  15   26.26    5.11
   0  18  16   23.77    5.08
   0  18  17   10.01    4.41
   0  19   0    2.73    2.70
   0  19   1    1.91    2.62
   0  19  -1    1.73    2.48
   0  19   2    1.62    2.42
   0  19  -2   -1.60    2.54
   0  19   3   22.09    4.06
   0  19  -3   19.86    4.11
   0  19   4   54.41    5.82
   0  19  -4   55.20    5.85
   0  19   5   86.97    7.19
   0  19  -5   82.19    7.06
   0  19  -6    1.03    3.18
   0  19   6    1.92    2.58
   0  19   7   -0.76    2.69
   0  19  -7    1.00    2.67
   0  19   8  100.78    7.69
   0  19  -8   97.75    7.85
   0  19   9    4.69    3.18
   0  19  -9   -3.24    2.75
   0  19  10    0.89    2.78
   0  19  11   12.88    4.11
   0  19  12  155.29   10.09
   0  19  13   50.85    6.52
   0  19  14   87.51    8.18
   0  19  15   37.87    5.68
   0  19  16   30.80    5.56
   0  20   0  605.92   17.88
   0  20  -1   14.08    3.74
   0  20   1   17.14    3.93
   0  20   2    3.64    2.86
   0  20  -2    6.01    3.40
   0  20  -3   15.47    3.96
   0  20   3   14.45    3.59
   0  20   4  119.43    8.24
   0  20  -4  127.57    8.74
   0  20  -5    5.11    3.00
   0  20   5    7.39    3.32
   0  20   6   42.49    5.38
   0  20  -6   44.90    5.64
   0  20   7    7.09    3.09
   0  20  -7    3.53    2.78
   0  20   8   -1.68    3.02
   0  20  -8    0.17    2.86
   0  20   9    0.96    2.81
   0  20  -9    2.16    3.40
   0  20  10  155.96   10.02
   0  20 -10  162.35   10.38
   0  20  11   11.50    4.14
   0  20  12    4.93    3.84
   0  20  13    0.14    3.15
   0  20  14    4.88    3.65
   0  20  15    3.21    3.49
   0  21   0    0.07    2.74
   0  21  -1   26.66    4.46
   0  21   1   22.53    4.25
   0  21  -2   -0.06    2.59
   0  21   2   -2.43    2.98
   0  21   3   -0.30    2.84
   0  21  -3   -0.72    2.79
   0  21   4  227.82   11.47
   0  21  -4  233.60   11.78
   0  21   5   87.08    7.58
   0  21  -5   82.55    7.57
   0  21   6   46.80    5.75
   0  21  -6   41.18    5.59
   0  21   7   17.32    4.42
   0  21  -7    8.17    3.39
   0  21   8   14.85    3.83
   0  21  -8   18.29    4.08
   0  21   9   13.61    3.98
   0  21  -9   10.54    3.94
   0  21  10    1.44    2.98
   0  21 -10    0.74    2.85
   0  21  11    1.93    3.14
   0  21 -11    2.37    3.29
   0  21  12   60.38    7.19
   0  21 -12   63.08    7.24
   0  21  13    4.75    3.47
   0  21  14  117.42    9.66
   0  22   0  133.44    9.21
   0  22   1   76.02    7.15
   0  22  -1   67.64    6.85
   0  22  -2    3.70    2.90
   0  22   2    7.36    3.52
   0  22   3    6.09    3.31
   0  22  -3    0.54    3.01
   0  22   4   90.82    7.63
   0  22  -4   90.25    7.81
   0  22   5    1.81    2.80
   0  22  -5    4.55    3.42
   0  22   6    3.73    2.81
   0  22  -6    8.07    3.52
   0  22   7   23.30    4.94
   0  22  -7   22.41    4.49
   0  22   8   26.26    5.03
   0  22  -8   19.03    4.41
   0  22   9  122.34    9.40
   0  22  -9  136.02    9.94
   0  22  10   14.02    4.26
   0  22 -10   19.16    4.61
   0  22  11    9.11    4.26
   0  22 -11    4.93    3.50
   0  22  12    4.18    3.50
   0  23   0    3.98    3.07
   0  23   1    5.37    3.10
   0  23  -1   -0.92    2.93
   0  23   2    1.60    3.21
   0  23  -2   -1.84    3.25
   0  23   3    6.33    3.69
   0  23  -3   -0.27    3.01
   0  23  -4    3.95    3.36
   0  23   4   13.45    4.11
   0  23   5  103.65    8.49
   0  23  -5   88.32    8.12
   0  23   6   -0.32    2.98
   0  23  -6    4.67    3.63
   0  23   7   11.98    3.62
   0  23  -7    8.72    4.05
   0  23   8   34.96    5.33
   0  23  -8   37.24    5.74
   0  23   9   23.00    4.95
   0  23  -9   24.42    5.22
   0  24   0    2.16    2.85
   0  24   1    8.35    3.61
   0  24  -1    3.45    3.03
   0  24  -2    1.99    2.89
   0  24   2    3.30    3.01
   0  24  -3   28.70    5.13
   0  24   3   32.45    5.55
   0  24  -4   27.26    5.12
   0  24   4   21.39    4.71
   0  24  -5   19.07    4.71
   0  24  -6   30.60    5.27
  -1   0  24    1.43    3.42
  -1   0  23    3.76    3.86
  -1   0  22  370.10   16.02
  -1   0  21   -1.74    3.66
  -1   0  20   21.23    4.48
  -1   0  19   -0.31    3.13
  -1   0  18   78.80    7.24
  -1   0  17   -1.26    3.04
  -1   0  16  400.22   13.48
  -1   0  15    0.01    2.50
   1   0 -14   27.95    3.73
  -1   0  14   20.39    1.13
  -1   0  14   20.58    3.86
   1   0 -13    1.76    2.10
  -1   0  13    0.00    0.63
  -1   0  13    3.33    2.93
  -1   0  12 1590.28   22.19
   1   0 -12 1564.71   22.43
  -1   0  12 1560.38   10.89
   1   0 -11    0.54    1.84
  -1   0  11    4.33    2.62
  -1   0  10 1262.82   18.05
   1   0 -10 1277.37   18.41
   1   0  -9    1.27    2.07
   1   0  -8 1238.70   16.03
   1   0  -7   -1.84    2.00
  -1   0   7    1.39    2.41
  -1   0   6  802.42   11.50
   1   0  -6  791.96   11.33
  -1   0   5    1.50    2.04
   1   0  -5    0.04    1.57
  -1   0   4 1728.42   13.83
   1   0  -4 1725.05   13.59
  -1   0   3    0.51    1.63
   1   0  -3   -2.18    1.30
   1   0  -2  259.23    4.29
  -1   0   2  262.85    4.24
  -1   0   1    0.88    0.83
   1   0  -1    0.44    0.83
  -1   0   0    2.27    0.83
   1   0   1   -1.27    1.28
  -1   0  -1   -1.94    1.21
   1   0   2  283.61    5.39
  -1   0  -2  293.85    5.39
   1   0   3   -0.63    1.92
  -1   0  -3   -0.51    1.17
  -1   0  -3    1.79    1.57
  -1   0  -4   12.27    1.46
  -1   0  -4    9.70    1.84
   1   0   4   13.75    2.56
   1   0   5    0.91    2.30
  -1   0  -5    1.47    1.09
  -1   0  -5    3.54    2.00
   1   0   6 3524.42   25.87
  -1   0  -6 3515.92   25.94
  -1   0  -6 3494.77   16.93
   1   0   7    1.81    2.44
  -1   0  -7   -0.74    1.76
  -1   0  -7    2.06    1.01
   1   0   8 2332.49   23.88
  -1   0  -8 2412.33   24.28
   1   0   9    1.85    2.53
  -1   0  -9    2.84    2.25
   1   0  10  181.37    7.76
  -1   0 -10  187.31    7.72
  -1   0 -11   -0.15    2.09
   1   0  11    2.73    2.61
  -1   0 -12  258.60   10.00
   1   0  12  240.65    9.58
   1   0  13   -2.35    2.93
   1   0  14  129.34    7.88
   1   0  15    3.62    3.16
   1   0  16    8.28    4.04
   1   0  17    1.04    3.01
   1   0  18  510.71   17.28
   1   0  19    5.65    3.78
   1   0  20  226.52   12.48
   1   0  21    5.19    3.77
   1   0  22   59.98    7.25
   1   0  23    5.79    3.95
  -1  -1  25   25.51    5.81
  -1  -1  24   30.07    5.93
  -1   1  24   31.29    5.94
  -1  -1  23   37.48    5.96
  -1   1  23   28.03    5.75
  -1   1  22  364.43   15.88
  -1  -1  22  367.44   15.77
  -1   1  21   -0.48    3.42
  -1  -1  21    0.11    3.24
  -1   1  20  194.23   11.36
  -1  -1  20  222.25   11.49
  -1  -1  19   41.03    5.32
  -1   1  19   35.11    5.49
  -1   1  18   48.59    5.60
  -1  -1  18   45.78    5.58
  -1  -1  17  321.27   12.56
  -1   1  17  338.25   12.97
  -1   1  16  256.65   10.85
  -1  -1  16  242.45   10.33
  -1  -1  15   23.44    1.37
  -1   1  15   20.93    4.01
  -1  -1  15   21.51    3.68
   1  -1 -14    9.09    2.85
   1   1 -14   10.37    2.76
  -1   1  14    8.94    3.06
  -1  -1  14    7.05    2.69
   1  -1 -13   27.36    3.66
   1   1 -13   26.86    3.71
  -1   1  13   21.74    3.87
  -1  -1  13   27.62    3.76
  -1  -1  12   70.96    4.97
  -1   1  12   80.83    5.55
   1  -1 -12   71.55    5.24
   1   1 -12   74.79    5.24
   1  -1 -11   11.53    2.72
   1   1 -11   11.48    2.69
  -1  -1  11   11.77    2.95
  -1   1  11    8.25    1.00
  -1   1  11   14.85    3.36
   1   1 -10   26.33    3.15
   1  -1 -10   26.79    3.21
  -1   1  10   25.48    1.59
  -1  -1  10   27.10    3.37
  -1  -1   9  485.79   10.36
   1  -1  -9  462.74   10.78
   1   1  -9  462.00   10.55
  -1   1   9  487.54   11.13
  -1   1   9  466.15    6.14
  -1  -1   8 1928.79   19.07
  -1   1   8 1951.65   20.58
   1  -1  -8 1918.14   20.30
   1   1  -8 1897.62   19.90
  -1   1   8 1899.51   12.49
  -1  -1   7  516.86    9.25
  -1   1   7  509.57    6.55
   1   1  -7  488.40    9.62
  -1   1   7  507.94   10.09
   1  -1  -7  487.54    9.82
  -1   1   6  138.68    3.58
   1  -1  -6  131.54    4.92
  -1   1   6  140.47    5.35
   1   1  -6  132.06    4.81
  -1   1   5   32.52    1.96
   1  -1  -5   31.10    2.62
   1   1  -5   29.19    2.38
  -1   1   5   30.15    3.00
  -1   1   4  249.49    4.79
   1  -1  -4  250.44    5.65
  -1   1   4  256.69    5.82
  -1  -1   4  267.16    5.50
   1   1  -4  246.84    5.18
  -1   1   3  238.98    4.68
  -1   1   3  254.61    5.20
   1  -1  -3  238.04    5.03
  -1  -1   3  246.83    4.52
   1   1  -3  237.59    4.46
  -1   1   2 1869.81   12.69
  -1   1   2 1867.65   12.39
  -1  -1   2 1868.08   10.03
   1  -1  -2 1848.89   12.39
  -1   1   1   54.85    2.43
   1  -1  -1   52.37    2.19
  -1   1   1   57.03    2.52
   1  -1   0 1237.29   10.52
  -1   1   0 1240.99   10.44
  -1  -1   0 1237.74    7.47
   1   1   0 1256.08    7.43
  -1   1   0 1241.28    9.37
  -1   1  -1  336.49    5.53
  -1  -1  -1  333.52    4.70
   1   1   1  330.12    4.75
  -1   1  -1  339.51    5.59
   1  -1   1  331.70    5.52
   1  -1   2 1457.54   12.32
  -1   1  -2 1478.16   12.38
   1   1   2 1459.90   11.31
  -1  -1  -2 1451.86   11.32
  -1   1  -2 1439.65   11.57
   1  -1   2 1435.47   11.37
  -1   1  -3   36.12    2.60
  -1  -1  -3   35.30    2.42
   1  -1   3   36.27    2.84
   1   1   3   40.72    2.76
   1  -1   3   39.13    2.24
  -1   1  -3   35.68    2.21
   1  -1   4   25.60    2.77
  -1  -1  -4   28.60    2.49
  -1   1  -4   28.95    2.66
   1  -1   4   28.36    1.97
  -1   1  -4   28.99    2.02
   1   1   4   36.12    3.00
  -1   1  -5  647.11   10.63
   1   1   5  637.64   10.45
  -1  -1  -5  661.30   10.56
   1  -1   5  634.17   10.60
   1  -1   5  639.11    7.71
  -1  -1  -6  104.17    4.82
   1  -1   6   97.88    5.00
  -1   1  -6  103.58    4.74
   1   1   6  103.10    5.01
   1  -1   6  106.70    3.31
   1   1   7  102.59    5.17
  -1   1  -7  102.30    5.07
   1  -1   7  106.69    5.31
  -1  -1  -7  113.93    5.43
  -1  -1  -7  112.24    2.98
   1   1   8  250.54    8.20
   1  -1   8  270.48    8.47
  -1   1  -8  280.16    8.42
  -1  -1  -8  275.60    8.63
  -1  -1  -8  273.39    4.46
   1  -1   9    3.06    2.27
  -1  -1  -9    6.90    2.80
  -1   1  -9    8.13    2.44
   1   1   9    4.83    2.75
  -1   1 -10  154.02    7.22
   1  -1  10  148.43    6.98
  -1  -1 -10  153.12    7.20
   1   1  10  150.31    7.13
   1  -1  11  432.45   12.19
  -1   1 -11  463.76   12.74
   1   1  11  441.87   12.32
  -1  -1 -11  465.19   12.08
   1  -1  12  505.48   13.68
   1   1  12  511.88   13.72
  -1   1 -12  514.86   14.05
  -1  -1 -12  533.57   13.47
   1  -1  13   75.75    6.12
   1   1  13   66.77    5.68
  -1   1 -13   66.30    5.67
  -1  -1 -13   76.45    5.63
   1  -1  14  178.73    8.90
   1   1  14  183.51    9.27
   1  -1  15  116.79    7.72
   1   1  15  111.26    7.72
   1   1  16   62.19    6.22
   1  -1  16   59.49    6.11
   1  -1  17    1.81    3.06
   1   1  17    8.17    3.53
   1   1  18   53.78    6.39
   1  -1  18   52.33    6.29
   1  -1  19    5.44    3.53
   1   1  19    0.79    3.25
   1   1  20   64.33    7.06
   1  -1  20   63.67    7.25
   1   1  21   66.42    7.35
   1  -1  21   68.80    7.51
   1  -1  22  725.05   23.11
   1   1  22  767.72   23.82
   1  -1  23   20.93    5.27
   1   1  23   19.22    5.17
  -1  -2  25    7.30    3.83
  -1   2  24   13.25    4.92
  -1  -2  24   19.82    5.20
  -1  -2  23   41.00    6.23
  -1   2  23   39.75    6.31
  -1  -2  22  122.28    9.38
  -1   2  22  125.52    9.79
  -1   2  21  101.17    8.51
  -1  -2  21  109.17    8.63
  -1  -2  20   59.15    6.71
  -1   2  20   54.29    6.39
  -1  -2  19   -3.02    3.22
  -1   2  19    1.46    3.30
  -1   2  18   85.86    7.25
  -1  -2  18   87.13    7.15
  -1  -2  17   -1.65    3.29
  -1   2  17   10.67    3.72
  -1   2  16  856.48   20.09
  -1  -2  16  828.84   18.81
  -1  -2  15   99.09    6.52
  -1   2  15   94.77    7.29
  -1   2  14  580.60   15.23
  -1  -2  14  572.75   14.29
   1   2 -14  573.37   14.99
   1  -2 -14  559.35   14.89
  -1  -2  13   64.65    4.96
  -1   2  13   69.34    5.70
   1  -2 -13   65.60    5.26
   1   2 -13   62.36    5.04
  -1  -2  12  131.37    6.54
   1   2 -12  146.91    7.08
   1  -2 -12  143.32    7.09
  -1  -2  11  361.09    9.82
   1  -2 -11  362.29   10.54
   1   2 -11  348.96   10.23
   1   2 -10    3.85    2.21
  -1   2  10    4.02    2.63
   1  -2 -10    2.33    2.01
  -1  -2  10    0.20    2.19
  -1  -2   9 1173.73   15.53
   1   2  -9 1149.74   16.67
   1  -2  -9 1161.18   16.97
  -1   2   9 1189.54   17.22
  -1  -2   8  435.65    8.92
   1  -2  -8  414.03    9.70
   1   2  -8  416.89    9.58
  -1   2   8  418.91    9.88
  -1   2   8  427.57    6.18
  -1   2   7    4.85    2.65
   1   2  -7    4.16    1.94
   1  -2  -7    3.87    1.81
  -1  -2   7    1.10    1.75
  -1   2   7    5.20    1.27
  -1  -2   6  174.59    5.14
  -1   2   6  185.62    6.21
   1  -2  -6  178.82    5.82
   1   2  -6  186.14    5.56
  -1   2   6  189.34    4.22
  -1  -2   5   31.61    2.42
  -1   2   5   30.97    3.09
   1  -2  -5   34.12    2.71
   1   2  -5   30.60    2.49
  -1   2   5   33.47    2.04
  -1  -2   4   93.38    2.99
   1  -2  -4   96.07    3.21
  -1   2   4   98.20    3.29
   1   2  -4   97.47    3.40
   1  -2  -4  108.36    4.10
  -1   2   4  103.68    4.26
   1  -2  -3  942.47    9.50
  -1   2   3  944.05    9.47
   1  -2  -3  928.33   10.24
  -1   2   3  926.76   10.48
   1   2  -3  921.41    8.40
   1  -2  -2  961.97    9.79
  -1   2   2  981.00    9.87
   1   2  -2  969.55    6.98
   1  -2  -2  982.56    9.94
  -1   2   2  973.87    9.98
   1  -2  -1 1843.23   13.62
  -1   2   1 1908.95   13.66
  -1   2   1 1858.92   13.22
   1  -2  -1 1870.52   13.15
  -1   2   0  280.21    5.50
   1  -2   0  271.90    5.45
  -1   2   0  278.82    5.28
  -1   2  -1  836.32    9.30
   1  -2   1  819.11    9.30
  -1  -2  -1  832.32    7.05
   1   2   1  832.85    7.05
   1  -2   2  216.57    5.04
   1   2   2  215.10    4.50
  -1  -2  -2  242.80    4.73
  -1   2  -2  223.97    5.31
   1  -2   2  218.32    5.29
   1  -2   3   53.27    3.29
  -1  -2  -3   56.75    3.00
   1   2   3   50.18    2.77
  -1   2  -3   50.34    3.03
   1  -2   3   51.31    2.70
  -1  -2  -4  336.73    6.90
   1   2   4  328.70    6.96
   1  -2   4  324.49    7.37
  -1   2  -4  322.96    7.23
   1  -2   4  300.36    5.95
  -1  -2  -5   62.92    3.77
   1  -2   5   58.06    3.96
   1   2   5   60.88    3.82
  -1   2  -5   59.23    3.65
   1  -2   5   60.12    2.93
   1   2   6   54.89    4.00
  -1  -2  -6   52.11    3.63
   1  -2   6   45.89    3.67
  -1   2  -6   49.55    3.58
  -1  -2  -6   46.05    3.20
   1  -2   6   47.79    2.57
   1   2   7 1643.92   18.95
  -1   2  -7 1589.63   19.20
   1  -2   7 1592.06   18.85
  -1  -2  -7 1592.63   17.36
   1  -2   7 1578.83   13.41
  -1   2  -8 1049.26   16.38
   1   2   8 1023.56   15.87
   1  -2   8  995.25   15.93
  -1  -2  -8  989.93   14.86
   1  -2   8 1020.98   10.72
  -1  -2  -9    0.16    1.68
   1   2   9    1.25    2.42
   1  -2   9    1.76    2.24
  -1  -2  -9    3.06    0.82
  -1   2  -9    1.32    1.97
   1  -2   9    2.57    1.04
  -1   2 -10  129.11    6.55
   1  -2  10  116.04    6.30
   1   2  10  118.32    6.33
  -1  -2 -10  124.23    6.11
   1  -2  10  121.63    3.77
  -1  -2 -10  123.10    2.81
  -1   2 -11  600.27   14.29
   1   2  11  560.57   13.84
   1  -2  11  545.95   13.56
  -1  -2 -11  573.85   13.30
   1  -2  11  550.88    7.81
   1  -2  12  288.85   10.44
  -1   2 -12  298.72   10.64
   1   2  12  282.73   10.42
  -1  -2 -12  293.23   10.01
  -1  -2 -13    6.21    2.36
   1   2  13    1.82    2.77
   1  -2  13    6.30    3.09
  -1   2 -13    3.45    2.40
   1  -2  14  190.12    9.23
   1   2  14  175.53    9.17
   1  -2  15  122.17    7.92
   1   2  15  116.61    7.86
   1  -2  16  291.30   12.19
   1   2  16  277.29   12.01
   1   2  17  597.76   18.01
   1  -2  17  600.09   17.80
   1   2  18   67.33    6.82
   1  -2  18   58.34    6.41
   1  -2  19   10.68    3.92
   1   2  19    9.80    4.22
   1  -2  20   10.76    4.34
   1   2  20   10.91    4.03
   1  -2  21   42.89    6.37
   1   2  21   39.65    5.99
   1  -2  22   14.90    4.49
   1   2  22   18.48    5.03
   1  -2  23   -3.37    4.16
   1   2  23   -0.45    3.41
  -1  -3  25    1.55    3.36
  -1  -3  24   21.14    5.22
  -1   3  24   17.34    5.22
  -1  -3  23  161.31   10.96
  -1   3  23  153.86   11.08
  -1   3  22  168.16   11.25
  -1  -3  22  173.85   10.82
  -1  -3  21    3.54    3.16
  -1   3  21    1.82    3.33
  -1  -3  20   42.84    5.61
  -1   3  20   45.54    6.37
  -1   3  19    5.94    3.82
  -1  -3  19    5.63    3.34
  -1   3  18   49.95    5.84
  -1  -3  18   44.12    5.31
  -1  -3  17  183.87    9.38
  -1   3  17  165.63    9.27
  -1   3  16   50.09    5.63
  -1  -3  16   32.69    4.33
  -1  -3  15   16.41    3.19
  -1   3  15   26.98    4.46
   1   3 -14   39.44    4.33
  -1   3  14   39.68    5.13
  -1  -3  14   29.05    3.72
  -1  -3  13  770.18   15.85
   1  -3 -13  819.99   17.43
   1   3 -13  818.79   17.22
   1   3 -12   -0.30    2.07
   1  -3 -12    1.10    1.93
  -1   3  12    2.05    2.77
  -1  -3  12   -0.66    2.18
  -1  -3  11   53.76    4.29
  -1   3  11   51.03    4.54
   1   3 -11   52.19    4.20
   1  -3 -11   50.57    4.27
  -1  -3  10  735.96   12.97
  -1   3  10  744.64   14.66
   1  -3 -10  712.70   14.28
  -1  -3   9   56.24    3.71
  -1   3   9   57.72    4.52
   1  -3  -9   57.16    4.28
  -1  -3   8  375.17    8.18
  -1   3   8  383.02    9.61
   1  -3  -8  378.06    9.42
  -1  -3   7 1201.55   13.49
   1  -3  -7 1218.93   15.87
  -1   3   7 1232.79   16.36
   1  -3  -7 1241.68   11.44
  -1  -3   6   70.60    3.30
   1  -3  -6   71.29    4.02
  -1   3   6   64.00    4.14
   1  -3  -6   70.90    2.90
  -1  -3   5  115.34    3.51
  -1   3   5  115.53    5.01
   1  -3  -5  124.73    4.70
   1  -3  -5  123.44    3.82
  -1  -3   4 1105.79    8.61
   1  -3  -4 1123.92   11.26
  -1   3   4 1132.25   13.12
   1  -3  -4 1098.10   12.82
  -1  -3   3  379.45    3.89
   1  -3  -3  369.99    6.59
  -1   3   3  367.00    7.27
   1  -3  -3  356.61    7.09
   1  -3  -2   39.07    2.55
   1  -3  -2   35.50    2.53
  -1   3   2   32.75    2.73
   1  -3  -1  298.76    6.04
  -1   3   1  283.59    6.08
   1  -3  -1  277.61    5.88
   1  -3   0 2586.80   17.58
  -1   3   0 2642.18   17.62
   1   3   1  268.69    4.18
   1   3   2  796.04    8.41
  -1  -3  -2  798.81    6.42
  -1   3  -2  783.79   10.21
   1   3   3 1886.40   14.81
  -1   3  -3 1886.29   16.69
  -1  -3  -3 1886.02   12.09
   1  -3   3 1908.78   16.63
   1  -3   4   31.99    3.16
  -1   3  -4   36.05    2.93
  -1  -3  -4   33.90    2.14
   1   3   4   35.94    2.99
   1  -3   5  591.61   10.64
   1   3   5  592.39   10.16
  -1   3  -5  594.03   10.60
  -1  -3  -5  567.13    8.72
  -1   3  -6   76.26    4.41
   1  -3   6   81.58    4.55
   1   3   6   83.03    4.63
  -1  -3  -6   79.85    3.87
   1  -3   6   76.01    3.43
  -1   3  -7  290.47    8.41
   1  -3   7  279.06    8.30
   1   3   7  298.41    8.35
  -1  -3  -7  281.48    7.35
   1  -3   7  280.18    6.26
   1  -3   8   20.28    2.97
  -1  -3  -8   28.48    2.89
   1   3   8   29.40    3.45
   1  -3   8   26.14    2.20
  -1   3  -8   22.46    2.89
  -1   3  -9  297.00    9.33
   1  -3   9  286.70    9.26
   1   3   9  287.66    9.09
  -1  -3  -9  285.47    8.42
   1  -3   9  283.42    6.33
  -1   3 -10  226.75    8.80
   1   3  10  235.61    8.75
   1  -3  10  225.33    8.53
  -1  -3 -10  229.34    8.02
   1  -3  10  229.56    5.75
   1   3  11  152.87    7.55
   1  -3  11  143.59    7.25
  -1   3 -11  204.36    9.03
  -1  -3 -11  146.91    6.87
   1  -3  11  140.00    4.52
  -1  -3 -11  151.88    2.95
   1  -3  12    3.75    2.65
  -1  -3 -12    6.65    2.28
  -1   3 -12    6.23    2.60
   1   3  12    5.97    2.71
   1  -3  12    6.21    1.20
   1  -3  13  269.53   10.63
   1   3  13  247.23   10.38
  -1   3 -13  276.92   10.67
  -1  -3 -13  278.42   10.17
   1  -3  13  258.37    5.88
   1  -3  14   38.71    4.73
  -1  -3 -14   46.08    4.74
   1  -3  14   42.07    2.44
   1   3  14   32.60    4.56
   1   3  15  472.31   15.05
   1  -3  15  489.63   15.06
   1  -3  16   31.49    4.76
   1   3  16   19.43    4.13
   1  -3  17   33.66    4.94
   1   3  17   35.67    5.29
   1   3  18   92.01    7.95
   1  -3  18   96.67    8.01
   1  -3  19  130.02    9.27
   1   3  19  149.68   10.05
   1   3  20   87.98    8.42
   1  -3  20   76.49    7.59
   1  -3  21   72.75    7.90
   1   3  21   73.32    7.79
   1  -3  22   57.71    7.33
   1   3  22   58.72    7.53
   1  -3  23   33.16    5.78
   1   3  23   25.75    5.76
  -1  -4  25  213.98   13.11
  -1   4  24    8.46    4.14
  -1  -4  24    2.21    3.04
  -1  -4  23    1.32    3.25
  -1   4  23    0.18    3.55
  -1   4  22    5.85    4.28
  -1  -4  22    0.96    2.80
  -1  -4  21  122.79    8.82
  -1   4  21  119.93    9.30
  -1  -4  20    3.52    3.11
  -1   4  20    2.75    3.30
  -1  -4  19  242.10   11.44
  -1   4  19  245.06   12.77
  -1  -4  18   17.35    3.80
  -1   4  18   21.31    5.09
  -1  -4  17   32.01    4.48
  -1   4  17   32.79    5.47
  -1   4  16  359.97   13.76
  -1  -4  16  356.63   12.16
  -1   4  15  752.69   18.19
  -1  -4  15  716.57   16.44
  -1  -4  14  819.92   16.91
   1   4 -14  843.75   18.31
   1  -4 -13    1.42    1.93
   1   4 -13   -1.05    2.08
  -1   4  13    1.64    2.70
  -1  -4  13    2.11    2.29
  -1  -4  12  144.94    6.67
   1  -4 -12  143.40    7.32
  -1   4  12  125.92    7.08
  -1  -4  11  183.95    7.24
   1  -4 -11  192.91    7.92
  -1   4  11  186.29    8.01
  -1  -4  10   88.64    4.84
  -1   4  10  101.21    6.03
   1  -4 -10   97.12    5.49
  -1  -4   9  939.94   13.69
  -1   4   9  934.23   15.98
   1  -4  -9  965.05   16.03
   1  -4  -9  973.25   10.55
  -1  -4   8   64.67    3.68
  -1   4   8   62.60    4.45
   1  -4  -8   68.70    4.48
   1  -4  -8   64.08    2.93
  -1  -4   7  307.06    6.75
   1   4  -7  288.30    6.63
  -1   4   7  290.75    8.36
   1  -4  -7  300.55    8.29
   1  -4  -7  306.00    6.25
   1   4  -6  181.95    4.87
  -1  -4   6  194.94    4.95
  -1   4   6  198.74    6.65
   1  -4  -6  194.83    6.41
   1  -4  -6  199.27    5.14
   1   4  -5  715.55    8.36
  -1  -4   5  775.78    8.37
   1  -4  -5  770.00    9.98
   1  -4  -5  772.59   11.76
  -1   4   5  790.25   11.90
  -1  -4   4  521.48    5.86
   1   4  -4  482.35    5.83
   1  -4  -4  507.22    8.30
  -1   4   4  523.74    9.55
   1  -4  -4  509.12    9.32
   1   4  -3    7.63    0.90
  -1  -4   3    8.76    0.94
   1  -4  -3    8.63    2.04
  -1   4   3    9.79    2.63
   1  -4  -2  252.39    6.09
  -1   4   2  265.03    6.38
  -1   4   1   34.55    2.99
   1  -4  -1   32.36    2.48
   1   4   0  228.99    3.03
  -1   4   0  229.00    5.93
   1   4   1 9999.00   21.06
  -1  -4  -1 9970.35   21.20
  -1  -4  -2 4789.71   16.93
   1   4   2 4763.57   17.40
  -1   4  -2 4781.61   26.41
  -1   4  -3  171.02    5.45
   1   4   3  170.58    4.91
  -1  -4  -3  163.25    3.89
   1   4   3  169.75    4.09
   1  -4   4   25.42    2.99
  -1   4  -4   21.21    2.50
  -1  -4  -4   25.51    2.01
   1   4   4   24.85    2.19
   1   4   4   23.82    2.80
   1  -4   5  323.52    8.07
   1   4   5  339.98    7.85
  -1   4  -5  329.20    8.20
  -1  -4  -5  327.00    6.63
  -1   4  -6  198.27    6.81
   1   4   6  211.94    6.78
   1  -4   6  203.23    6.96
  -1  -4  -6  191.98    5.76
  -1   4  -7  187.62    7.03
   1  -4   7  187.56    6.87
   1   4   7  193.62    6.85
  -1  -4  -7  181.39    5.99
   1  -4   8   -0.62    2.41
  -1  -4  -8    4.70    1.85
  -1   4  -8    3.89    2.37
   1   4   8    1.62    2.54
   1   4   9  380.49   10.82
  -1   4  -9  413.27   11.14
   1  -4   9  395.40   10.78
  -1  -4  -9  414.49    9.95
   1  -4  10   29.89    3.82
  -1  -4 -10   34.37    3.48
   1   4  10   34.20    4.04
   1  -4  10   26.90    2.42
  -1   4 -10   30.46    3.56
  -1   4 -11  476.51   12.95
   1  -4  11  459.24   12.63
   1   4  11  445.93   12.76
  -1  -4 -11  440.20   11.62
   1  -4  11  444.45    8.70
   1  -4  12    8.12    2.76
  -1  -4 -12    9.64    2.67
   1  -4  12    7.51    1.51
  -1   4 -12    6.24    2.33
   1   4  12    7.45    2.98
  -1  -4 -12   10.77    1.00
  -1   4 -13   59.79    5.40
   1   4  13   56.80    5.64
   1  -4  13   54.77    5.17
  -1  -4 -13   55.03    4.82
   1  -4  13   57.03    3.23
   1   4  14  335.50   12.34
   1  -4  14  315.56   11.75
   1  -4  14  320.62    7.24
   1  -4  15   39.56    5.07
   1   4  15   46.40    5.50
   1  -4  15   51.29    2.96
   1  -4  16   -1.07    2.87
   1   4  16   -0.56    3.03
   1  -4  16    0.74    0.93
   1  -4  17    5.58    3.32
   1   4  17   -2.83    3.63
   1  -4  18    2.64    3.16
   1   4  18   -2.01    3.31
   1  -4  19   16.38    4.31
   1   4  19   10.59    4.06
   1  -4  20   45.79    6.02
   1   4  20   55.68    6.75
   1  -4  21   46.66    6.57
   1   4  21   44.33    6.29
   1  -4  22    5.32    4.35
   1   4  22    1.69    3.72
   1  -4  23  116.53   10.10
  -1  -5  25   15.28    4.71
  -1  -5  24    8.29    4.15
  -1  -5  23  106.38    9.00
  -1   5  23  116.05   10.22
  -1  -5  22   22.33    4.56
  -1   5  22   20.85    5.06
  -1   5  21   55.93    7.06
  -1  -5  21   59.30    6.56
  -1  -5  20   -0.41    2.82
  -1   5  20    3.37    3.93
  -1   5  19   26.05    4.99
  -1  -5  19   25.33    4.34
  -1  -5  18   32.29    4.83
  -1   5  18   39.63    6.01
  -1  -5  17   16.12    3.54
  -1   5  17   24.04    5.05
  -1   5  16    7.05    3.87
  -1  -5  16    3.70    2.64
  -1  -5  15   51.72    4.97
  -1   5  14   20.62    3.91
  -1  -5  14   18.48    3.24
  -1  -5  13  463.52   12.01
  -1   5  13  462.95   13.53
   1  -5 -13  480.95   13.53
  -1  -5  12  153.56    6.79
  -1   5  12  145.89    7.56
   1  -5 -12  154.93    7.50
  -1  -5  11  215.21    7.49
  -1   5  11  216.78    8.65
   1  -5 -11  215.20    8.63
   1  -5 -11  212.78    5.23
  -1  -5  10   60.54    4.07
   1   5 -10   59.92    4.12
   1  -5 -10   59.95    4.45
  -1   5  10   65.36    4.97
   1  -5 -10   61.85    3.01
  -1  -5   9  397.94    8.85
   1   5  -9  379.14    8.91
  -1   5   9  391.15   10.80
   1  -5  -9  412.62   10.79
   1  -5  -9  407.19    7.55
   1   5  -8  373.75    8.25
  -1  -5   8  402.28    8.32
  -1   5   8  390.44   10.32
   1  -5  -8  409.51   10.40
   1  -5  -8  400.81    7.63
   1   5  -7  461.69    8.34
  -1  -5   7  482.74    8.40
   1  -5  -7  510.64   10.83
  -1   5   7  513.45   11.11
   1  -5  -7  484.98    8.53
  -1  -5   6   63.73    2.96
   1   5  -6   57.89    2.95
  -1   5   6   65.36    4.25
   1  -5  -6   61.73    3.83
   1   5  -5   15.04    1.60
  -1  -5   5   17.43    1.65
  -1   5   5   16.54    2.91
   1  -5  -5   16.02    2.37
   1   5  -4   -0.84    1.00
  -1  -5   4   -1.13    1.01
   1  -5  -4    0.12    1.88
  -1   5   4    0.07    2.22
   1   5  -3  370.45    4.46
  -1   5   3  358.46    8.23
   1  -5  -3  363.19    8.03
  -1   5   2  111.31    4.88
   1   5  -2  118.15    2.26
   1  -5  -2  113.73    4.57
  -1   5   1  981.03   12.80
   1  -5  -1  986.57   12.41
  -1   5   0 2839.37   21.45
   1   5   0 2804.53   12.98
   1   5   1 7748.71   22.06
  -1  -5  -1 7693.03   22.39
   1   5   2 1152.39    9.50
  -1  -5  -2 1128.79    9.24
  -1   5  -3  347.57    7.90
  -1  -5  -3  343.17    5.80
   1   5   3  339.84    5.88
  -1   5  -4  167.76    5.87
   1   5   4  159.11    4.64
  -1  -5  -4  163.61    4.48
  -1   5  -5   66.31    4.11
  -1  -5  -5   64.26    3.20
   1   5   5   64.90    3.46
   1  -5   5   66.72    4.12
  -1   5  -6  206.75    7.16
   1  -5   6  209.48    7.10
   1   5   6  224.48    7.06
  -1  -5  -6  210.13    5.98
   1   5   6  199.02    6.16
   1  -5   7    6.03    2.47
  -1  -5  -7    1.10    1.49
  -1   5  -7    0.54    1.86
   1   5   7    6.09    2.87
  -1   5  -8  109.59    5.75
   1  -5   8  101.11    5.53
   1   5   8  102.26    5.94
  -1  -5  -8  104.32    5.00
  -1   5  -9  531.13   12.78
   1   5   9  514.89   12.54
   1  -5   9  512.77   12.39
  -1  -5  -9  518.04   11.25
   1  -5  10   23.80    3.34
  -1  -5 -10   30.31    3.43
   1   5  10   33.14    4.02
  -1   5 -10   27.14    3.51
  -1   5 -11  552.08   14.08
   1  -5  11  542.32   13.76
   1   5  11  522.15   13.72
  -1  -5 -11  541.31   12.88
   1  -5  12   45.94    4.81
  -1  -5 -12   47.71    4.41
   1   5  12   46.49    5.00
  -1   5 -12   46.82    4.45
   1  -5  12   44.91    3.17
   1   5  13  147.75    8.40
   1  -5  13  150.41    8.07
  -1  -5 -13  152.89    7.68
   1  -5  13  149.43    5.55
   1   5  14   95.23    6.89
   1  -5  14   88.12    6.66
   1  -5  14   88.06    4.30
   1  -5  15   20.75    3.94
   1   5  15   30.50    4.57
   1  -5  15   25.12    2.45
   1   5  16  176.26   10.12
   1  -5  16  182.65    9.84
   1  -5  16  199.50    6.10
   1  -5  17   -1.83    2.78
   1   5  17   -1.37    3.54
   1  -5  17    0.08    1.07
   1   5  18  113.60    8.97
   1  -5  18  114.64    8.54
   1   5  19  259.42   13.06
   1  -5  19  227.48   12.04
   1  -5  20    7.39    3.63
   1   5  20    8.23    4.19
   1  -5  21   14.66    4.38
   1   5  21   13.58    4.53
   1  -5  22   66.81    7.65
   1   5  22   67.20    8.15
   1  -5  23   33.82    5.92
  -1  -6  25  121.26    9.93
  -1  -6  24   74.90    7.95
  -1  -6  23    5.30    3.59
  -1   6  23   13.06    4.99
  -1  -6  22   -6.56    4.98
  -1   6  22    4.05    3.57
  -1  -6  21   29.90    5.04
  -1   6  21   34.59    6.01
  -1  -6  20   -4.70    2.88
  -1   6  20    6.78    3.95
  -1  -6  19   40.95    5.29
  -1   6  19   48.89    6.40
  -1  -6  18    3.14    2.82
  -1   6  18    4.38    3.57
  -1  -6  17   -0.58    2.46
  -1   6  17    0.63    3.50
  -1  -6  16   -2.78    2.67
  -1  -6  15  563.45   14.42
  -1   6  15  582.50   16.61
  -1   6  14   -1.18    2.68
  -1  -6  14    1.61    2.09
  -1  -6  13   47.17    4.20
  -1   6  13   44.79    4.89
  -1  -6  12  338.44    9.74
  -1   6  12  343.04   11.49
   1  -6 -12  352.86   11.43
   1  -6 -12  346.66    7.02
   1   6 -11   75.15    4.79
  -1  -6  11   70.03    4.46
   1  -6 -11   81.03    5.47
  -1   6  11   78.40    5.68
   1  -6 -11   71.36    3.41
  -1  -6  10   78.80    4.46
   1   6 -10   77.89    4.58
  -1   6  10   81.57    5.45
   1  -6 -10   78.06    5.28
   1  -6 -10   81.32    3.73
  -1  -6   9  425.28    9.22
   1   6  -9  408.74    9.26
  -1   6   9  428.89   11.41
   1  -6  -9  426.96   11.26
   1  -6  -9  422.03    8.31
  -1  -6   8  200.27    6.00
   1   6  -8  195.43    6.06
   1  -6  -8  204.32    5.95
   1  -6  -8  205.56    7.46
  -1   6   8  199.99    7.65
  -1  -6   7    0.73    1.45
   1   6  -7    1.39    1.36
  -1   6   7    1.89    2.34
   1  -6  -7    0.84    1.78
   1   6  -6  145.34    4.47
  -1  -6   6  160.82    4.50
  -1   6   6  162.14    6.47
   1  -6  -6  165.37    6.33
   1   6  -5  372.24    6.28
  -1   6   5  391.98    9.44
  -1  -6   5  380.31    6.12
   1  -6  -5  382.65    9.28
   1   6  -4  174.55    3.89
  -1   6   4  175.22    6.35
   1  -6  -4  179.45    6.29
   1   6  -3    0.34    0.85
  -1   6   3    0.57    2.19
   1  -6  -3    0.35    1.60
  -1   6   2  176.07    6.17
   1  -6  -2  182.46    5.97
  -1   6   1  483.11    9.68
   1  -6  -1  495.25    9.49
   1   6  -1  517.24    6.69
  -1   6   0  172.46    6.01
   1   6   0  179.15    3.95
   1   6   1  380.76    5.70
  -1  -6  -1  372.37    5.63
  -1   6  -1  383.87    8.63
   1   6   2  102.72    3.33
  -1  -6  -2  106.16    3.30
   1   6   3  177.06    4.59
  -1   6  -3  184.28    6.18
  -1  -6  -3  176.19    4.58
  -1   6  -4    4.02    1.93
   1   6   4    2.21    1.54
  -1  -6  -4    2.36    1.23
  -1   6  -5   65.45    4.15
   1   6   5   65.73    3.55
  -1  -6  -5   66.28    3.45
  -1   6  -6 1294.65   17.84
  -1  -6  -6 1268.96   14.84
   1   6   6 1288.88   15.06
   1  -6   6 1286.36   17.33
  -1   6  -7  198.27    7.44
   1   6   7  198.54    7.47
  -1  -6  -7  197.44    6.41
   1   6   7  208.32    6.71
   1  -6   7  194.91    7.23
   1   6   8  121.90    6.26
   1  -6   8  111.77    5.89
  -1   6  -8  108.65    5.81
  -1  -6  -8  108.02    5.10
   1   6   8  109.81    5.38
  -1   6  -9   81.63    5.42
   1  -6   9   79.54    5.29
   1   6   9   77.79    5.62
  -1  -6  -9   67.64    4.34
   1  -6  10   20.04    3.28
  -1  -6 -10   20.79    2.84
  -1   6 -10   20.31    3.28
   1   6  10   24.50    3.69
   1   6  11  920.49   18.64
   1  -6  11  925.45   18.04
  -1   6 -11 1006.88   19.23
  -1  -6 -11  930.79   16.79
   1  -6  12  206.70    9.02
  -1   6 -12  223.24    9.49
   1   6  12  206.73    9.34
  -1  -6 -12  210.97    8.60
   1  -6  13  888.50   19.01
   1   6  13  921.05   19.86
  -1  -6 -13  905.54   18.12
   1  -6  14   21.45    3.85
   1  -6  14   23.19    2.63
   1   6  14   20.42    3.81
   1  -6  15  254.11   11.18
   1   6  15  257.75   11.71
   1  -6  15  255.95    7.70
   1  -6  16   35.21    4.80
   1  -6  16   42.20    3.35
   1   6  16   45.33    5.76
   1  -6  17  100.55    7.75
   1   6  17  108.96    8.33
   1  -6  17  108.10    4.94
   1  -6  18   27.01    4.59
   1   6  18   37.75    5.81
   1  -6  19   -1.39    3.40
   1   6  19   -5.77    4.23
   1  -6  20   49.62    6.32
   1   6  20   33.99    5.79
   1  -6  21   79.64    7.95
   1   6  21   83.78    8.39
   1  -6  22   32.89    5.62
   1   6  22   27.95    5.69
   1  -6  23  165.67   11.74
  -1  -7  25   32.58    6.05
  -1  -7  24   39.30    6.11
  -1   7  23  119.57   10.63
  -1  -7  23  117.64    9.19
  -1  -7  22   18.57    4.45
  -1   7  22   16.53    5.15
  -1  -7  21    4.20    3.30
  -1   7  21   12.51    4.55
  -1  -7  20  104.92    8.11
  -1   7  20  130.81    9.77
  -1   7  19   97.56    8.39
  -1  -7  19   79.99    6.84
  -1  -7  18    2.17    2.71
  -1   7  18    2.19    3.76
  -1  -7  17   88.26    6.58
  -1  -7  16   -0.53    2.22
  -1   7  16    3.34    3.23
  -1  -7  15    8.13    2.79
  -1   7  15   10.86    3.72
  -1  -7  14   88.42    5.85
  -1   7  14   85.61    6.57
   1   7 -13  255.13    9.27
  -1  -7  13  272.43    9.31
  -1   7  13  273.73   10.84
   1  -7 -13  273.41    6.66
   1   7 -12   83.96    5.41
  -1  -7  12   87.81    5.15
  -1   7  12   91.94    6.40
   1  -7 -12   98.36    6.51
   1  -7 -12   95.23    4.21
  -1  -7  11  157.65    6.41
   1   7 -11  143.20    6.49
   1  -7 -11  161.00    7.61
  -1   7  11  156.78    7.82
   1  -7 -11  148.76    5.27
  -1  -7  10   95.75    4.80
   1   7 -10   93.48    4.90
   1  -7 -10   96.93    4.40
   1  -7 -10   99.84    5.80
  -1   7  10   95.26    6.07
  -1  -7   9   25.07    2.67
   1   7  -9   26.22    2.71
  -1   7   9   24.10    3.48
   1  -7  -9   28.51    3.34
   1   7  -8  413.65    8.76
  -1  -7   8  437.95    8.79
   1  -7  -8  441.40   11.23
  -1   7   8  432.61   11.30
   1   7  -7  438.39    8.37
  -1  -7   7  463.05    8.34
  -1   7   7  463.70   11.39
   1  -7  -7  462.75   11.30
   1   7  -6  108.30    3.97
  -1   7   6  109.77    5.56
   1  -7  -6  111.59    5.56
   1   7  -5   49.68    2.59
  -1   7   5   51.61    4.13
   1  -7  -5   56.93    3.85
   1   7  -4  149.15    3.88
  -1   7   4  151.96    6.11
   1  -7  -4  148.66    6.04
   1   7  -3  469.95    6.32
   1  -7  -3  463.79   10.10
  -1   7   3  463.98   10.25
   1  -7  -2    3.30    1.68
  -1   7   2    6.79    2.43
   1   7  -1  890.32    9.82
  -1   7   1  905.97   13.68
   1   7   0    4.98    1.39
  -1   7   0    4.01    2.18
  -1   7  -1  240.34    7.30
   1   7   1  233.25    5.07
   1   7   2   84.99    3.31
  -1  -7  -2   85.97    3.27
   1   7   3  529.43    8.38
  -1   7  -3  548.21   10.84
  -1  -7  -3  530.32    8.27
  -1   7  -4  472.40   10.46
   1   7   4  497.72    8.47
  -1  -7  -4  491.36    8.35
  -1   7  -5   66.07    4.32
  -1  -7  -5   65.61    3.39
   1   7   5   59.09    3.48
  -1   7  -6  658.28   13.07
   1   7   6  646.98   10.96
  -1  -7  -6  621.18   10.74
  -1   7  -7  455.72   11.32
  -1  -7  -7  454.69    9.67
   1   7   7  442.24    9.77
  -1   7  -8  153.27    6.89
  -1  -7  -8  149.76    6.00
   1   7   8  148.46    6.27
   1  -7   8  145.40    6.71
   1   7   9  467.82   12.19
  -1   7  -9  476.96   12.47
   1  -7   9  457.60   11.96
   1   7   9  474.04   11.33
  -1  -7  -9  460.13   10.83
  -1   7 -10  652.19   15.12
   1  -7  10  632.52   14.54
   1   7  10  678.93   15.33
  -1  -7 -10  649.79   13.69
   1  -7  11  116.70    6.74
  -1   7 -11  119.54    7.07
   1   7  11  126.40    7.35
  -1  -7 -11  118.89    6.42
   1  -7  12    4.38    2.73
  -1  -7 -12   -0.33    2.09
   1   7  12    4.95    2.93
  -1   7 -12   -1.82    2.68
   1   7  13  171.20    9.30
   1  -7  13  170.48    8.68
  -1  -7 -13  181.59    8.37
   1  -7  14   68.16    6.07
   1   7  14   77.34    6.64
   1  -7  15   78.29    6.35
   1   7  15   85.74    6.98
   1  -7  15   86.83    4.98
   1  -7  16   53.92    6.02
   1   7  16   55.00    6.32
   1  -7  16   52.99    3.97
   1  -7  17   35.96    5.13
   1   7  17   41.41    5.98
   1  -7  17   40.68    3.50
   1  -7  18    3.84    3.27
   1   7  18   -2.31    3.93
   1  -7  19   55.09    6.44
   1   7  19   55.08    6.96
   1   7  20  118.97    9.60
   1  -7  20  108.33    8.75
   1  -7  21    9.08    4.14
   1   7  21   12.67    4.60
   1  -7  22   -0.40    3.09
   1   7  22    4.88    4.39
  -1  -8  25   -0.63    3.84
  -1  -8  24   59.63    6.98
  -1  -8  23    3.89    3.32
  -1  -8  22    3.08    2.99
  -1   8  22    3.05    5.82
  -1  -8  21   90.17    7.66
  -1   8  21   96.63    9.21
  -1   8  20   87.64    9.12
  -1  -8  20   67.26    6.61
  -1  -8  19   28.45    4.52
  -1   8  19   35.18    5.91
  -1  -8  18   89.47    6.88
  -1  -8  17   25.45    3.95
  -1   8  17   20.90    4.43
  -1  -8  16   30.71    4.15
  -1   8  16   33.97    4.96
  -1  -8  15   65.31    5.37
  -1   8  15   63.90    6.37
  -1  -8  14    0.87    2.33
  -1   8  14    1.80    2.77
   1  -8 -14    1.54    1.20
   1   8 -14    2.48    2.41
  -1  -8  13   22.59    2.99
  -1   8  13   24.74    4.16
   1  -8 -13   25.02    2.48
   1   8 -13   29.87    3.76
  -1  -8  12   -0.44    1.85
  -1   8  12    0.27    2.82
   1   8 -12    1.39    1.81
   1  -8 -12    2.99    1.58
   1   8 -11  101.32    5.45
  -1  -8  11  106.70    5.42
   1  -8 -11  120.02    6.82
  -1   8  11  105.85    6.80
   1  -8 -11   99.54    4.70
  -1  -8  10   56.54    3.78
   1   8 -10   57.90    4.02
   1  -8 -10   64.83    4.97
  -1   8  10   62.28    5.24
   1   8  -9  369.55    8.98
  -1  -8   9  387.37    8.89
  -1   8   9  384.59   11.44
   1  -8  -9  403.53   11.47
   1   8  -8   55.25    3.40
  -1   8   8   60.12    4.79
  -1  -8   8   59.19    3.44
   1  -8  -8   66.54    4.65
   1   8  -7    4.22    1.27
  -1   8   7    4.66    2.36
   1  -8  -7    8.31    2.40
   1   8  -6 1057.92   12.41
  -1   8   6 1107.16   17.28
   1  -8  -6 1115.94   17.39
   1   8  -5   47.36    2.65
  -1   8   5   50.84    4.14
   1  -8  -5   48.18    3.81
   1   8  -4  106.61    3.58
  -1   8   4  107.54    5.52
   1  -8  -4  111.25    5.54
  -1   8   3  309.28    8.73
   1  -8  -3  305.59    8.63
   1   8  -3  298.11    5.57
  -1   8   2  642.11   12.28
   1  -8  -2  613.84   12.00
   1   8  -1  389.44    7.21
  -1   8   1  398.40    9.74
  -1   8   0  170.15    6.57
   1   8   0  167.88    4.72
   1   8   1 1354.79   13.31
  -1   8  -1 1344.21   17.83
   1   8   2  584.07    8.86
  -1  -8  -2  572.66    8.87
  -1  -8  -3   15.89    1.82
   1   8   3   13.45    1.92
  -1   8  -4    7.03    2.22
   1   8   4    6.38    1.69
  -1  -8  -4    6.17    1.57
  -1   8  -5  218.18    7.69
   1   8   5  216.62    6.40
  -1  -8  -5  217.58    6.29
  -1   8  -6  165.61    6.93
  -1  -8  -6  162.00    5.71
   1   8   6  155.70    5.78
  -1   8  -7  409.19   11.12
   1   8   7  409.37    9.61
  -1  -8  -7  379.70    9.16
  -1   8  -8  272.19    9.37
   1   8   8  271.05    8.36
  -1  -8  -8  264.16    8.09
  -1   8  -9  130.95    6.84
   1   8   9  134.83    6.42
  -1  -8  -9  132.56    6.20
   1  -8   9  132.81    6.72
   1  -8  10    3.07    2.24
   1   8  10    8.44    3.37
  -1   8 -10    4.40    2.39
   1   8  10    2.28    2.30
  -1  -8 -10    5.57    2.18
   1  -8  11  392.32   12.11
  -1   8 -11  421.91   12.86
   1   8  11  366.70   12.36
  -1  -8 -11  405.18   11.45
   1  -8  12   14.84    3.38
  -1  -8 -12   10.26    2.57
   1   8  12   12.25    3.50
   1  -8  13   16.31    3.44
  -1  -8 -13   17.50    3.13
   1   8  13   22.39    4.42
   1  -8  14  143.92    8.36
   1   8  14  133.02    8.48
   1  -8  15    4.22    3.27
   1   8  15    2.65    3.29
   1   8  16   74.17    7.28
   1  -8  16   75.46    6.83
   1  -8  16   65.09    4.67
   1  -8  17   69.04    6.57
   1   8  17   65.67    7.15
   1  -8  18  129.35    9.06
   1   8  18  135.89    9.78
   1  -8  19   -2.55    3.52
   1   8  19    1.44    3.62
   1  -8  20   91.93    8.33
   1   8  20   85.38    8.47
   1   8  21  111.31    9.66
   1  -8  21  114.03    9.40
   1  -8  22    1.45    3.38
  -1  -9  25    5.50    3.69
  -1  -9  24  107.44    9.18
  -1  -9  23   12.06    4.15
  -1  -9  22   -1.19    2.98
  -1   9  22    1.59    4.13
  -1  -9  21    7.11    3.15
  -1   9  21   10.71    4.48
  -1   9  20  174.30   11.47
  -1  -9  20  141.52    9.17
  -1   9  19  107.52    9.39
  -1  -9  19   87.19    6.99
  -1  -9  18   49.16    5.31
  -1  -9  17   44.75    4.98
  -1   9  17   48.22    6.06
  -1  -9  16  554.04   15.09
  -1   9  16  559.70   17.40
  -1  -9  15    7.73    2.88
  -1   9  15   15.01    3.93
   1  -9 -15    6.78    1.27
   1   9 -15   11.25    3.28
   1   9 -14  521.42   13.87
  -1  -9  14  521.52   13.41
  -1   9  14  542.42   16.10
   1  -9 -14  542.82   10.73
   1   9 -13   90.20    5.78
  -1  -9  13   94.68    5.72
  -1   9  13   80.82    6.44
   1  -9 -13   86.06    4.56
   1   9 -12  102.69    5.82
  -1  -9  12  108.62    5.86
  -1   9  12  109.91    7.21
   1  -9 -12  108.96    5.19
  -1  -9  11  156.20    6.50
   1   9 -11  151.87    6.65
  -1   9  11  162.73    8.38
   1   9 -10  210.07    7.33
  -1   9  10  213.30    9.24
  -1  -9  10  228.17    7.34
   1  -9 -10  226.53    9.17
   1   9  -9  109.23    5.14
  -1   9   9  115.79    6.77
  -1  -9   9  115.67    5.33
   1  -9  -9  125.39    6.68
   1   9  -8  169.70    5.93
  -1   9   8  175.22    7.72
   1  -9  -8  184.36    7.80
   1   9  -7    3.45    1.55
   1  -9  -7    1.52    1.91
  -1   9   7   -1.58    2.43
   1   9  -6  344.86    7.45
  -1   9   6  354.44   10.30
   1  -9  -6  355.02   10.19
   1   9  -5   16.12    1.81
   1  -9  -5   16.84    2.60
  -1   9   5   13.28    2.70
   1   9  -4  197.22    5.11
   1  -9  -4  198.40    7.34
  -1   9   4  197.89    7.62
  -1   9   3  205.84    7.66
   1   9  -3  196.60    4.94
   1  -9  -3  195.28    7.43
  -1   9   2  110.98    5.75
   1  -9  -2  116.18    5.57
   1   9  -2  112.81    4.36
   1   9  -1    9.02    1.79
  -1   9   1    3.83    2.19
  -1   9   0  259.74    8.38
   1   9   0  254.38    6.35
   1   9   1   -1.56    1.46
  -1   9  -1    0.27    2.30
   1   9   2 1296.67   14.22
  -1  -9  -2 1242.59   13.93
  -1   9  -2 1257.30   18.40
   1   9   3   48.92    3.15
  -1  -9  -3   51.80    3.19
   1   9   4  240.37    6.79
  -1  -9  -4  244.25    6.78
  -1   9  -4  260.49    8.37
  -1   9  -5   22.63    2.97
   1   9   5   20.88    2.42
  -1  -9  -5   21.19    2.41
  -1   9  -6  540.80   12.60
   1   9   6  532.82   10.75
  -1  -9  -6  516.30   10.55
  -1   9  -7  210.11    8.22
   1   9   7  194.93    7.00
  -1  -9  -7  193.48    6.84
  -1   9  -8   80.88    5.36
  -1  -9  -8   75.19    4.52
   1   9   8   72.46    4.67
  -1   9  -9   21.56    3.13
   1   9   9   24.43    3.26
  -1  -9  -9   23.55    2.88
  -1   9 -10  762.65   16.94
   1   9  10  733.61   15.08
  -1  -9 -10  730.62   14.86
   1  -9  11   10.96    3.14
  -1   9 -11   15.07    3.59
   1   9  11   20.49    4.28
   1   9  11   10.42    3.04
  -1  -9 -11   10.77    2.50
   1   9  12 1393.59   24.74
  -1  -9 -12 1431.75   22.63
   1  -9  12 1385.99   23.60
   1  -9  13   42.68    4.79
   1   9  13   43.40    5.55
   1  -9  14    3.31    2.61
   1   9  14   16.83    4.25
   1  -9  15  116.20    7.78
   1   9  15  123.53    8.80
   1  -9  16  300.81   12.73
   1   9  16  292.69   13.63
   1  -9  17    9.97    3.25
   1   9  17   10.07    4.12
   1  -9  18   32.17    5.29
   1   9  18   33.78    5.45
   1  -9  19   -2.07    3.07
   1   9  19    7.18    3.91
   1  -9  20   29.14    5.24
   1   9  20   35.89    6.15
   1  -9  21   14.94    4.67
   1   9  21   19.55    5.27
   1  -9  22   90.47    8.60
  -1 -10  24   52.35    6.75
  -1 -10  23   -1.08    3.02
  -1 -10  22   88.86    7.82
  -1 -10  21    1.96    3.06
  -1  10  21   16.43    5.50
  -1  10  20  109.65    9.63
  -1 -10  20   96.26    7.64
  -1 -10  19   30.18    4.65
  -1 -10  18  131.01    8.09
  -1  10  18  141.76   10.02
  -1 -10  17   13.42    3.32
  -1  10  17   13.58    4.08
  -1 -10  16   -0.15    2.47
  -1  10  16    3.19    3.28
   1 -10 -16    0.97    1.27
   1  10 -15   40.88    4.60
  -1 -10  15   37.88    4.16
  -1  10  15   33.99    5.12
   1 -10 -15   39.67    3.28
  -1 -10  14   12.91    3.02
  -1  10  14   11.31    3.79
   1 -10 -14    5.41    1.95
   1  10 -14    9.61    2.85
  -1 -10  13   87.98    5.47
   1  10 -13   85.06    5.63
   1 -10 -13   92.19    5.05
  -1  10  13   80.01    6.54
   1  10 -12  167.06    7.37
   1 -10 -12  172.48    6.91
  -1  10  12  176.26    9.07
  -1 -10  12  167.42    7.11
  -1 -10  11    9.75    2.29
  -1  10  11   12.04    3.53
   1  10 -11    5.98    2.12
   1  10 -10   85.78    4.97
  -1  10  10   98.59    6.67
   1  10  -9    5.64    1.57
  -1  10   9    5.12    2.54
   1 -10  -9    8.24    2.33
   1  10  -8  353.25    8.75
  -1  10   8  363.06   11.32
   1 -10  -8  379.50   11.40
   1  10  -7   24.61    2.51
   1 -10  -7   20.42    2.97
  -1  10   7   25.22    3.68
   1  10  -6    3.33    1.30
  -1  10   6    2.92    2.33
   1 -10  -6    3.13    2.09
   1  10  -5  107.53    4.19
  -1  10   5  110.12    6.01
   1 -10  -5  125.95    6.29
   1  10  -4   26.80    2.24
   1 -10  -4   28.26    3.31
  -1  10   4   27.76    3.51
   1  10  -3    2.82    1.17
   1 -10  -3    1.34    1.61
  -1  10   3    5.29    2.33
  -1  10   2 1277.86   18.86
   1  10  -2 1246.76   15.26
   1  10  -1  116.72    4.74
  -1  10   1  114.05    6.03
   1  10   0  210.75    6.16
  -1  10   0  208.35    7.80
  -1  10  -1   33.37    3.73
   1  10   1   28.42    2.44
   1  10   2 1752.66   17.76
  -1  10  -2 1807.69   22.70
   1  10   3  270.36    7.23
  -1 -10  -3  268.15    7.21
  -1  10  -4    3.67    1.83
   1  10   4    2.73    1.57
  -1 -10  -4    2.40    1.46
  -1  10  -5   81.41    5.14
   1  10   5   75.30    4.20
  -1 -10  -5   76.98    4.30
  -1  10  -6   89.89    5.53
   1  10   6   85.62    4.63
  -1 -10  -6   88.21    4.66
  -1  10  -7    1.24    1.82
   1  10   7    2.78    2.04
  -1 -10  -7    0.76    1.48
  -1  10  -8  452.74   12.66
   1  10   8  424.89   10.98
  -1 -10  -8  447.15   10.90
  -1  10  -9   42.68    4.31
   1  10   9   33.78    3.75
  -1 -10  -9   31.24    3.46
  -1  10 -10  147.59    7.78
   1  10  10  138.52    6.90
  -1 -10 -10  141.20    6.90
   1  10  11    6.18    2.34
  -1 -10 -11    8.37    2.33
   1  10  12   61.62    6.39
   1  10  12   85.37    6.12
  -1 -10 -12   80.66    5.81
   1  10  13    5.79    3.48
   1 -10  13    3.53    2.85
   1  10  14  123.72    8.43
   1 -10  14  106.32    7.28
   1  10  15    4.18    3.52
   1 -10  15   -2.64    3.22
   1  10  16  379.75   15.06
   1 -10  16  354.22   13.94
   1 -10  17   36.78    5.22
   1  10  17   35.56    5.46
   1 -10  18  135.36    9.33
   1  10  18  142.91   10.43
   1 -10  19   35.00    5.28
   1  10  19   40.44    6.57
   1 -10  20  524.57   18.83
   1  10  20  514.62   19.91
   1 -10  21    8.31    3.70
   1  10  21    7.79    4.09
   1 -10  22   86.80    8.60
  -1 -11  24   34.39    5.50
  -1 -11  23    1.86    2.84
  -1 -11  22    8.75    3.53
  -1 -11  21   12.81    3.73
  -1  11  21   14.73    5.15
  -1  11  20   88.76    8.78
  -1 -11  20   66.26    5.72
  -1 -11  19    3.05    2.73
  -1  11  19    5.30    3.88
  -1 -11  18  113.03    7.61
  -1  11  18  124.25    9.46
  -1 -11  17   37.34    4.46
  -1  11  17   31.79    5.26
  -1 -11  16  334.29   11.74
  -1  11  16  325.18   13.96
  -1 -11  15   -1.19    2.41
   1  11 -15   -0.12    2.09
   1 -11 -15    1.82    1.76
  -1  11  15    0.92    3.04
   1  11 -14  822.25   17.80
   1 -11 -14  858.66   15.44
  -1  11  14  868.66   21.11
  -1 -11  14  862.28   17.31
   1  11 -13   57.01    4.72
   1 -11 -13   55.23    4.28
  -1  11  13   52.92    5.69
  -1 -11  13   51.36    4.30
   1  11 -12   50.71    4.51
  -1  11  12   49.23    5.42
  -1  11  11   32.75    4.50
   1  11 -11   33.39    3.46
   1  11 -10  192.62    7.34
  -1  11  10  196.33    9.31
   1  11  -9   37.20    3.21
  -1  11   9   38.81    4.24
   1  11  -8   57.56    3.82
  -1  11   8   48.06    4.66
   1 -11  -8   54.01    4.60
   1  11  -7  304.70    7.94
  -1  11   7  320.60   10.81
   1 -11  -7  311.63   10.66
   1  11  -6  662.74   11.20
  -1  11   6  668.30   15.16
   1 -11  -6  683.67   15.29
   1  11  -5   65.92    3.54
  -1  11   5   72.12    5.20
   1 -11  -5   67.84    4.88
   1  11  -4  161.25    5.25
   1 -11  -4  167.10    7.48
  -1  11   4  158.26    7.34
  -1  11   3   82.30    5.43
   1 -11  -3   86.38    5.41
   1  11  -2    3.82    1.57
  -1  11   2    4.71    2.49
  -1  11   1    1.50    2.17
   1  11  -1    0.79    1.37
  -1  11   0    4.04    2.58
   1  11   0    2.62    1.50
   1  11   1  365.84    8.59
  -1  11  -1  363.60   10.71
   1  11   2 1347.54   16.34
  -1  11  -2 1370.82   20.62
   1  11   3  204.08    6.61
  -1 -11  -3  195.36    6.35
  -1  11  -3  203.08    8.26
   1  11   4  153.66    5.94
  -1 -11  -4  158.20    6.06
  -1  11  -4  171.27    7.37
  -1  11  -5   15.02    2.70
   1  11   5   15.31    2.34
  -1 -11  -5   13.31    2.06
  -1  11  -6  478.91   12.62
   1  11   6  470.10   10.84
  -1 -11  -6  465.37   10.77
  -1  11  -7   28.05    3.56
   1  11   7   28.97    3.25
  -1 -11  -7   29.11    3.01
  -1  11  -8  118.88    6.84
   1  11   8  115.05    5.93
  -1 -11  -8  107.71    5.60
  -1  11  -9   -1.06    1.94
   1  11   9    2.16    2.18
  -1 -11  -9    1.52    1.76
   1  11  10  238.84    9.25
  -1 -11 -10  254.18    9.21
   1  11  11   65.75    5.37
  -1 -11 -11   52.99    4.19
   1  11  12  939.54   22.89
   1  11  12  885.11   18.78
   1  11  13    2.84    3.44
   1  11  14   30.73    5.62
   1  11  15  145.18    9.48
   1  11  16  348.05   14.94
   1 -11  16  352.57   13.96
   1  11  17   23.23    5.15
   1 -11  17   15.93    4.06
   1  11  18   13.85    4.67
   1 -11  18   12.57    3.46
   1  11  19   -5.89    4.10
   1 -11  19    5.26    3.40
   1  11  20   -1.93    3.89
   1 -11  20    1.66    3.13
   1 -11  21   18.57    4.93
  -1 -12  23   49.89    6.46
  -1 -12  22   53.79    6.23
  -1 -12  21  123.98    8.78
  -1 -12  20   43.95    5.38
  -1  12  20   66.27    8.16
  -1 -12  19    8.63    3.41
  -1  12  19    7.55    4.18
  -1 -12  18    6.93    2.67
  -1  12  18   11.58    4.23
  -1  12  17  225.48   12.20
  -1 -12  17  218.00    9.97
  -1 -12  16   14.47    3.29
  -1  12  16   15.51    4.50
  -1  12  15   43.04    5.69
   1 -12 -15   39.72    3.81
   1  12 -14   92.24    6.32
  -1  12  14   98.46    7.73
   1 -12 -14   96.47    5.72
  -1  12  13    4.92    3.57
   1  12 -13    6.44    2.24
   1  12 -12  111.68    6.26
  -1  12  12  118.76    8.04
   1  12 -11   69.98    4.86
  -1  12  11   74.64    6.42
   1  12 -10  148.48    6.63
  -1  12  10  160.96    8.65
  -1  12   9   20.58    3.81
   1  12  -9   23.51    2.96
   1  12  -8   59.28    3.95
  -1  12   8   62.59    5.32
   1  12  -7   -0.83    1.39
  -1  12   7    0.70    2.63
   1 -12  -7   -1.03    2.04
   1  12  -6  437.46    9.56
  -1  12   6  433.86   12.70
   1 -12  -6  447.56   12.89
   1  12  -5   -0.66    1.22
  -1  12   5    3.15    2.48
   1 -12  -5    0.19    1.93
   1  12  -4   12.72    1.87
   1 -12  -4   13.11    2.78
  -1  12   4   12.75    2.88
   1  12  -3  264.07    8.01
  -1  12   3  249.69    9.29
   1  12  -2 1027.37   15.57
  -1  12   2 1030.88   18.59
  -1  12   1   31.29    3.83
   1  12  -1   25.93    2.72
   1  12   0   43.57    3.41
  -1  12   0   36.56    3.99
  -1  12  -1  286.89   10.07
   1  12   1  307.53    8.32
   1  12   2  340.29    8.89
  -1  12  -2  349.57   11.12
   1  12   3   22.00    2.76
  -1  12  -3   11.88    2.69
   1  12   4   37.42    3.37
  -1  12  -4   38.22    3.92
  -1 -12  -4   36.90    3.16
  -1  12  -5   -0.22    1.90
   1  12   5    0.54    1.87
  -1 -12  -5    1.87    1.52
  -1  12  -6   43.42    4.36
   1  12   6   44.64    3.85
  -1 -12  -6   48.12    3.80
  -1  12  -7  233.09    9.42
   1  12   7  220.76    8.24
  -1 -12  -7  220.64    8.02
  -1  12  -8  148.32    7.75
   1  12   8  152.33    7.04
  -1 -12  -8  141.07    6.79
   1  12   9    1.69    2.32
  -1 -12  -9   -0.32    1.64
   1  12  10   11.52    3.07
  -1 -12 -10    9.25    2.40
   1  12  11  185.08    8.73
  -1 -12 -11  192.50    8.61
   1  12  12   45.20    4.82
   1  12  13   -2.21    2.70
   1  12  13    8.71    4.14
   1  12  14   17.41    4.37
   1  12  15    6.09    3.46
   1  12  16  148.78   10.46
   1  12  17  110.79    9.08
   1  12  18   81.97    8.38
   1  12  19    4.54    3.86
   1  12  20   47.83    7.08
  -1 -13  21   11.19    3.66
  -1  13  19   30.98    5.92
  -1  13  18   12.25    4.67
  -1  13  17  262.67   13.30
  -1  13  16  204.28   11.65
  -1  13  15   15.74    4.31
  -1  13  14   28.74    5.01
   1  13 -14   30.02    4.12
   1 -13 -14   32.02    3.72
   1  13 -13   44.17    4.52
  -1  13  13   45.50    5.79
   1  13 -12  288.99   10.06
  -1  13  12  290.57   12.17
   1  13 -11   80.16    5.27
  -1  13  11   79.30    6.52
   1  13 -10  162.34    7.07
  -1  13  10  160.81    8.89
  -1  13   9    0.49    2.79
   1  13  -9    4.60    1.71
   1  13  -8   49.51    3.79
  -1  13   8   39.76    4.58
   1  13  -7  738.00   13.29
  -1  13   7  753.81   17.40
   1  13  -6   31.50    2.90
  -1  13   6   38.09    4.50
   1  13  -5    5.97    1.62
   1 -13  -5    8.38    2.43
  -1  13   5    6.68    2.97
   1  13  -4   10.74    1.99
   1 -13  -4   11.09    2.62
  -1  13   4   11.15    2.90
   1  13  -4   11.88    2.40
  -1  13   3   98.93    6.35
   1  13  -3  106.94    5.43
  -1  13   2    6.29    2.36
   1  13  -2    3.53    1.74
  -1  13   1  101.85    6.35
   1  13  -1  102.83    5.30
  -1  13   0   97.72    6.28
   1  13   0  101.22    5.10
   1  13   1    1.25    1.62
  -1  13  -1    3.78    2.61
   1  13   2   44.19    3.63
  -1  13  -2   45.01    4.51
   1  13   3  335.99    9.39
  -1  13  -3  338.27   11.36
  -1  13  -4    4.72    2.18
   1  13   4    3.85    1.83
  -1  13  -4    2.94    2.24
  -1  13  -5   21.84    3.43
   1  13   5   19.51    2.86
  -1 -13  -5   17.43    2.69
  -1  13  -6  154.74    7.96
   1  13   6  151.17    6.93
  -1 -13  -6  150.27    6.60
  -1  13  -7   85.41    5.99
   1  13   7   81.68    5.39
  -1 -13  -7   77.99    5.06
   1  13   8  170.27    7.66
  -1 -13  -8  174.96    7.70
   1  13   9   10.99    2.94
  -1 -13  -9   13.10    2.89
   1  13  10  251.29    9.79
  -1 -13 -10  260.66    9.73
   1  13  11   19.13    3.66
   1  13  12   97.98    6.97
   1  13  13   28.01    4.24
   1  13  13   34.02    5.26
   1  13  14   85.27    8.00
   1  13  14   77.67    6.60
   1  13  15   10.87    4.59
   1  13  16   55.75    6.78
   1  13  17   51.88    6.97
   1  13  18   10.46    5.21
   1  13  19    4.74    3.89
  -1  14  20    3.75    4.00
  -1  14  19   32.49    5.89
  -1  14  18   -7.60    4.80
  -1  14  17    0.32    3.09
  -1  14  16   10.99    4.28
  -1  14  15  105.97    8.43
  -1  14  14   15.46    4.40
   1  14 -13  138.94    7.45
  -1  14  13  140.99    9.10
   1  14 -12   97.66    6.20
  -1  14  12   99.11    7.72
   1  14 -11  174.40    7.71
  -1  14  11  189.50   10.02
   1  14 -10   42.89    3.99
  -1  14  10   49.06    5.63
   1  14  -9  441.70   11.36
  -1  14   9  455.16   14.66
   1  14  -8   13.15    2.36
  -1  14   8    9.08    3.07
   1  14  -7   -1.04    1.59
  -1  14   7    2.14    2.81
   1  14  -6  134.64    5.84
  -1  14   6  132.76    7.83
   1  14  -5  477.48   10.64
  -1  14   5  469.35   13.98
   1  14  -4    8.28    1.72
   1  14  -4    6.10    2.04
  -1  14   4    4.25    2.65
  -1  14   3    0.55    2.47
   1  14  -3    3.95    2.17
   1  14  -2   76.70    4.84
  -1  14   2   73.28    5.70
   1  14  -1   72.37    4.57
  -1  14   1   65.02    5.56
  -1  14   0    1.47    2.55
   1  14   0    8.93    2.57
   1  14   1  364.82   10.04
  -1  14  -1  364.03   11.94
   1  14   2   49.86    4.19
  -1  14  -2   52.76    5.10
   1  14   3    1.58    1.92
  -1  14  -3   -0.83    2.54
  -1  14  -4    7.20    2.54
  -1  14  -4    9.96    2.98
   1  14   4    9.21    2.35
  -1  14  -5  197.87    8.91
   1  14   5  189.30    7.79
  -1 -14  -5  174.09    7.29
  -1  14  -5  188.63    9.25
   1  14   6   10.94    2.57
  -1 -14  -6   10.45    2.33
   1  14   7   56.96    4.77
  -1 -14  -7   64.95    4.83
   1  14   8    1.19    2.51
  -1 -14  -8    1.65    1.87
   1  14   9  119.27    6.97
  -1 -14  -9  115.61    6.58
   1  14  10   15.39    3.39
   1  14  11   50.72    5.13
   1  14  12   71.46    5.98
   1  14  13   19.87    4.02
   1  14  14   30.41    4.58
   1  14  14   40.45    5.81
   1  14  15   85.20    7.81
   1  14  16   10.18    4.54
   1  14  17   41.38    6.28
   1  14  18   -0.81    3.91
   1  14  19   42.45    6.50
  -1  15  19  111.99    9.84
  -1  15  18   57.60    7.06
  -1  15  17    2.21    3.73
  -1  15  16   49.38    6.39
  -1  15  15   -0.38    3.29
  -1  15  14   12.12    3.85
  -1  15  13  105.44    8.33
  -1  15  12   58.85    6.22
   1  15 -11   62.90    5.00
  -1  15  11   68.07    6.70
   1  15 -10  270.53    8.66
  -1  15  10  288.99   12.42
   1  15  -9  224.42    8.41
  -1  15   9  213.62   10.57
   1  15  -8    6.39    2.20
  -1  15   8    1.16    2.76
   1  15  -7  109.45    5.65
  -1  15   7  109.09    7.59
   1  15  -6   27.84    2.90
  -1  15   6   23.75    4.07
   1  15  -5    2.07    1.56
  -1  15   5    0.88    2.59
   1  15  -5    4.41    2.25
   1  15  -4   94.28    4.99
  -1  15   4   94.53    6.66
   1  15  -4  101.17    6.09
   1  15  -3    0.28    1.36
   1  15  -3    2.01    1.99
  -1  15   3    2.33    2.70
   1  15  -2    1.25    1.83
  -1  15   2    1.10    2.39
   1  15  -1   66.90    4.85
  -1  15   1   60.60    5.62
  -1  15   0   35.97    4.68
   1  15   0   27.73    3.24
   1  15   1  114.39    6.07
  -1  15  -1  118.24    7.30
   1  15   2    3.78    2.00
  -1  15  -2    6.23    2.75
   1  15   3  120.71    6.23
  -1  15  -3  131.02    7.81
   1  15   4  240.93    8.83
  -1  15  -4  216.36   10.06
   1  15   5    3.35    2.45
  -1  15  -5    1.96    2.57
   1  15   6   25.73    3.58
  -1 -15  -6   29.58    3.53
   1  15   7    2.07    2.26
  -1 -15  -7    3.33    1.82
   1  15   8  110.59    6.70
  -1 -15  -8  102.19    6.29
   1  15   9  220.03    9.65
   1  15  10    1.26    2.35
   1  15  11   76.98    6.18
   1  15  12   14.97    3.55
   1  15  13   29.02    4.39
   1  15  14   13.27    3.75
   1  15  14   14.66    4.61
   1  15  15   46.51    6.46
   1  15  16   12.51    4.96
   1  15  17    3.77    4.26
   1  15  18   10.58    4.34
  -1  16  18   33.99    6.17
  -1  16  17    5.86    3.89
  -1  16  16  151.52   10.80
  -1  16  15  221.95   12.37
  -1  16  14   14.54    4.32
  -1  16  13    1.45    3.25
  -1  16  12   31.62    5.03
  -1  16  11   -0.46    2.88
  -1  16  10    3.70    3.16
   1  16  -9  165.65    7.53
  -1  16   9  164.44    9.67
   1  16  -8   32.64    3.42
  -1  16   8   29.73    4.63
   1  16  -7   68.90    4.65
  -1  16   7   56.05    6.04
   1  16  -6    7.59    2.02
   1  16  -6    6.93    2.56
  -1  16   6    9.77    3.37
   1  16  -5  303.84    9.29
  -1  16   5  293.19   11.90
   1  16  -5  308.84   10.96
   1  16  -4  189.95    7.31
  -1  16   4  180.73    9.36
   1  16  -4  176.98    8.10
   1  16  -3   59.26    5.04
   1  16  -3   59.29    4.28
  -1  16   3   86.50   12.36
  -1  16   2    0.50    2.65
   1  16  -2    1.05    2.03
  -1  16   1   24.28    4.12
   1  16  -1   27.11    3.59
   1  16   0    3.57    2.11
  -1  16   0    1.83    2.67
   1  16   1  240.36    9.05
  -1  16  -1  234.14   10.68
   1  16   2   24.95    3.32
  -1  16  -2   24.46    4.26
   1  16   3  135.15    7.07
  -1  16  -3  147.71    8.63
   1  16   4  151.18    7.36
  -1  16  -4  142.60    8.67
   1  16   5  199.75    8.49
  -1  16  -5  189.92    9.97
   1  16   6   27.42    3.76
  -1  16  -6   26.54    4.24
   1  16   7   32.89    4.10
  -1 -16  -7   38.98    4.09
   1  16   8    7.59    2.87
   1  16   9   37.68    4.43
   1  16  10    1.92    2.35
   1  16  11   38.18    4.75
   1  16  12    1.79    2.55
   1  16  13   42.87    5.43
   1  16  14   50.85    6.74
   1  16  14   40.29    5.44
   1  16  15   57.19    6.97
   1  16  15   54.67    6.34
   1  16  16   42.69    6.77
   1  16  17   39.28    6.29
  -1  17  17   15.64    4.43
  -1  17  16   -4.40    4.01
  -1  17  15    4.39    4.00
  -1  17  14    2.39    3.49
  -1  17  13   71.01    7.45
  -1  17  12   43.24    5.86
  -1  17  11  100.87    8.29
  -1  17  10   36.27    5.33
  -1  17   9    1.64    3.16
  -1  17   8    1.22    2.76
  -1  17   7   87.87    7.45
   1  17  -7   93.31    6.58
   1  17  -6    2.48    1.64
   1  17  -6    4.79    2.41
  -1  17   6    7.64    3.31
   1  17  -5   82.77    5.14
  -1  17   5   78.79    6.81
   1  17  -5   84.99    5.98
   1  17  -4   78.99    4.99
  -1  17   4   74.34    6.75
   1  17  -4   88.49    6.06
   1  17  -3  104.87    5.70
   1  17  -3  101.61    6.43
  -1  17   3   87.67    7.05
  -1  17   2   56.37    5.77
   1  17  -2   58.69    4.94
   1  17  -1  130.86    7.06
  -1  17   1  131.44    8.22
   1  17   0  210.80    8.80
  -1  17   0  199.69   10.15
  -1  17  -1   26.84    4.39
   1  17   1   23.96    3.44
   1  17   2    1.13    2.15
  -1  17  -2    1.45    2.62
   1  17   3  167.24    8.08
  -1  17  -3  173.37    9.56
  -1  17  -4    9.54    3.66
   1  17   4   10.15    2.67
   1  17   5  138.17    7.37
  -1  17  -5  133.80    8.81
   1  17   6    4.49    2.49
  -1  17  -6    2.05    2.88
   1  17   7   41.10    4.57
  -1  17  -7   43.92    5.66
   1  17   8   10.19    3.30
   1  17   9   77.51    6.34
   1  17  10   65.34    6.02
   1  17  11   22.04    4.25
   1  17  12   -0.63    2.51
   1  17  13   38.11    5.10
   1  17  14   58.74    7.21
   1  17  14   48.87    5.98
   1  17  15   30.90    5.99
   1  17  15   18.68    3.76
   1  17  16   27.82    5.66
   1  17  17   48.51    7.56
  -1  18  16  114.89    9.55
  -1  18  15   47.83    6.78
  -1  18  14    8.66    3.51
  -1  18  13   22.39    4.78
  -1  18  12   29.62    5.15
  -1  18  11   92.17    8.09
  -1  18  10   18.79    4.29
  -1  18   9  188.81   10.70
  -1  18   8  123.87    8.58
   1  18  -8  130.77    8.02
  -1  18   7    5.31    3.30
   1  18  -7    0.68    2.41
  -1  18   6   67.99    6.75
   1  18  -6   82.85    6.49
   1  18  -5   46.17    4.95
  -1  18   5   47.52    5.52
  -1  18   4   98.16    7.47
   1  18  -4   98.21    6.64
   1  18  -3   74.31    5.84
  -1  18   3   76.96    6.97
  -1  18   2   26.40    4.54
   1  18  -2   26.04    3.69
  -1  18   1   42.60    5.15
   1  18  -1   44.65    4.57
   1  18   0  168.64    8.18
  -1  18   0  158.23    9.31
   1  18   1  184.62    8.73
  -1  18  -1  179.61    9.87
  -1  18  -2    3.80    3.00
   1  18   2    3.93    2.40
   1  18   3   -0.89    2.09
  -1  18  -3    3.19    3.49
   1  18   4  256.82   10.33
  -1  18  -4  259.31   12.08
   1  18   5   57.72    5.11
  -1  18  -5   54.99    6.14
   1  18   6    6.56    2.72
  -1  18  -6    5.89    3.30
   1  18   7   61.33    5.51
  -1  18  -7   62.33    6.55
   1  18   8  129.95    7.92
  -1  18  -8  126.25    9.03
   1  18   9   32.62    4.52
   1  18  10  123.25    8.12
   1  18  11   45.85    5.48
   1  18  12   21.75    4.23
   1  18  13   11.47    3.64
   1  18  14  197.43   12.18
   1  18  14  195.89   11.02
   1  18  15   17.49    4.97
   1  18  15    9.78    3.78
   1  18  16   16.03    5.01
  -1  19  15    3.14    3.76
  -1  19  14   14.88    4.08
  -1  19  13   41.89    6.17
  -1  19  12    9.76    3.84
  -1  19  11   21.92    4.68
  -1  19  10   46.61    6.18
  -1  19   9   21.12    4.58
   1  19  -9   16.64    3.57
  -1  19   8  132.98    9.36
   1  19  -8  127.42    8.33
  -1  19   7   97.19    7.84
   1  19  -7  100.40    7.29
  -1  19   6   96.79    7.90
   1  19  -6  103.77    7.20
  -1  19   5    5.31    3.27
   1  19  -5    2.69    2.54
  -1  19   4  294.47   12.93
   1  19  -4  281.80   11.40
   1  19  -3   27.03    4.17
  -1  19   3   26.43    4.60
  -1  19   2    1.42    2.85
   1  19  -2    0.03    2.33
   1  19  -1   10.62    2.99
  -1  19   1   13.10    3.81
   1  19   0  287.99   11.01
  -1  19   0  251.70   12.08
   1  19   1   53.10    5.17
  -1  19  -1   53.72    5.92
   1  19   2   69.90    5.74
  -1  19  -2   78.13    7.00
  -1  19  -3   34.43    5.17
   1  19   3   33.56    4.23
   1  19   4  214.87    9.70
  -1  19  -4  218.40   11.37
   1  19   5    0.38    2.22
  -1  19  -5    7.65    3.57
   1  19   6  114.85    7.35
  -1  19  -6  103.78    8.45
   1  19   7   11.90    3.08
  -1  19  -7   14.31    4.09
   1  19   8   75.85    6.48
  -1  19  -8   69.37    7.16
   1  19   9    6.83    3.15
  -1  19  -9    5.97    3.34
   1  19  10   32.84    4.98
  -1  19 -10   35.27    5.57
   1  19  11    3.70    3.04
   1  19  12   43.73    5.30
   1  19  13    6.38    3.25
   1  19  14   16.24    4.84
   1  19  14   21.35    4.61
   1  19  15   11.10    4.57
  -1  20  14   10.09    4.23
  -1  20  13   23.07    5.10
  -1  20  12  202.62   12.19
  -1  20  11   22.53    4.88
  -1  20  10   49.17    6.42
   1  20 -10   59.16    6.29
  -1  20   9   33.61    5.70
   1  20  -9   31.96    4.64
  -1  20   8  192.40   11.52
   1  20  -8  187.56   10.40
   1  20  -7   -1.50    2.46
  -1  20   7    1.13    2.91
  -1  20   6   14.97    4.54
   1  20  -6   10.91    3.19
  -1  20   5    1.38    3.23
   1  20  -5   -0.94    2.33
   1  20  -4    8.67    3.03
  -1  20   4    5.88    3.71
   1  20  -3    0.04    2.23
  -1  20   3    0.43    3.03
   1  20  -2   76.08    6.16
  -1  20   2   72.03    6.97
   1  20  -1   18.16    3.50
  -1  20   1   14.57    5.15
   1  20   0    2.00    2.50
  -1  20   0    0.50    3.40
   1  20   1    4.52    2.65
  -1  20  -1    6.68    3.56
  -1  20  -2   40.44    5.46
   1  20   2   32.71    4.28
  -1  20  -3    5.48    3.72
   1  20   3    2.63    2.44
   1  20   4   54.94    5.41
  -1  20  -4   47.77    6.14
   1  20   5   68.81    7.94
  -1  20  -5   54.82    6.62
   1  20   6   25.40    6.85
  -1  20  -6    8.78    4.14
   1  20   7    1.87    2.37
  -1  20  -7    2.53    3.06
   1  20   8  225.93   10.91
  -1  20  -8  238.68   12.83
   1  20   9   17.19    3.89
  -1  20  -9   22.00    4.99
   1  20  10  135.25    8.92
  -1  20 -10  141.44   10.34
   1  20  11    2.50    2.93
  -1  20 -11    1.18    3.08
   1  20  14   46.80    6.97
  -1  21  12    0.91    3.82
   1  21 -12   12.87    4.63
  -1  21  11   -1.41    3.20
   1  21 -11    4.83    3.40
  -1  21  10    4.40    3.33
   1  21 -10    3.65    2.82
  -1  21   9    1.93    3.37
   1  21  -9    1.60    3.02
  -1  21   8  155.86   10.52
   1  21  -8  158.08    9.53
  -1  21   7   83.86    7.85
   1  21  -7   77.35    7.07
  -1  21   6   89.10    8.08
   1  21  -6   90.66    7.27
   1  21  -5   -0.40    2.58
  -1  21   5    4.00    2.96
  -1  21   4  229.04   12.10
   1  21  -4  238.05   10.99
   1  21  -3    0.33    2.25
  -1  21   3    3.36    3.12
   1  21  -2   30.12    4.13
  -1  21   2   41.96    6.09
  -1  21   1   21.92    4.51
   1  21  -1   17.98    3.49
   1  21   0   21.86    3.64
  -1  21   0   25.70    4.69
   1  21   1    3.82    2.67
  -1  21  -1   -2.56    3.19
   1  21   2  103.64    7.30
  -1  21  -2   98.45    8.34
   1  21   3   57.50    5.70
  -1  21  -3   47.98    6.11
   1  21   4  242.56   10.88
  -1  21  -4  239.27   12.92
   1  21   5   23.82    3.99
  -1  21  -5   23.26    4.58
   1  21   6   98.13    7.39
  -1  21  -6   98.28    8.54
   1  21   7    0.62    2.40
  -1  21  -7    0.26    3.42
  -1  21  -8    5.47    3.83
  -1  21  -9    3.07    3.19
  -1  21 -10    5.99    3.41
   1  22 -12   20.96    4.72
   1  22 -11   59.83    6.84
  -1  22  10   45.34    6.33
   1  22 -10   46.90    5.99
  -1  22   9   -4.51    3.90
   1  22  -9   -1.40    2.72
  -1  22   8   19.38    4.49
   1  22  -8   29.02    4.90
  -1  22   7    4.25    3.23
   1  22  -7    7.99    2.96
  -1  22   6   19.64    4.75
   1  22  -6   25.88    4.59
   1  22  -5    7.15    3.05
  -1  22   5    2.53    3.63
   1  22  -4   21.29    4.05
  -1  22   4   18.45    4.55
   1  22  -3    0.28    2.45
  -1  22   3    6.15    3.80
   1  22  -2   14.07    3.43
  -1  22   2    9.96    3.69
   1  22  -1   50.31    5.61
  -1  22   1   53.40    6.74
   1  22   0    3.85    2.83
  -1  22   0    0.60    3.11
   1  22   1   19.20    3.90
  -1  22  -1   17.55    4.28
   1  22   2    1.99    2.51
  -1  22  -2   -0.11    3.32
  -1  22  -3    6.35    3.49
  -1  22  -4   87.70    8.30
  -1  22  -5   16.59    4.37
  -1  22  -6    0.75    3.12
  -1  22  -7  101.22    8.98
  -1  22  -8  116.99    9.72
  -1  23   8    3.39    3.54
  -1  23   7   97.12    8.78
  -1  23   6   14.52    4.30
  -1  23   5    6.76    3.80
  -1  23   4   58.89    7.12
  -1  23   3   45.90    6.25
  -1  23   2    2.83    3.07
  -1  23   1   13.50    4.00
  -1  23   0   97.67    8.66
  -1  23  -1    2.16    3.11
  -1  23  -2   -1.68    3.29
  -1  23  -3  146.82   10.54
  -1  23  -4   47.97    6.77
  -1  23  -5   -2.02    3.53
  -1  24   3   10.68    4.09
  -1  24   2   25.01    5.05
  -1  24   1    0.16    3.49
  -1  24   0    7.35    3.70
  -1  24  -1   95.00    8.85
  -2   0  25   -3.04    4.17
  -2   0  24  253.11   13.79
  -2   0  23   -6.21    3.87
  -2   0  22   11.05    3.79
  -2   0  21    1.07    3.17
  -2   0  20  240.80   12.17
  -2   0  19   -1.69    2.85
  -2   0  18  340.14   13.01
  -2   0  18  333.38    6.30
  -2   0  17    1.60    2.75
  -2   0  17    0.12    0.98
  -2   0  16    3.84    1.50
  -2   0  16    5.41    3.31
  -2   0  15    2.24    2.81
  -2   0  15   -2.00    1.23
  -2   0  14  673.08   15.58
  -2   0  14  673.14   10.59
   2   0 -14  670.52   16.10
   2   0 -13    1.51    1.93
   2   0 -12  662.37   14.93
   2   0 -11   -0.57    1.80
  -2   0  10  107.06    5.78
   2   0 -10   99.22    5.41
   2   0  -9    1.10    1.66
  -2   0   9    1.93    2.27
  -2   0   8 1194.11   16.46
   2   0  -8 1143.48   15.97
   2   0  -7    0.25    1.58
  -2   0   7    1.71    1.97
   2   0  -6  101.59    4.41
  -2   0   6  105.33    4.65
  -2   0   5   -0.13    1.72
   2   0  -5    1.34    1.60
   2   0  -4 2035.64   16.48
  -2   0   4 2106.42   16.72
  -2   0   3   -2.34    1.65
   2   0  -3    0.25    1.28
   2   0  -2   19.21    1.86
  -2   0   2   14.91    1.77
  -2   0   1   -1.77    1.69
   2   0  -1    1.28    1.18
  -2   0   0  920.21    9.34
  -2   0   0  903.18   10.44
  -2   0  -1    0.44    1.20
  -2   0  -2  153.31    4.94
   2   0   2  151.34    5.00
  -2   0  -3    0.87    1.43
   2   0   3    0.83    1.85
   2   0   4   12.34    2.52
  -2   0  -4   15.62    2.28
  -2   0  -4   11.48    2.21
   2   0   5   -0.15    2.14
  -2   0  -5    1.07    1.92
  -2   0  -5   -0.54    1.45
   2   0   6   42.50    3.76
  -2   0  -6   43.51    3.01
  -2   0  -6   39.34    3.40
   2   0   7   -2.00    2.40
  -2   0  -7   -0.69    1.51
  -2   0  -7    0.88    2.06
   2   0   8  110.69    6.04
  -2   0  -8  113.07    5.99
  -2   0  -8  114.16    4.50
   2   0   9    0.98    2.32
  -2   0  -9    0.20    1.95
  -2   0  -9    0.22    1.22
   2   0  10  572.71   14.15
  -2   0 -10  608.31   14.60
  -2   0 -10  558.47    9.69
   2   0  11    1.11    2.54
  -2   0 -11   -1.45    1.98
   2   0  12   18.32    3.78
   2   0  13   -1.64    2.63
   2   0  14  124.69    8.08
   2   0  15   -1.76    3.09
   2   0  16   94.45    7.56
   2   0  17   -0.80    3.00
   2   0  18  158.78   10.32
   2   0  19    0.36    3.45
   2   0  20   31.62    5.71
   2   0  21   -0.37    3.22
   2   0  22  255.47   14.46
  -2  -1  25   64.96    7.74
  -2   1  25   62.63    7.48
  -2   1  24    3.78    4.14
  -2  -1  24   -3.40    3.99
  -2  -1  23   -2.48    3.80
  -2   1  23   -3.31    3.58
  -2   1  22  222.23   12.52
  -2  -1  22  199.83   11.64
  -2   1  21    5.74    3.43
  -2  -1  21    4.77    3.42
  -2   1  20  185.71   10.58
  -2  -1  20  178.88   10.17
  -2   1  19   10.66    3.87
  -2  -1  19   13.83    1.52
  -2  -1  19   11.65    3.61
  -2   1  18  263.99   11.91
  -2  -1  18  256.57   11.48
  -2  -1  18  257.29    6.07
  -2   1  17    5.84    3.15
  -2  -1  17   -0.13    2.83
  -2  -1  17    6.60    1.44
  -2   1  16  557.18   15.95
  -2  -1  16  571.30   15.33
  -2   1  16  566.52    8.95
  -2   1  15  224.08    9.74
  -2  -1  15  204.26    8.97
  -2   1  15  197.48    5.56
  -2  -1  14  171.23    8.25
   2   1 -14  160.61    8.13
  -2   1  14  160.13    5.16
   2   1 -13   16.54    3.09
   2  -1 -13   15.84    2.94
  -2  -1  13   17.72    3.08
  -2   1  13   13.23    1.77
  -2  -1  12  550.83   12.66
  -2   1  12  527.91    9.44
   2   1 -12  548.95   13.46
   2  -1 -12  557.04   13.62
  -2   1  12  538.12   13.75
  -2   1  11    4.00    1.34
  -2   1  11    0.96    2.45
   2   1 -11    5.53    2.31
   2  -1 -11    0.45    1.98
  -2   1  10   66.59    3.57
   2   1 -10   71.18    4.70
   2  -1 -10   67.62    4.62
  -2   1  10   74.74    5.07
  -2   1   9   41.93    2.92
   2  -1  -9   39.07    3.51
  -2   1   9   41.13    3.97
   2   1  -9   38.86    3.44
  -2   1   8   17.85    3.06
   2   1  -8   20.26    2.58
   2  -1  -8   22.57    2.84
  -2  -1   8   21.18    2.93
  -2  -1   7   12.48    2.33
   2   1  -7    9.56    2.12
  -2   1   7   13.73    2.72
   2  -1  -7   15.58    2.42
  -2   1   6  532.99   10.13
   2   1  -6  516.83    9.26
   2  -1  -6  524.27   10.07
  -2  -1   6  543.78    9.52
  -2   1   5  210.88    6.16
  -2  -1   5  204.73    5.61
   2  -1  -5  208.23    6.00
   2   1  -5  207.31    5.58
  -2   1   4    0.47    2.07
  -2  -1   4    0.40    1.52
   2   1  -4    1.14    1.26
   2  -1  -4    0.68    1.64
  -2  -1   3    1.99    1.31
   2  -1  -3    2.09    1.48
   2   1  -3    4.84    1.35
  -2   1   3    5.02    2.06
  -2  -1   2   55.65    2.51
   2  -1  -2   40.33    2.57
   2   1  -2   40.08    2.10
  -2   1   2   38.75    2.69
  -2   1   1  223.18    6.39
  -2   1   1  241.51    5.65
   2   1  -1  218.87    4.11
   2  -1  -1  219.53    5.19
  -2  -1   1  239.42    4.31
  -2   1   0  815.41   11.91
  -2  -1   0  800.57    9.26
  -2  -1   0  815.66    7.64
  -2   1   0  808.93    9.86
  -2   1  -1   34.66    2.77
  -2   1  -1   31.71    2.48
  -2  -1  -1   34.17    2.39
   2   1   1   32.41    2.49
  -2   1  -2    4.06    1.59
   2   1   2    2.27    1.73
  -2   1  -2    5.58    2.15
  -2  -1  -2    1.30    1.24
  -2   1  -3    8.89    1.98
   2   1   3    5.12    1.86
   2  -1   3    6.33    2.18
  -2  -1  -3   13.97    2.38
  -2   1  -3    4.72    1.77
  -2   1  -4 1354.36   16.67
  -2  -1  -4 1361.35   15.95
   2  -1   4 1346.46   16.49
   2   1   4 1363.18   15.92
  -2   1  -4 1374.63   15.41
   2  -1   5    1.00    2.29
   2   1   5   -1.03    2.14
  -2   1  -5    0.27    1.57
  -2  -1  -5   -0.19    2.14
  -2   1  -5   -0.11    1.71
  -2   1  -6  842.06   14.50
  -2  -1  -6  867.98   14.26
   2  -1   6  853.92   14.47
   2   1   6  842.15   14.20
  -2   1  -6  858.09   12.28
   2   1   7   29.09    3.38
   2  -1   7   27.22    3.34
  -2  -1  -7   29.64    2.56
  -2   1  -7   30.79    3.42
  -2  -1  -7   29.65    3.28
  -2   1  -7   27.42    2.57
   2   1   8  401.28   10.85
  -2   1  -8  405.68   11.17
  -2  -1  -8  406.88   11.00
   2  -1   8  377.59   10.72
  -2   1  -8  384.95    8.29
  -2  -1  -8  405.57    8.09
   2  -1   9   34.63    4.06
  -2  -1  -9   38.85    4.06
  -2  -1  -9   33.60    2.62
   2   1   9   32.80    3.90
  -2   1  -9   38.29    4.05
   2   1  10  395.15   11.81
  -2   1 -10  421.20   12.35
  -2  -1 -10  432.35   12.31
   2  -1  10  420.57   12.26
  -2  -1 -10  396.57    7.99
   2  -1  11    2.92    2.75
  -2  -1 -11    2.82    2.38
   2   1  11    5.92    2.95
  -2   1 -11    3.90    2.40
  -2  -1 -11    2.60    1.35
   2   1  12  221.69    9.75
   2  -1  12  218.42    9.92
   2   1  13  256.61   10.90
   2  -1  13  244.58   10.64
   2   1  14  699.13   18.19
   2  -1  14  715.81   18.46
   2  -1  15   -1.61    3.02
   2   1  15    0.59    2.83
   2  -1  16   28.34    4.73
   2   1  16   27.78    4.79
   2  -1  17  160.68   10.05
   2   1  17  180.01   10.62
   2  -1  18   -6.33    4.02
   2   1  18    6.74    4.07
   2  -1  19   -1.30    3.20
   2   1  19    2.85    3.36
   2  -1  20   47.34    6.61
   2   1  20   38.18    6.43
   2   1  21   11.10    4.10
   2  -1  21   11.61    4.31
   2   1  22   23.18    5.65
   2  -1  22   29.99    5.90
  -2  -2  25   12.37    4.99
  -2   2  24   28.57    5.87
  -2  -2  24   34.58    5.98
  -2   2  23   38.33    6.36
  -2  -2  23   39.66    6.02
  -2  -2  22   25.76    4.95
  -2   2  22   33.39    5.73
  -2  -2  21   57.86    6.23
  -2   2  21   61.20    6.96
  -2   2  20    2.02    3.56
  -2  -2  20    5.61    3.17
  -2   2  19   35.52    5.35
  -2  -2  19   27.35    2.16
  -2  -2  19   29.76    4.61
  -2   2  18  147.41    8.96
  -2  -2  18  135.54    8.17
  -2   2  17    4.58    3.50
  -2  -2  17    1.43    2.76
  -2  -2  16    0.04    2.82
  -2   2  16    5.59    3.26
  -2  -2  15  198.04    8.64
  -2  -2  14  224.97    9.00
   2   2 -14  222.47    9.37
  -2   2  14  223.30    5.99
  -2  -2  13   75.30    5.18
   2  -2 -13   76.41    5.65
  -2   2  13   75.28    5.83
   2   2 -13   71.84    5.47
  -2   2  13   77.40    3.67
  -2  -2  12   53.81    4.36
  -2   2  12   47.47    3.02
  -2   2  12   47.22    4.70
   2   2 -12   52.07    4.51
   2  -2 -12   45.48    4.23
  -2  -2  11   12.96    2.91
  -2   2  11   12.14    1.99
   2  -2 -11   13.30    2.51
   2   2 -11   15.51    2.84
  -2   2  11   12.84    3.10
  -2  -2  10   16.22    2.68
  -2   2  10    8.89    1.72
  -2   2  10   12.56    3.06
   2  -2 -10    3.69    2.01
   2   2 -10    8.84    2.22
  -2   2   9   13.67    2.02
  -2   2   9   11.57    2.74
   2   2  -9   13.58    2.59
   2  -2  -9   13.56    2.50
  -2   2   8 2762.02   21.76
   2   2  -8 2787.69   24.08
   2  -2  -8 2762.49   25.93
  -2   2   8 2764.36   26.16
  -2   2   7  180.61    5.72
   2   2  -7  176.34    5.85
  -2   2   7  182.29    6.75
   2  -2  -7  176.25    6.42
  -2   2   6   41.79    3.17
  -2   2   6   41.22    3.46
   2   2  -6   44.32    2.99
   2  -2  -6   38.82    3.32
  -2   2   5  182.58    5.88
  -2   2   5  193.26    6.24
   2   2  -5  186.57    5.10
  -2  -2   5  192.51    5.26
   2  -2  -5  194.06    6.08
  -2   2   4 1610.51   16.82
  -2  -2   4 1629.68   13.23
  -2   2   4 1644.30   16.68
   2   2  -4 1583.07   13.00
   2  -2  -4 1600.48   16.40
  -2   2   3   41.72    3.20
   2   2  -3   39.10    2.05
  -2  -2   3   49.03    2.38
  -2   2   3   42.50    3.17
   2  -2  -3   43.65    2.92
  -2   2   2  141.78    5.27
  -2  -2   2  148.98    3.25
  -2   2   2  137.33    4.81
   2   2  -2  135.14    3.08
   2  -2  -2  141.88    4.76
  -2  -2   1  814.43    7.93
  -2   2   1  855.87   12.39
  -2  -2   1  812.70    6.49
  -2   2   1  857.52   11.13
   2   2  -1  809.38    6.42
   2  -2  -1  831.90   10.79
  -2   2   0 1284.38   15.13
  -2  -2   0 1259.68   10.78
  -2   2   0 1308.51   13.64
  -2  -2   0 1239.06    7.89
  -2   2  -1   97.40    4.39
  -2  -2  -1   86.61    3.29
   2   2   1   90.84    3.40
  -2   2  -1   87.84    4.20
  -2   2  -2  152.24    5.48
  -2  -2  -2  147.83    4.44
   2   2   2  152.13    4.67
  -2   2  -2  157.92    5.60
   2   2   3    6.95    1.96
  -2   2  -3    8.51    2.13
  -2  -2  -3   -0.73    2.49
  -2   2  -3   11.09    2.30
   2  -2   4    2.31    2.19
  -2   2  -4    1.76    1.83
   2   2   4    4.65    2.11
  -2   2  -4    0.45    1.61
  -2  -2  -4    3.78    1.58
   2  -2   5   27.37    3.22
  -2   2  -5   26.86    3.13
   2   2   5   25.67    3.06
  -2   2  -5   30.67    2.93
  -2  -2  -5   27.45    2.94
   2  -2   6   43.12    3.87
  -2  -2  -6   48.16    3.77
   2   2   6   39.49    3.71
  -2   2  -6   40.25    3.24
  -2   2  -6   35.77    3.44
   2   2   7  159.60    6.70
  -2   2  -7  159.00    6.91
   2  -2   7  144.04    6.67
  -2  -2  -7  158.32    6.58
   2  -2   8    5.50    2.66
  -2   2  -8    9.89    2.65
  -2  -2  -8   13.54    2.84
   2   2   8    6.82    2.69
  -2  -2  -9  736.57   15.44
  -2   2  -9  751.02   15.96
   2  -2   9  704.31   15.20
   2   2   9  699.57   14.92
  -2  -2  -9  752.20   10.94
   2  -2  10   -1.52    2.62
  -2   2 -10   -2.27    2.31
  -2  -2 -10    3.71    2.87
  -2  -2 -10    0.11    1.16
   2   2  10    0.49    2.38
   2  -2  11    4.60    2.84
  -2   2 -11    7.61    2.57
  -2  -2 -11    8.80    1.61
   2   2  11    6.18    2.89
  -2  -2 -11   10.38    3.01
   2   2  12   91.88    6.62
   2  -2  12   87.43    6.34
  -2  -2 -12   90.14    5.94
  -2  -2 -12   88.31    3.74
   2  -2  13   20.01    4.08
  -2  -2 -13   25.98    3.77
   2   2  13   24.88    4.28
   2   2  14  548.92   16.18
   2  -2  14  529.82   15.97
   2  -2  15   -3.03    3.04
   2   2  15    3.67    3.03
   2   2  16   93.55    7.51
   2  -2  16   85.77    7.21
   2  -2  17   -2.61    3.35
   2   2  17    2.10    3.26
   2   2  18  547.54   18.46
   2  -2  18  539.61   18.43
   2  -2  19  150.37   10.38
   2   2  19  145.79   10.35
   2  -2  20   29.52    5.56
   2   2  20   25.80    5.16
   2  -2  21    0.24    3.83
   2   2  21    5.30    4.14
   2   2  22  249.35   14.31
   2  -2  22  248.39   14.30
  -2  -3  25   60.86    7.43
  -2  -3  24   43.83    6.51
  -2   3  24   44.32    6.80
  -2   3  23   13.89    4.35
  -2  -3  23   11.71    3.98
  -2  -3  22  275.79   13.20
  -2   3  22  297.71   15.30
  -2   3  21   15.64    4.75
  -2  -3  21   11.95    3.73
  -2   3  20   84.66    7.83
  -2  -3  20   66.47    6.47
  -2   3  19  186.91   11.09
  -2  -3  19  180.64    9.70
  -2  -3  18   15.80    3.40
  -2   3  18   34.88    5.20
  -2  -3  17    6.76    2.88
  -2   3  17   17.75    5.50
  -2  -3  16  192.83    8.89
  -2  -3  15  477.87   13.14
  -2   3  14    9.61    3.41
   2   3 -14   11.83    3.05
  -2  -3  14    6.65    2.56
  -2   3  13   30.62    4.15
   2  -3 -13   38.37    4.25
   2   3 -13   41.64    4.32
  -2  -3  13   28.78    3.46
  -2  -3  12  358.43    9.91
  -2   3  12  365.54   11.64
   2   3 -12  362.40   10.94
   2  -3 -12  353.71   11.27
  -2  -3  11   -0.04    2.06
  -2   3  11    2.99    1.57
  -2   3  11    2.23    2.68
   2   3 -11    1.28    1.75
  -2  -3  10   24.55    2.80
  -2   3  10   24.73    2.38
   2   3 -10   25.13    2.99
  -2   3  10   30.43    3.68
   2  -3 -10   28.05    3.34
  -2  -3   9  101.78    4.61
  -2   3   9   94.46    4.41
  -2   3   9  103.93    5.88
   2  -3  -9  104.76    5.69
   2   3  -9  102.61    5.10
  -2   3   8    6.29    1.74
  -2  -3   8    6.90    1.97
  -2   3   8    3.62    2.39
   2   3  -8    8.22    2.13
   2  -3  -8    5.46    2.01
  -2   3   7  126.89    4.97
   2  -3  -7  131.60    5.74
  -2   3   7  130.07    5.92
   2   3  -7  126.34    4.98
  -2   3   6    5.15    2.11
  -2   3   6    2.78    2.35
   2   3  -6    5.26    1.74
   2  -3  -6    2.77    1.81
  -2   3   5 1377.74   15.97
   2   3  -5 1345.24   12.99
  -2   3   5 1374.80   16.69
   2  -3  -5 1347.67   16.38
  -2   3   4   74.22    4.11
   2   3  -4   70.61    2.78
  -2   3   4   80.72    4.41
   2  -3  -4   75.69    3.99
   2  -3  -3  135.96    5.34
  -2   3   3  136.22    5.29
   2   3  -3  131.29    3.21
  -2   3   3  136.47    5.25
   2  -3  -3  133.14    5.06
  -2  -3   2  139.99    2.63
   2  -3  -2  138.43    5.40
  -2   3   2  148.86    5.52
   2   3  -2  141.66    2.72
   2  -3  -2  142.01    5.04
  -2   3   2  142.38    5.30
  -2   3   1    0.77    1.97
   2  -3  -1    1.30    1.91
  -2  -3   1   -0.34    0.83
  -2   3   1    1.31    2.04
   2  -3  -1    1.54    1.58
  -2   3   0  150.43    5.58
   2  -3   0  146.67    5.69
  -2  -3   0  158.88    3.60
  -2   3   0  153.36    5.41
   2   3   0  144.86    3.50
  -2   3  -1   13.46    2.42
  -2  -3  -1   11.18    1.49
   2  -3   1    9.49    2.01
   2   3   1   10.89    1.52
  -2   3  -2  172.79    5.96
   2  -3   2  175.16    6.10
  -2  -3  -2  179.10    4.75
  -2   3  -2  179.57    6.15
   2   3   2  173.68    4.89
  -2   3  -3  754.54   12.31
   2  -3   3  750.33   12.17
   2   3   3  773.16   10.79
  -2  -3  -3  766.40   10.76
  -2   3  -3  764.64   12.88
   2  -3   4  263.22    7.42
   2   3   4  266.42    7.01
  -2  -3  -4  274.21    6.94
  -2   3  -4  273.76    8.13
   2  -3   5   85.06    4.42
   2   3   5   88.22    4.70
  -2  -3  -5   91.04    4.57
  -2   3  -5   88.92    5.07
   2  -3   5   80.62    4.80
  -2   3  -6   86.18    5.10
   2   3   6   79.99    4.72
   2  -3   6   77.87    5.04
  -2  -3  -6   81.20    4.65
   2  -3   6   72.79    4.00
  -2   3  -7  579.14   13.06
   2   3   7  529.68   11.79
  -2  -3  -7  556.33   12.02
   2  -3   7  549.67   12.54
   2  -3   7  533.76   10.43
  -2  -3  -8 1153.63   18.30
   2   3   8 1126.76   17.86
  -2   3  -8 1172.41   19.25
   2  -3   8 1144.05   18.82
  -2  -3  -8 1096.38   15.78
   2  -3   8 1122.03   15.04
  -2  -3  -9   81.42    5.42
   2   3   9   79.14    5.49
  -2   3  -9   80.17    5.50
   2  -3   9   76.34    5.58
  -2  -3  -9   78.37    4.57
   2  -3   9   74.99    4.07
   2  -3  10   18.94    3.30
  -2  -3 -10   23.31    3.06
  -2   3 -10   24.34    3.54
   2   3  10   22.53    3.47
   2   3  11  245.94    9.88
  -2   3 -11  272.77   10.50
   2  -3  11  240.88    9.80
  -2  -3 -11  261.30    9.13
  -2  -3 -11  260.39    6.42
   2   3  12  492.95   14.31
   2  -3  12  478.89   14.30
  -2  -3 -12  490.57   12.83
  -2  -3 -12  510.53    8.61
   2   3  13  414.48   13.70
   2  -3  13  409.83   13.72
  -2  -3 -13  421.25   12.70
  -2  -3 -13  433.99    7.71
   2  -3  14   19.64    4.02
   2   3  14   23.31    4.24
   2  -3  15   10.32    3.58
   2   3  15   17.55    4.17
   2  -3  16    4.12    3.00
   2   3  16   11.65    3.94
   2  -3  17   14.00    3.94
   2   3  17   17.11    4.31
   2   3  18  157.49   10.21
   2  -3  18  151.03   10.06
   2  -3  19    1.56    3.51
   2   3  19    4.68    3.49
   2  -3  20    4.40    3.42
   2   3  20   -1.34    3.36
   2   3  21   82.25    8.55
   2  -3  21   84.05    8.50
   2  -3  22    1.39    3.67
   2   3  22   15.33    4.72
  -2  -4  25  -10.57    5.08
  -2   4  24    4.08    4.05
  -2  -4  24    2.92    3.53
  -2   4  23   40.01    6.33
  -2  -4  23   32.86    5.52
  -2  -4  22   67.89    7.06
  -2   4  22   72.32    7.79
  -2   4  21   39.40    5.99
  -2  -4  21   32.02    4.98
  -2   4  20    5.68    3.94
  -2  -4  20   -0.17    3.01
  -2  -4  19   30.63    4.66
  -2   4  19   25.16    5.19
  -2   4  18  120.32    8.60
  -2  -4  18  109.54    7.37
  -2  -4  17  160.82    8.36
  -2  -4  16   15.40    3.23
  -2  -4  15    9.12    2.63
  -2   4  15    8.78    3.46
  -2  -4  14   44.24    4.12
  -2   4  14   50.01    5.19
   2   4 -14   51.72    4.85
  -2  -4  13   20.27    2.87
  -2   4  13   20.85    3.64
   2   4 -13   23.80    3.36
  -2  -4  12   21.06    2.85
   2   4 -12   23.00    3.30
  -2   4  12   25.57    3.88
   2  -4 -12   21.63    3.34
  -2  -4  11   85.22    4.63
   2   4 -11   86.58    5.31
  -2   4  11   87.36    6.01
   2  -4 -11   86.54    5.55
  -2  -4  10  137.70    5.43
   2   4 -10  134.80    6.08
   2  -4 -10  137.90    6.74
  -2   4  10  141.47    7.16
  -2  -4   9    5.88    1.70
  -2   4   9    5.78    2.51
   2   4  -9    8.02    2.08
   2  -4  -9   11.66    2.66
  -2  -4   8 1664.83   15.55
   2  -4  -8 1647.06   21.19
  -2   4   8 1671.58   21.42
   2   4  -8 1642.90   18.42
  -2  -4   7  496.04    7.75
   2   4  -7  485.46    9.43
  -2   4   7  504.26   11.55
   2  -4  -7  497.26   11.39
  -2  -4   6    7.13    1.29
  -2   4   6   11.03    2.33
   2  -4  -6    9.18    1.95
   2   4  -6    6.77    1.71
  -2   4   6    5.74    2.33
   2  -4  -6    9.16    2.16
  -2  -4   5  347.77    4.85
  -2   4   5  376.85    8.81
   2  -4  -5  358.12    8.59
   2   4  -5  355.84    6.75
  -2   4   5  366.08    9.22
   2  -4  -5  365.43    9.05
  -2  -4   4   73.04    1.80
  -2   4   4   76.02    4.30
   2  -4  -4   74.81    4.30
  -2   4   4   75.14    4.38
   2   4  -4   76.11    2.85
   2  -4  -4   69.65    4.19
  -2   4   3   25.15    3.04
   2  -4  -3   21.51    2.61
   2   4  -3   20.53    1.42
   2  -4  -3   21.61    2.52
  -2   4   3   21.55    2.80
  -2   4   2  775.89   12.66
   2  -4  -2  785.03   12.68
   2   4  -2  763.99    5.51
   2  -4  -2  783.23   12.32
  -2   4   2  798.83   12.45
   2  -4  -1  316.57    8.22
  -2  -4   1  331.37    3.72
  -2   4   1  308.32    7.94
   2  -4   0  349.53    8.66
   2   4   0  341.39    4.85
  -2  -4   0  362.69    4.96
  -2   4   0  361.22    8.48
   2  -4   1  116.82    5.22
   2   4   1  118.73    3.49
  -2  -4  -1  123.45    3.43
  -2   4  -1  115.29    5.09
  -2  -4  -2   37.17    2.14
   2   4   2   42.89    2.65
   2  -4   2   39.17    3.32
  -2  -4  -2   46.82    1.62
  -2   4  -2   42.03    3.35
  -2  -4  -3  876.89   11.35
   2   4   3  854.55   11.27
  -2   4  -3  843.64   13.92
  -2  -4  -3  851.73    8.04
   2  -4   3  858.68   13.55
  -2  -4  -4   38.12    3.29
  -2   4  -4   20.69    2.87
  -2  -4  -4   23.15    1.84
   2  -4   4   21.34    2.72
   2   4   4   21.74    2.67
  -2  -4  -5  289.60    7.78
   2   4   5  275.21    7.66
  -2   4  -5  277.63    8.74
   2  -4   5  266.93    7.78
  -2  -4  -5  281.15    6.11
   2   4   6  133.58    5.92
  -2   4  -6  131.30    6.36
   2  -4   6  128.61    5.54
  -2  -4  -6  131.65    4.66
   2  -4   6  123.09    6.11
   2  -4   7    0.60    2.29
  -2  -4  -7    4.69    1.40
   2   4   7    6.94    2.56
  -2   4  -7    5.00    2.03
   2  -4   7    4.02    1.62
  -2   4  -8  217.08    8.60
   2   4   8  199.95    7.76
   2  -4   8  203.18    8.27
  -2  -4  -8  196.27    6.70
   2  -4   8  195.66    6.68
  -2   4  -9 1033.91   19.09
   2   4   9  986.88   17.68
   2  -4   9  981.03   18.29
  -2  -4  -9  977.13   15.47
   2  -4   9  968.54   14.68
   2  -4  10   -0.67    2.55
  -2  -4 -10    6.40    2.10
   2   4  10    6.30    2.86
  -2   4 -10    2.61    2.00
   2  -4  10    4.01    1.61
   2  -4  11    5.28    2.75
  -2  -4 -11    8.89    2.42
   2   4  11    9.05    3.10
   2  -4  11    7.49    1.76
   2  -4  12   23.04    4.04
  -2  -4 -12   17.59    2.91
   2  -4  12   21.34    2.48
   2   4  12   16.80    3.70
   2   4  13  467.85   14.62
   2  -4  13  456.76   14.50
  -2  -4 -13  455.05   13.03
  -2  -4 -13  498.41    8.42
   2  -4  14    2.77    2.88
   2   4  14    6.43    3.55
  -2  -4 -14    4.63    1.26
   2   4  15  286.20   12.40
   2  -4  15  265.89   11.92
   2  -4  16   20.33    4.29
   2   4  16   29.07    4.98
   2  -4  17   -2.78    3.19
   2   4  17    1.89    3.29
   2  -4  18   35.42    5.35
   2   4  18   45.66    6.32
   2   4  19  162.18   10.76
   2  -4  19  149.56   10.37
   2  -4  20    3.71    3.71
   2   4  20    1.30    3.58
   2  -4  21   55.66    7.06
   2   4  21   56.37    7.53
  -2  -5  26   11.48    4.56
  -2  -5  25   25.18    5.23
  -2  -5  24   51.67    6.52
  -2  -5  23   73.92    7.52
  -2   5  23   83.75    8.91
  -2   5  22   35.27    6.58
  -2  -5  22   24.75    4.61
  -2   5  21  147.82   10.70
  -2  -5  21  145.86    9.38
  -2   5  20   99.35    8.53
  -2  -5  20   89.87    7.12
  -2   5  19  110.46    9.02
  -2  -5  19  114.69    7.78
  -2  -5  18   14.93    3.30
  -2  -5  17    1.37    2.55
  -2   5  16    2.31    3.33
  -2  -5  16    5.93    2.76
  -2  -5  15  200.66    8.58
  -2   5  15  206.18   10.19
  -2   5  14   42.39    5.03
   2   5 -14   42.00    4.47
  -2  -5  14   42.05    4.02
  -2  -5  13  224.42    8.07
  -2   5  13  221.51    9.81
   2   5 -13  222.19    9.18
  -2  -5  12   46.18    3.77
   2   5 -12   50.00    4.58
  -2   5  12   51.39    5.13
   2  -5 -12   52.88    4.75
  -2  -5  11  458.31   10.03
   2  -5 -11  455.87   12.76
   2   5 -11  439.97   11.58
  -2   5  11  448.47   12.91
  -2  -5  10  229.99    6.74
  -2   5  10  231.14    9.18
   2   5 -10  216.37    7.71
   2  -5 -10  227.26    8.77
  -2  -5   9  147.74    4.99
   2  -5  -9  146.77    6.92
  -2   5   9  142.32    7.05
   2   5  -9  146.91    6.15
  -2  -5   8  179.85    5.03
   2  -5  -8  171.86    6.22
  -2   5   8  177.69    7.52
   2   5  -8  173.57    6.17
   2  -5  -8  180.04    7.39
   2  -5  -7    7.57    1.84
  -2  -5   7    6.66    1.40
   2   5  -7    5.28    1.60
  -2   5   7    4.30    2.48
   2  -5  -7    3.79    1.89
  -2  -5   6   72.07    2.50
   2  -5  -6   69.70    4.14
   2   5  -6   71.55    3.49
  -2   5   6   79.69    4.95
   2  -5  -6   72.25    4.52
  -2  -5   5  170.31    2.83
   2  -5  -5  165.40    6.13
   2   5  -5  159.52    4.65
  -2   5   5  164.76    6.65
   2  -5  -5  174.79    6.58
   2  -5  -4   89.94    4.71
   2   5  -4   88.49    3.09
  -2   5   4   86.96    4.91
   2  -5  -4   89.40    4.92
   2  -5  -3  456.18   10.13
   2   5  -3  440.40    5.62
  -2   5   3  466.38   10.29
   2  -5  -3  440.36    9.96
   2  -5  -2   58.20    3.98
   2   5  -2   60.09    1.64
   2  -5  -2   60.45    3.92
  -2   5   2   64.24    4.24
   2  -5  -1    5.02    2.16
  -2   5   1    8.25    2.55
   2  -5   0  573.77   11.51
   2   5   0  565.34    5.99
  -2   5   0  562.01   11.08
   2  -5   1  908.27   14.44
   2   5   1  915.89    9.22
  -2   5  -1  933.46   14.15
   2   5   2    5.40    1.45
   2  -5   2    3.83    1.97
  -2   5  -2    4.15    2.18
  -2  -5  -2    6.37    0.81
  -2   5  -3   18.13    2.73
  -2  -5  -3   18.18    1.38
   2  -5   3   15.00    2.49
   2   5   3   15.58    2.02
  -2   5  -4    1.33    1.96
  -2  -5  -4   -0.19    1.00
   2  -5   4    1.40    1.72
   2   5   4   -1.18    1.74
  -2   5  -5    8.52    2.27
  -2  -5  -5   10.97    1.70
   2  -5   5   10.46    2.36
   2   5   5    8.98    2.14
   2   5   6  202.45    7.01
  -2   5  -6  216.41    8.18
   2  -5   6  190.77    7.00
  -2  -5  -6  193.09    5.65
  -2   5  -7  791.74   15.88
   2   5   7  778.19   14.27
   2  -5   7  764.46   13.67
  -2  -5  -7  749.75   11.84
   2  -5   7  771.02   15.36
  -2   5  -8  153.95    7.44
   2  -5   8  148.55    7.24
   2   5   8  142.67    6.68
  -2  -5  -8  143.86    5.64
   2  -5   8  131.05    5.92
  -2   5  -9  118.84    6.85
   2  -5   9  107.28    6.51
   2   5   9  101.14    6.00
  -2  -5  -9  112.14    5.30
   2  -5   9  101.58    5.16
   2  -5  10    7.26    2.80
  -2  -5 -10   10.22    2.54
   2  -5  10    7.18    1.93
  -2   5 -10    7.13    2.45
   2   5  10   -0.76    2.53
   2   5  11  595.16   15.21
   2  -5  11  606.68   15.73
  -2  -5 -11  621.30   13.61
   2  -5  11  597.83   12.16
   2   5  12  190.91    9.15
   2  -5  12  205.45    9.80
  -2  -5 -12  209.54    8.54
   2  -5  12  210.88    7.36
   2   5  13   88.41    6.70
   2  -5  13   83.10    6.72
  -2  -5 -13   85.20    5.87
   2  -5  13   79.34    4.61
   2  -5  14    7.99    3.47
   2  -5  14    1.56    1.33
  -2  -5 -14    2.84    1.16
   2   5  14    4.17    2.85
   2  -5  15   26.32    4.72
  -2  -5 -15   19.46    1.73
   2   5  15   23.32    4.69
   2   5  16   97.97    7.90
   2  -5  16   95.92    7.75
   2   5  17  169.98   10.42
   2  -5  17  168.51   10.39
   2  -5  18    2.63    3.66
   2   5  18    5.44    3.96
   2  -5  19   22.65    5.01
   2   5  19   24.24    5.31
   2  -5  20    7.64    4.14
   2   5  20    6.19    4.67
   2   5  21  321.83   15.99
   2  -5  21  296.66   15.14
  -2  -6  26   -0.13    3.52
  -2  -6  25   19.35    4.81
  -2  -6  24    7.62    3.72
  -2  -6  23  127.38    9.19
  -2   6  23  141.33   11.18
  -2   6  22   24.99    5.72
  -2  -6  22   20.32    4.38
  -2  -6  21   20.85    4.35
  -2   6  21   28.84    5.48
  -2  -6  20   50.78    5.59
  -2   6  20   53.12    7.08
  -2  -6  19   14.68    3.43
  -2  -6  18   19.80    3.97
  -2  -6  17  308.53   11.19
  -2   6  17  313.04   13.38
  -2  -6  16  132.01    7.21
  -2   6  16  128.60    8.63
  -2   6  15    2.43    2.96
  -2  -6  15    0.26    2.07
  -2  -6  14  397.68   11.10
  -2   6  14  405.35   13.78
  -2  -6  13  674.37   13.58
   2   6 -13  670.21   15.72
  -2   6  13  688.81   17.20
  -2  -6  12    3.61    1.91
   2   6 -12    4.58    2.41
  -2   6  12    0.00    2.54
  -2  -6  11   38.09    2.91
  -2   6  11   41.60    4.59
   2  -6 -11   47.36    4.53
   2   6 -11   44.56    4.03
  -2  -6  10   17.55    2.28
   2  -6 -10   17.11    2.38
  -2   6  10   20.17    3.59
   2   6 -10   16.61    2.56
   2  -6 -10   18.42    3.22
  -2  -6   9  104.33    4.14
   2  -6  -9  102.94    4.91
  -2   6   9  107.76    6.33
   2   6  -9  103.83    5.15
   2  -6  -9  107.32    6.09
  -2  -6   8   36.64    2.32
   2  -6  -8   39.34    3.25
  -2   6   8   38.11    4.07
   2  -6  -8   38.98    3.87
  -2  -6   7  697.60    8.20
   2  -6  -7  681.90   12.65
  -2   6   7  701.39   14.40
   2  -6  -7  703.11   14.45
  -2  -6   6  483.36    5.61
   2  -6  -6  467.09   10.55
  -2   6   6  493.61   11.82
   2  -6  -6  482.48   11.66
   2  -6  -5    7.35    2.09
   2  -6  -5    4.81    2.02
  -2   6   5    7.29    2.71
   2  -6  -4  522.21   11.23
  -2   6   4  517.40   11.42
   2  -6  -4  517.90   11.43
   2  -6  -3  576.45   11.89
  -2   6   3  594.94   12.16
   2  -6  -3  591.00   12.07
   2  -6  -2   38.42    3.49
   2  -6  -2   38.75    3.39
  -2   6   2   33.11    3.53
   2  -6  -1  666.60   12.81
  -2   6   1  668.22   12.68
   2   6   0   12.09    1.17
   2  -6   0   13.45    2.62
  -2   6   0   14.37    2.73
   2  -6   1  279.08    8.46
   2   6   1  266.62    5.12
  -2   6  -1  285.57    8.34
   2  -6   2  345.94    9.45
   2   6   2  348.95    6.66
  -2  -6  -2  367.36    4.27
   2   6   3 1647.89   15.91
   2  -6   3 1595.24   20.29
  -2  -6  -3 1689.48   11.04
  -2   6  -3 1705.00   21.15
   2   6   4   68.72    3.82
  -2   6  -4   74.99    4.95
  -2  -6  -4   73.61    2.88
   2  -6   4   76.35    4.71
   2   6   5  684.15   11.97
  -2   6  -5  723.40   14.62
  -2  -6  -5  689.67    9.39
   2  -6   5  682.04   13.34
   2   6   6  466.84   10.64
  -2   6  -6  492.04   12.48
  -2  -6  -6  459.35    8.43
   2  -6   6  465.34   11.06
  -2   6  -7    0.61    1.84
  -2  -6  -7    3.30    1.65
   2  -6   7    1.94    1.69
   2   6   7   -0.71    2.22
   2  -6   8   27.62    3.81
  -2   6  -8   33.44    3.84
   2   6   8   30.66    3.46
   2  -6   8   34.68    3.37
  -2  -6  -8   26.57    2.79
  -2   6  -9  324.49   11.15
   2   6   9  295.78    9.99
   2  -6   9  306.90    9.37
  -2  -6  -9  327.15    8.89
   2  -6   9  308.39   10.80
   2  -6  10   12.89    3.08
  -2  -6 -10   16.78    2.81
   2   6  10   10.28    2.85
   2  -6  10   13.73    2.28
  -2   6 -10   17.38    3.37
   2   6  11   79.36    5.91
   2  -6  11   84.61    6.37
  -2  -6 -11   79.02    5.26
   2  -6  11   84.80    5.05
   2  -6  12  246.43   10.51
   2   6  12  239.33   10.24
  -2  -6 -12  242.05    9.03
   2  -6  12  230.97    8.12
   2   6  13  250.05   10.93
   2  -6  13  240.68   10.78
  -2  -6 -13  248.05    9.61
   2  -6  13  245.25    8.27
   2  -6  14   29.50    4.91
   2   6  14   22.22    3.90
   2  -6  14   20.93    2.76
   2   6  15  475.93   16.16
   2  -6  15  456.14   15.64
  -2  -6 -15  508.12    8.25
   2  -6  15  452.87   11.20
   2  -6  16   67.28    6.63
   2  -6  16   62.39    4.33
  -2  -6 -16   68.24    2.71
   2   6  16   52.23    5.90
   2  -6  17   -0.32    3.26
   2   6  17   10.13    4.02
   2  -6  18   36.65    5.65
   2   6  18   48.28    6.57
   2  -6  19    8.22    3.82
   2   6  19   12.52    4.40
   2  -6  20    5.58    4.14
   2   6  20    8.53    4.16
   2  -6  21   53.80    7.13
   2   6  21   49.06    6.78
  -2  -7  25   47.76    6.35
  -2  -7  24   39.36    5.82
  -2  -7  23   15.34    4.03
  -2   7  23   16.73    5.20
  -2   7  22  110.58    9.98
  -2  -7  22   92.54    7.71
  -2  -7  21   40.91    5.32
  -2   7  21   54.06    7.04
  -2  -7  20   77.58    6.69
  -2  -7  19  146.89    8.52
  -2  -7  18   19.02    3.59
  -2   7  18    8.38    3.53
  -2  -7  17   58.43    5.15
  -2   7  17   64.07    6.90
  -2  -7  16   97.55    6.24
  -2   7  16   82.79    7.20
  -2  -7  15  273.96    9.57
  -2   7  15  282.23   12.12
  -2  -7  14   44.60    4.12
  -2   7  14   44.28    5.25
  -2  -7  13   72.55    4.64
   2   7 -13   74.45    5.50
  -2   7  13   71.87    6.23
  -2  -7  12  155.25    6.26
   2   7 -12  159.43    7.60
  -2   7  12  150.57    8.29
  -2  -7  11    2.55    1.51
   2  -7 -11   -0.27    1.51
  -2   7  11    1.69    2.69
  -2  -7  10   50.24    3.21
   2  -7 -10   54.76    3.89
  -2   7  10   47.24    4.84
   2  -7 -10   53.47    4.88
  -2  -7   9  813.45   11.02
   2  -7  -9  803.70   14.18
  -2   7   9  793.52   16.66
   2  -7  -9  822.08   16.88
  -2  -7   8  246.80    5.51
   2  -7  -8  251.95    8.03
  -2   7   8  256.72    9.43
   2  -7  -8  266.46    9.53
  -2  -7   7  651.42    7.69
   2  -7  -7  646.08   12.96
  -2   7   7  673.25   14.55
   2  -7  -7  660.32   14.35
   2  -7  -6  478.73   11.21
  -2   7   6  481.57   12.10
   2  -7  -6  490.78   11.96
   2  -7  -5  471.12   11.15
  -2   7   5  466.23   11.67
   2  -7  -5  480.48   11.79
   2  -7  -4  131.64    6.05
  -2   7   4  122.48    6.26
   2  -7  -4  142.21    6.35
   2  -7  -3  388.50   10.19
   2  -7  -3  417.99   10.58
  -2   7   3  387.58   10.26
   2  -7  -2 1203.05   17.80
  -2   7   2 1190.31   17.71
   2  -7  -2 1221.07   17.54
   2  -7  -1  342.89    9.74
   2   7  -1  353.54    3.70
  -2   7   1  355.22    9.75
   2   7  -1  329.10    4.07
   2   7   0   71.33    2.39
   2  -7   0   71.67    4.81
   2   7   0   77.97    1.82
  -2   7   0   76.62    4.91
   2   7   1  270.53    5.34
   2  -7   1  280.57    8.92
   2   7   1  280.15    3.67
  -2   7  -1  281.58    8.88
   2   7   2  482.89    8.01
   2  -7   2  503.89   11.84
   2   7   2  510.08    5.77
  -2  -7  -2  492.27    5.60
   2  -7   3  510.80   12.03
   2   7   3  497.36    8.98
  -2   7  -3  515.68   12.17
  -2  -7  -3  505.42    6.53
   2   7   4    9.12    1.89
   2  -7   4    9.73    2.32
  -2   7  -4    8.65    2.36
  -2  -7  -4    9.22    1.33
   2   7   5  107.50    5.01
  -2   7  -5  121.25    6.40
   2  -7   5  110.94    5.81
  -2  -7  -5  106.53    3.87
   2   7   6   19.50    2.82
   2  -7   6   16.45    2.78
  -2   7  -6   21.93    3.21
  -2  -7  -6   15.66    1.95
   2   7   7  205.26    7.65
  -2   7  -7  222.30    8.94
  -2  -7  -7  201.99    6.25
   2  -7   7  204.01    7.80
   2   7   8   60.88    4.79
  -2   7  -8   68.02    5.33
  -2  -7  -8   63.91    3.98
   2  -7   8   56.64    4.34
   2  -7   9   26.22    3.86
   2  -7   9   19.71    2.99
  -2   7  -9   24.50    3.71
   2   7   9   22.93    3.45
  -2  -7  -9   24.11    2.72
   2   7  10   75.34    5.56
   2  -7  10   69.93    4.86
  -2  -7 -10   72.82    4.62
   2  -7  10   64.66    5.46
   2   7  11   66.45    5.74
   2  -7  11   66.96    4.90
  -2  -7 -11   65.33    4.67
   2  -7  11   61.57    5.56
   2   7  12   72.92    6.12
   2  -7  12   74.40    6.28
  -2  -7 -12   76.98    5.27
   2  -7  12   66.23    4.79
   2   7  13  203.78    9.95
   2  -7  13  206.27   10.25
  -2  -7 -13  216.04    8.98
   2  -7  13  206.07    8.08
   2  -7  14   12.07    3.58
   2  -7  14    9.03    2.25
   2   7  14    3.68    2.79
   2  -7  15   75.63    6.92
   2   7  15   82.23    7.15
   2  -7  15   74.08    5.00
   2   7  16  218.67   11.52
   2  -7  16  208.30   11.17
  -2  -7 -16  233.93    5.47
   2  -7  16  209.07    8.05
   2   7  17  194.73   11.27
   2  -7  17  189.65   11.05
   2  -7  18   34.27    5.50
   2   7  18   38.75    5.85
   2  -7  19   56.99    7.04
   2   7  19   61.26    7.29
   2   7  20  116.58    9.80
   2  -7  20  105.60    9.28
   2  -7  21   11.92    4.78
   2   7  21    8.34    4.29
  -2  -8  25   14.85    4.26
  -2  -8  24  134.27    9.73
  -2  -8  23   49.58    6.06
  -2  -8  22   44.51    5.63
  -2   8  22   54.56    7.53
  -2   8  21   88.06    9.04
  -2  -8  21   90.39    7.35
  -2  -8  20  145.05    8.76
  -2  -8  19   34.32    4.50
  -2   8  19   37.91    6.25
  -2  -8  18  290.79   11.28
  -2   8  18  292.29   13.84
  -2  -8  17   -0.26    2.34
  -2   8  17    1.14    3.28
  -2  -8  16  260.50    9.72
  -2   8  16  248.09   12.18
  -2  -8  15   -2.55    2.00
  -2   8  15   -1.12    2.84
  -2  -8  14  801.53   15.28
  -2   8  14  786.41   19.61
  -2  -8  13  108.27    5.53
  -2   8  13  105.19    7.45
   2  -8 -13  110.54    5.53
  -2  -8  12  143.96    5.98
  -2   8  12  140.71    8.22
   2  -8 -12  146.43    6.31
  -2  -8  11  164.97    5.86
   2  -8 -11  169.00    6.79
  -2   8  11  155.94    8.33
  -2  -8  10  273.94    6.92
   2  -8 -10  284.67    8.86
  -2   8  10  281.61   10.59
   2  -8 -10  298.31   10.70
  -2  -8   9    2.68    1.18
   2  -8  -9    3.64    1.70
  -2   8   9    7.51    3.09
   2  -8  -9    1.44    1.79
  -2  -8   8    3.04    1.10
   2  -8  -8    2.10    1.62
  -2   8   8    3.33    2.29
   2  -8  -8    4.96    1.99
   2  -8  -7    3.69    1.88
   2  -8  -7    2.31    2.14
  -2   8   7    7.51    2.87
   2  -8  -6   27.16    3.28
   2  -8  -6   33.48    3.48
  -2   8   6   25.80    3.55
   2  -8  -5  133.21    6.29
  -2   8   5  144.86    6.84
   2  -8  -5  149.87    6.85
   2  -8  -4    3.77    2.02
   2  -8  -4    1.32    1.79
  -2   8   4    0.21    2.23
   2  -8  -3    1.26    1.85
  -2   8   3   -1.72    2.43
   2  -8  -3    1.83    1.79
   2  -8  -2   12.70    2.79
  -2   8   2    8.94    2.70
   2   8  -2    7.19    1.12
   2   8  -1  579.77    5.67
  -2   8   1  588.31   13.03
   2   8  -1  567.30    6.37
   2   8   0  336.26    5.40
   2   8   0  348.54    4.78
  -2   8   0  332.35    9.94
   2   8   1    5.85    1.42
   2   8   1    4.93    0.91
  -2   8  -1    3.95    2.25
   2   8   2 1479.34   14.38
   2   8   2 1505.86   11.07
  -2   8  -2 1472.43   20.80
   2   8   3  331.27    7.61
   2   8   3  339.81    5.92
  -2  -8  -3  329.65    5.69
  -2   8  -3  342.03   10.22
  -2   8  -4  224.50    8.49
   2   8   4  225.77    6.76
   2   8   4  211.27    5.24
  -2  -8  -4  216.79    5.08
  -2   8  -5  643.06   14.59
   2   8   5  589.02   11.58
  -2  -8  -5  605.26    9.18
   2   8   6  366.81    9.77
  -2   8  -6  403.98   11.86
  -2  -8  -6  376.75    7.92
   2   8   7  132.63    6.37
  -2   8  -7  151.55    7.68
  -2  -8  -7  141.72    5.27
   2  -8   7  138.61    6.99
   2   8   8  239.11    8.77
  -2   8  -8  234.04    9.75
  -2  -8  -8  243.81    7.30
   2  -8   8  225.09    8.89
   2   8   9  339.40   10.91
  -2  -8  -9  330.80    9.16
   2  -8   9  325.90   10.49
  -2  -8 -10    7.23    1.98
   2   8  10    3.15    2.31
   2  -8  10    7.51    2.26
   2  -8  11    3.63    2.81
   2   8  11   -0.62    2.63
   2  -8  11    3.13    1.94
  -2  -8 -11    1.74    1.90
   2   8  12  355.93   12.72
   2  -8  12  355.24   11.12
  -2  -8 -12  360.78   11.15
   2  -8  12  358.73   12.94
   2  -8  13   43.17    5.30
  -2  -8 -13   36.42    4.00
   2   8  13   39.83    5.10
   2  -8  13   45.50    4.32
   2  -8  14    6.87    3.15
   2  -8  14    8.94    2.49
   2   8  14    5.41    3.14
   2   8  15  117.99    8.48
   2  -8  15  107.40    7.99
   2  -8  15  122.81    6.66
   2   8  16  128.10    9.00
   2  -8  16  129.74    9.07
   2  -8  16  124.23    6.65
   2   8  17  172.48   10.67
   2  -8  17  181.54   10.91
   2  -8  18   -0.51    3.14
   2   8  18    1.68    3.23
   2   8  19  161.77   11.25
   2  -8  19  167.93   11.13
   2  -8  20   33.70    5.91
   2   8  20   34.37    5.93
   2  -8  21   11.46    4.45
   2   8  21   13.20    4.67
  -2  -9  24  105.33    8.64
  -2  -9  23   16.23    3.99
  -2  -9  22   55.88    6.17
  -2  -9  21   -7.36    3.43
  -2  -9  20   21.84    4.02
  -2  -9  19   90.05    6.69
  -2   9  19   77.30    7.92
  -2  -9  18    4.16    2.72
  -2   9  18    2.02    3.72
  -2  -9  17   10.44    2.64
  -2   9  17   10.58    4.37
  -2  -9  16   58.41    4.73
  -2   9  16   70.87    6.87
  -2  -9  15  560.21   13.46
  -2   9  15  547.33   17.45
  -2  -9  14   36.02    3.59
  -2   9  14   34.11    5.35
   2  -9 -14   38.95    3.67
  -2  -9  13   73.37    4.60
  -2   9  13   79.05    6.83
   2  -9 -13   71.29    4.69
  -2  -9  12  124.31    5.50
  -2   9  12  117.86    7.69
   2  -9 -12  117.41    5.97
  -2  -9  11   -0.32    1.55
   2  -9 -11   -0.68    1.70
  -2   9  11    3.20    2.88
   2  -9 -10  494.97   12.24
  -2   9  10  501.32   14.45
  -2  -9  10  497.24    9.19
   2  -9  -9   89.54    4.29
  -2   9   9   38.78    4.43
   2  -9  -8   88.61    5.44
  -2   9   8   90.22    6.07
   2  -9  -8   91.52    5.96
   2  -9  -7  387.10   10.94
  -2   9   7  403.56   12.21
   2  -9  -7  406.32   12.11
   2  -9  -6 1873.23   24.11
  -2   9   6 1847.75   25.12
   2  -9  -6 1936.28   25.53
   2  -9  -5   52.96    4.41
   2   9  -5   46.05    1.68
  -2   9   5   48.18    4.56
   2  -9  -5   46.92    4.27
   2  -9  -4   22.85    3.17
  -2   9   4   26.99    3.72
   2  -9  -3    4.87    2.13
  -2   9   3    4.41    2.38
  -2   9   2   74.53    5.16
   2   9  -2   78.74    3.00
   2   9  -1   17.41    1.53
  -2   9   1   15.90    3.02
   2   9   0  545.07    6.93
  -2   9   0  532.19   12.97
   2   9   1  212.68    5.29
   2   9   1  217.85    4.45
  -2   9  -1  220.24    8.50
   2   9   2 2099.18   17.82
   2   9   2 2171.79   14.73
  -2   9  -2 2150.89   25.90
   2   9   3 2420.00   20.76
   2   9   3 2427.62   16.75
  -2   9  -3 2455.34   28.04
  -2  -9  -3 2413.51   16.49
  -2   9  -4  971.65   17.93
   2   9   4  914.53   13.94
   2   9   4  917.04   11.25
  -2  -9  -4  923.02   11.03
  -2   9  -5    2.28    2.07
   2   9   5    0.10    1.70
   2   9   5   -0.76    1.35
  -2  -9  -5   -0.57    1.16
   2   9   6   15.42    2.89
  -2   9  -6   12.97    2.62
  -2  -9  -6    9.61    1.63
   2   9   7  115.64    6.00
  -2   9  -7  122.66    7.08
  -2  -9  -7  114.61    4.86
   2   9   8    8.63    2.70
  -2  -9  -8    9.85    1.96
   2   9   9    5.11    2.87
   2  -9   9    2.90    2.02
  -2  -9  -9    2.06    1.64
   2   9  10   30.67    3.96
   2  -9  10   39.56    4.31
  -2  -9 -10   40.34    3.69
   2  -9  11   10.77    2.92
   2   9  11    4.71    2.85
  -2  -9 -11   11.69    2.80
   2   9  12    1.36    3.01
   2  -9  12    3.99    2.31
  -2  -9 -12    1.38    2.03
   2   9  13  287.97   11.96
   2  -9  13  286.32   10.36
  -2  -9 -13  275.92   10.29
   2  -9  14  114.10    6.76
   2   9  14  112.11    8.17
   2  -9  14  108.19    7.88
   2  -9  15   10.03    2.98
   2   9  15   11.80    4.15
   2  -9  15    5.05    3.28
   2   9  16  221.54   11.66
   2  -9  16  217.70   11.58
   2  -9  17   -2.69    3.28
   2   9  17   -3.47    3.83
   2  -9  18    4.46    3.38
   2   9  18    0.89    3.72
   2  -9  19   42.38    6.39
   2   9  19   28.27    5.62
   2  -9  20  189.26   12.08
   2   9  20  161.62   12.38
  -2 -10  22   55.74    5.98
  -2 -10  21    0.41    2.54
  -2 -10  20  324.89   12.66
  -2  10  20  341.31   16.00
  -2 -10  19    1.20    2.21
  -2  10  19   -8.06    3.99
  -2 -10  18   37.46    4.39
  -2  10  18   35.09    5.88
  -2 -10  17   13.70    2.99
  -2  10  17   12.21    4.47
  -2 -10  16    6.17    2.37
  -2  10  16    8.90    4.13
  -2 -10  15   13.51    2.73
  -2  10  15   11.38    3.98
   2 -10 -15   14.17    2.40
  -2 -10  14  305.84    9.39
  -2  10  14  304.43   13.07
   2 -10 -14  303.40    9.74
  -2 -10  13    2.87    1.78
  -2  10  13   -1.77    2.99
   2 -10 -13    0.61    1.63
  -2 -10  12    8.49    1.87
  -2  10  12   11.15    3.54
   2 -10 -12   11.91    2.65
  -2  10  11   35.44    4.94
   2 -10 -11   36.08    3.75
  -2  10  10 1006.71   20.62
   2 -10 -10 1006.22   18.08
  -2  10   9   29.49    4.09
   2 -10  -9   33.26    3.66
   2  10  -8  131.30    4.38
   2 -10  -8  144.03    7.06
  -2  10   8  149.09    7.95
   2 -10  -7   44.67    4.21
   2  10  -7   40.74    2.33
   2 -10  -7   42.51    4.30
  -2  10   7   43.43    4.69
   2 -10  -6   20.88    3.56
   2  10  -6   13.32    1.36
   2 -10  -6   16.50    3.13
  -2  10   6   20.33    3.65
   2  10  -5   22.98    1.39
  -2  10   5   22.89    3.51
   2 -10  -5   24.79    3.52
   2  10  -4  185.94    3.30
   2 -10  -4  187.14    8.11
  -2  10   4  188.12    8.40
   2  10  -3    9.12    0.88
  -2  10   3   11.38    2.84
   2  10  -3   10.15    1.54
   2 -10  -3    8.08    2.24
  -2  10   2  171.36    7.86
   2  10  -2  176.97    4.78
  -2  10   1  168.07    7.87
   2  10  -1  171.61    4.53
   2  10   0  161.04    4.28
  -2  10   0  158.49    7.55
   2  10   1   81.58    3.11
  -2  10  -1   77.85    5.57
   2  10   2  108.90    3.74
  -2  10  -2  106.05    6.45
   2  10   3   83.75    4.24
   2  10   3   83.85    3.56
  -2  10  -3   89.66    5.79
  -2  10  -3   82.76    5.71
   2  10   4   70.89    4.27
  -2  10  -4   72.91    5.35
   2  10   4   72.28    3.48
  -2 -10  -4   69.37    3.34
  -2  10  -5    5.88    2.31
   2  10   5    8.51    2.25
   2  10   5    8.73    1.64
  -2 -10  -5    9.38    1.73
   2  10   6   90.98    5.30
  -2  10  -6  112.14    6.78
   2  10   6   93.88    4.52
  -2 -10  -6  101.12    4.44
   2  10   7    3.18    2.41
   2  10   7    2.05    1.54
  -2 -10  -7    2.54    1.83
   2  10   8  918.72   17.55
  -2 -10  -8  906.82   14.59
   2  10   9   30.68    4.15
  -2 -10  -9   28.06    3.06
   2  10  10  205.40    9.30
  -2 -10 -10  203.66    7.62
   2 -10  11   22.73    3.76
   2  10  11   23.63    3.98
  -2 -10 -11   21.31    3.00
   2  10  12   43.23    5.33
  -2 -10 -12   52.86    4.62
   2  10  13   21.17    4.23
  -2 -10 -13   24.55    3.57
   2  10  14   10.70    3.85
   2  10  15   -2.87    3.35
   2  10  16   80.08    7.42
   2 -10  17    3.29    3.17
   2  10  17    1.71    3.51
   2 -10  18   68.78    7.39
   2  10  18   63.43    7.12
   2 -10  19    0.26    3.01
   2  10  19    2.94    3.84
   2 -10  20   23.97    5.39
   2  10  20   28.74    5.67
  -2 -11  21   -1.21    2.68
  -2  11  21    4.46    3.82
  -2 -11  20   11.24    3.28
  -2  11  20    9.64    4.33
  -2 -11  19   37.41    4.68
  -2  11  19   30.56    5.74
  -2 -11  18   -0.42    2.25
  -2  11  18    9.71    4.19
  -2 -11  17    3.60    2.21
  -2  11  17   12.91    4.60
  -2 -11  16    7.97    2.50
  -2  11  16    6.30    3.45
   2 -11 -15  127.60    6.54
  -2  11  15  134.65    9.36
  -2 -11  15  125.36    6.47
   2 -11 -14   92.14    5.82
  -2  11  14   81.50    7.47
  -2 -11  14   89.26    5.25
   2 -11 -13   63.31    4.94
  -2  11  13   69.74    6.59
   2 -11 -12   25.81    3.43
  -2  11  12   23.61    4.37
   2 -11 -11    3.16    2.11
  -2  11  11    3.56    2.84
   2 -11 -10  466.64   12.87
  -2  11  10  475.29   14.73
   2 -11  -9    1.51    1.85
   2  11  -9    0.57    1.22
  -2  11   9    0.08    2.49
   2 -11  -8   45.73    4.59
   2  11  -8   39.77    2.58
  -2  11   8   36.70    4.43
   2  11  -7    0.53    0.97
   2 -11  -7    1.49    1.99
  -2  11   7    6.40    3.38
   2  11  -6 1140.60   10.62
  -2  11   6 1164.85   21.06
   2  11  -5  142.34    3.53
  -2  11   5  148.15    7.76
   2 -11  -5  143.63    7.59
   2  11  -4   69.07    2.39
   2 -11  -4   74.76    5.44
  -2  11   4   65.10    5.51
   2  11  -3    4.06    0.87
   2  11  -3    6.02    1.43
  -2  11   3    0.24    2.25
   2  11  -2  280.78    6.46
  -2  11   2  285.88   10.35
  -2  11   1   31.06    3.97
   2  11  -1   31.50    2.32
   2  11   0   84.92    3.49
  -2  11   0   79.97    5.81
  -2  11  -1   12.23    3.05
   2  11   1   14.45    1.77
   2  11   2  381.33    7.43
  -2  11  -2  386.17   12.26
   2  11   3  119.92    4.43
  -2  11  -3  122.59    7.02
   2  11   4  654.95   10.65
  -2 -11  -4  648.64   10.30
  -2  11  -4  659.71   15.80
   2  11   5  331.55    9.36
  -2  11  -5  357.35   11.85
   2  11   5  330.30    7.95
  -2 -11  -5  324.92    7.69
   2  11   6    4.97    2.40
   2  11   6    4.59    1.75
  -2 -11  -6    2.70    1.39
   2  11   7    2.33    2.56
   2  11   7   -1.03    1.67
  -2 -11  -7    3.02    2.08
   2  11   8    0.94    2.61
  -2 -11  -8    0.75    1.48
   2  11   9   33.14    4.32
  -2 -11  -9   28.74    3.03
   2  11  10  153.67    8.21
  -2 -11 -10  146.83    6.73
   2  11  11    3.28    3.01
  -2 -11 -11    3.38    1.98
   2  11  12   11.67    3.84
  -2 -11 -12    8.97    2.50
   2  11  13   20.50    4.27
   2  11  14  226.31   11.35
   2  11  15   17.20    4.25
   2  11  16   77.40    7.43
   2  11  17   -5.86    4.08
   2  11  18   18.29    4.35
   2  11  19   -2.97    3.46
   2  11  20  263.65   14.64
  -2  12  20   94.37    9.10
  -2 -12  19   30.80    4.25
  -2  12  19   29.43    5.86
  -2  12  18  394.15   16.92
  -2 -12  18  380.04   12.53
  -2 -12  17    5.50    2.31
  -2  12  17    8.75    4.27
  -2  12  16   -1.67    3.54
  -2  12  15  163.00   10.34
  -2  12  14  307.78   13.60
   2 -12 -14  305.13   10.69
  -2  12  13    9.75    3.84
   2 -12 -13    6.41    2.50
  -2  12  12   37.86    5.12
   2 -12 -12   49.11    4.72
  -2  12  11  175.93    9.69
   2 -12 -11  179.85    8.39
   2  12 -10  141.69    5.57
  -2  12  10  156.73    9.08
   2 -12 -10  150.01    7.88
   2  12  -9   34.61    2.75
  -2  12   9   26.88    4.32
   2 -12  -9   37.05    4.29
   2  12  -8  137.97    4.69
   2 -12  -8  146.01    7.89
  -2  12   8  142.94    8.24
   2  12  -7    5.49    1.22
  -2  12   7    4.04    2.81
   2  12  -6    2.33    0.91
  -2  12   6    5.80    2.86
   2  12  -5   88.29    3.07
  -2  12   5   86.05    6.31
   2  12  -4  109.93    3.34
   2  12  -4  110.76    4.71
  -2  12   4  104.27    6.89
   2  12  -3   16.19    1.49
   2  12  -3   15.93    2.03
  -2  12   3   15.33    3.37
   2  12  -2    1.70    1.26
  -2  12   2    2.97    2.78
  -2  12   1  267.87   10.32
   2  12  -1  264.80    6.63
   2  12   0   18.49    2.01
  -2  12   0   13.76    3.13
   2  12   1   26.42    2.37
  -2  12  -1   20.40    3.46
   2  12   2  160.52    5.25
  -2  12  -2  166.13    8.47
   2  12   3  162.15    5.48
  -2  12  -3  158.77    8.38
   2  12   4   35.20    2.87
  -2  12  -4   36.61    4.54
   2  12   5    5.55    1.90
  -2 -12  -5    4.21    1.47
   2  12   6  883.52   16.43
   2  12   6  898.36   14.28
  -2 -12  -6  877.33   13.75
   2  12   7    4.37    2.55
   2  12   7    1.80    1.70
  -2 -12  -7    1.63    1.63
   2  12   8   40.37    4.44
   2  12   8   35.81    3.59
  -2 -12  -8   38.60    3.46
   2  12   9  168.04    8.57
  -2 -12  -9  150.93    6.74
   2  12  10   80.89    6.37
  -2 -12 -10   85.45    5.32
   2  12  11   65.65    6.07
  -2 -12 -11   56.86    4.69
   2  12  12   74.29    6.50
  -2 -12 -12   69.49    5.25
   2  12  13    7.99    3.01
   2  12  14   38.52    5.50
   2  12  15   40.35    5.67
   2  12  16   72.78    7.39
   2  12  17   -5.25    4.25
   2  12  18    2.83    3.83
   2  12  19   96.82    9.15
  -2  13  19   41.76    6.80
  -2  13  18    7.91    3.48
  -2  13  17   -1.95    3.88
  -2  13  16   16.60    4.40
  -2  13  15  223.19   12.16
  -2  13  14   41.18    5.86
  -2  13  13  305.32   13.59
  -2  13  12   38.24    5.43
  -2  13  11    6.53    3.40
   2  13 -11    2.28    1.67
   2  13 -10   37.46    3.17
  -2  13  10   38.79    5.06
   2  13  -9   67.28    3.74
  -2  13   9   61.56    5.99
   2  13  -8   46.16    2.94
  -2  13   8   56.73    5.80
   2  13  -7   56.51    2.97
  -2  13   7   58.22    5.77
   2  13  -6   25.72    2.06
  -2  13   6   19.53    4.10
   2  13  -5  262.02    5.62
  -2  13   5  248.86   10.57
   2  13  -4   38.73    2.26
   2  13  -4   36.91    3.09
  -2  13   4   40.20    4.62
   2  13  -3    8.10    1.27
   2  13  -3    8.33    1.74
  -2  13   3    6.84    2.82
   2  13  -2  464.01    9.54
  -2  13   2  443.87   13.84
   2  13  -1  117.17    4.81
  -2  13   1  118.32    7.42
   2  13   0   21.84    2.23
  -2  13   0   26.61    4.07
   2  13   1  297.18    7.47
  -2  13  -1  280.34   10.95
   2  13   2  432.05    9.00
  -2  13  -2  434.74   13.64
   2  13   3  106.94    4.64
  -2  13  -3  102.03    6.99
   2  13   4   24.20    2.55
  -2  13  -4   18.72    3.64
   2  13   5    5.08    1.73
  -2 -13  -5    3.50    1.58
  -2  13  -5    0.94    2.89
   2  13   6    1.82    1.53
  -2 -13  -6    4.01    1.85
   2  13   7    1.61    2.48
   2  13   7    1.22    1.80
  -2 -13  -7    1.08    1.41
   2  13   8   69.87    5.64
   2  13   8   73.62    4.85
  -2 -13  -8   71.56    4.75
   2  13   9   13.25    3.56
   2  13   9    7.12    2.39
  -2 -13  -9    5.71    2.00
   2  13  10   14.59    3.49
  -2 -13 -10   13.17    2.60
   2  13  11  137.07    8.39
  -2 -13 -11  145.76    7.29
   2  13  12    5.18    3.37
   2  13  13  208.63   10.92
   2  13  14    6.00    3.49
   2  13  15   13.10    4.18
   2  13  16  147.71   10.09
   2  13  17  127.00    9.91
   2  13  18   45.11    6.41
   2  13  19    5.32    3.82
  -2  14  18  128.49   10.20
  -2  14  17  102.01    9.07
  -2  14  16  112.48    9.22
  -2  14  15   42.46    6.08
  -2  14  14   99.73    8.51
  -2  14  13   17.56    4.53
  -2  14  12  141.50    9.44
  -2  14  11   85.51    7.31
   2  14 -10    1.83    1.69
  -2  14  10    4.83    4.12
   2  14  -9   31.48    2.78
  -2  14   9   32.22    4.86
   2  14  -8   34.74    2.68
  -2  14   8   31.79    4.85
   2  14  -7  277.18    6.61
  -2  14   7  270.41   11.63
   2  14  -6   11.14    1.66
  -2  14   6   19.13    3.98
   2  14  -5  108.90    3.93
  -2  14   5  102.99    7.32
   2  14  -5  104.39    5.32
   2  14  -4    1.14    0.96
   2  14  -4    1.30    1.44
  -2  14   4    3.08    2.68
   2  14  -3   87.23    3.59
   2  14  -3   84.23    4.66
  -2  14   3   84.31    6.62
  -2  14   2   16.61    3.55
   2  14  -2   16.24    2.25
  -2  14   1  139.47    8.20
   2  14  -1  134.01    5.47
   2  14   0   63.30    3.80
  -2  14   0   62.02    5.83
   2  14   1  186.17    6.34
  -2  14  -1  174.29    9.15
   2  14   2  322.50    8.28
  -2  14  -2  321.38   12.29
   2  14   3  532.10   10.85
  -2  14  -3  529.42   15.86
   2  14   4  146.54    5.99
  -2  14  -4  136.14    8.40
   2  14   5   93.86    4.98
  -2  14  -5   97.39    7.30
   2  14   6  122.51    5.87
  -2 -14  -6  113.95    5.47
   2  14   7    6.57    3.10
   2  14   7    2.66    2.17
  -2 -14  -7    3.76    1.88
   2  14   8   12.48    3.35
   2  14   8   13.56    2.60
  -2 -14  -8   17.88    2.66
   2  14   9  256.89   10.68
   2  14   9  251.86    9.25
  -2 -14  -9  247.42    8.95
   2  14  10   77.95    6.54
   2  14  10   70.25    5.45
  -2 -14 -10   69.70    5.06
   2  14  11   41.06    5.16
   2  14  12   83.67    7.13
   2  14  13  186.27   10.40
   2  14  14    2.53    3.10
   2  14  15  151.33   10.09
   2  14  16   54.19    6.96
   2  14  17    5.89    3.80
   2  14  18   81.80    8.27
  -2  15  18   11.06    4.54
  -2  15  17   19.80    5.21
  -2  15  16    5.48    4.09
  -2  15  15   11.03    4.11
  -2  15  14   48.78    6.39
  -2  15  13  368.68   15.44
  -2  15  12   40.22    5.54
  -2  15  11   13.63    3.78
  -2  15  10   23.43    4.50
  -2  15   9   48.12    5.93
   2  15  -8    3.07    1.21
  -2  15   8    8.27    3.61
   2  15  -7   -0.31    1.25
  -2  15   7   -0.24    2.87
   2  15  -6   26.99    2.35
   2  15  -6   18.75    2.90
  -2  15   6   27.99    4.63
   2  15  -5   42.14    2.73
   2  15  -5   41.43    3.76
  -2  15   5   37.94    4.96
   2  15  -4   32.44    2.36
   2  15  -4   27.02    3.02
  -2  15   4   30.34    4.42
   2  15  -3  281.86    6.74
  -2  15   3  275.80   11.64
   2  15  -3  268.71    8.45
   2  15  -2   52.47    3.80
  -2  15   2   52.34    5.45
  -2  15   1    9.23    3.18
   2  15  -1    7.37    1.96
   2  15   0   18.08    2.38
  -2  15   0   20.39    4.03
   2  15   1  163.87    6.27
  -2  15  -1  160.49    9.15
   2  15   2   90.67    4.80
  -2  15  -2   99.06    7.37
   2  15   3    1.36    1.48
  -2  15  -3   -0.24    2.65
   2  15   4  211.86    7.37
  -2  15  -4  204.87   10.52
   2  15   5    1.30    1.72
  -2  15  -5    0.46    2.82
   2  15   6   41.33    3.81
  -2  15  -6   41.05    5.44
   2  15   7  146.03    6.81
  -2 -15  -7  133.92    6.29
   2  15   8   11.11    3.58
   2  15   8    1.14    2.01
  -2 -15  -8    2.52    1.87
   2  15   9   30.55    4.50
   2  15   9   27.21    3.56
  -2 -15  -9   27.68    3.37
   2  15  10    6.70    2.63
   2  15  10    7.97    3.22
   2  15  11  188.86   10.17
   2  15  12   10.37    3.76
   2  15  13   31.31    5.55
   2  15  14   21.19    4.81
   2  15  15   14.84    4.43
   2  15  16   10.04    4.05
   2  15  17  110.69    9.43
   2  15  18   23.56    5.43
  -2  16  17  143.96   10.96
  -2  16  16    5.63    4.04
  -2  16  15   21.22    4.97
  -2  16  14   -1.45    3.54
  -2  16  13  121.86    9.57
  -2  16  12   18.32    4.76
  -2  16  11  110.11    8.71
  -2  16  10    2.38    3.13
  -2  16   9   10.02    3.90
  -2  16   8   67.07    6.77
  -2  16   7  161.63    9.89
   2  16  -7  152.75    7.41
   2  16  -6   45.00    3.99
  -2  16   6   45.12    5.55
   2  16  -5    0.76    1.13
  -2  16   5    1.58    2.90
   2  16  -5    1.43    1.75
   2  16  -4   62.40    3.39
  -2  16   4   61.35    6.30
   2  16  -4   64.45    4.52
   2  16  -3   85.92    4.00
   2  16  -3   80.28    4.98
  -2  16   3   73.54    6.71
   2  16  -2   11.34    1.72
   2  16  -2   11.36    2.15
  -2  16   2   15.14    3.85
  -2  16   1  185.36   10.08
   2  16  -1  178.15    6.98
   2  16   0   -0.34    1.47
  -2  16   0    0.96    2.77
   2  16   1   95.91    5.13
  -2  16  -1   98.06    7.60
   2  16   2   40.35    3.45
  -2  16  -2   41.40    5.26
   2  16   3  218.96    7.72
  -2  16  -3  215.24   11.03
   2  16   4  205.48    7.63
  -2  16  -4  210.37   10.77
   2  16   5    2.89    1.91
  -2  16  -5   -1.59    3.65
   2  16   6   26.48    3.26
  -2  16  -6   27.16    4.71
   2  16   7  108.91    6.06
  -2  16  -7  105.45    8.28
   2  16   8    1.90    2.24
   2  16   8    6.74    3.21
   2  16   9   72.85    6.37
   2  16   9   68.67    5.30
   2  16  10   37.65    4.25
   2  16  10   37.69    5.15
   2  16  11   39.49    5.61
   2  16  12    4.16    3.29
   2  16  13  115.23    8.87
   2  16  14   -1.28    3.42
   2  16  15   71.37    7.79
   2  16  16   34.96    6.00
   2  16  17    9.70    4.38
  -2  17  16    2.51    3.73
  -2  17  15  122.44    9.66
  -2  17  14   -2.53    3.58
  -2  17  13   25.70    5.26
  -2  17  12  119.79    9.47
  -2  17  11   56.47    6.95
  -2  17  10  186.88   11.17
  -2  17   9   27.06    5.18
  -2  17   8   29.97    5.05
   2  17  -7   24.61    3.54
  -2  17   7   22.68    4.58
   2  17  -6    1.81    1.77
  -2  17   6    1.63    3.08
  -2  17   5   38.04    5.42
   2  17  -5   29.30    3.54
  -2  17   4    2.06    2.83
   2  17  -4    4.36    2.04
  -2  17   3   71.72    6.64
   2  17  -3   82.05    5.28
  -2  17   2   22.90    4.30
   2  17  -2   25.72    3.26
   2  17  -1   77.70    4.95
  -2  17   1   70.98    6.71
   2  17   0   17.70    2.65
  -2  17   0   24.63    4.47
  -2  17  -1   11.38    3.97
   2  17   1   10.54    2.38
   2  17   2   18.26    2.65
  -2  17  -2   21.91    4.53
   2  17   3  101.31    5.55
  -2  17  -3  116.35    8.39
   2  17   4   45.71    3.97
  -2  17  -4   43.13    5.50
   2  17   5   47.13    4.21
  -2  17  -5   47.91    5.98
   2  17   6  116.27    6.38
  -2  17  -6  116.39    8.94
   2  17   7  120.32    6.60
  -2  17  -7  108.28    8.60
   2  17   8  118.43    7.73
   2  17   8  116.52    6.71
  -2  17  -8  121.65    9.11
   2  17   9    4.32    2.53
   2  17   9    4.95    3.03
   2  17  10   47.59    4.88
   2  17  10   43.29    5.52
   2  17  11   22.71    3.71
   2  17  11   30.94    5.18
   2  17  12   76.14    7.02
   2  17  13   60.87    6.80
   2  17  14    6.52    3.92
   2  17  15    3.75    3.30
   2  17  16    9.45    4.02
  -2  18  14   32.14    5.99
  -2  18  13   -0.92    3.31
  -2  18  12  132.75   10.00
  -2  18  11   10.74    4.12
  -2  18  10   44.19    6.05
  -2  18   9   -1.43    3.20
   2  18  -9   -0.79    2.41
  -2  18   8  279.76   13.63
   2  18  -8  277.28   10.74
   2  18  -7    1.14    2.04
  -2  18   7    3.41    3.52
  -2  18   6   96.08    8.23
   2  18  -6  105.38    6.42
  -2  18   5    9.41    3.83
   2  18  -5    7.54    2.49
  -2  18   4  370.04   14.86
   2  18  -4  382.81   11.39
   2  18  -3    1.81    1.74
  -2  18   3    2.39    3.12
   2  18  -2   -0.37    1.67
  -2  18   2   -0.66    3.02
   2  18  -1   45.89    4.04
  -2  18   1   49.73    6.02
   2  18   0  141.00    6.60
  -2  18   0  152.85    9.85
  -2  18  -1   -4.20    3.00
   2  18   1    2.93    2.03
   2  18   2   83.86    5.21
  -2  18  -2   83.97    7.57
   2  18   3    4.00    1.82
  -2  18  -3    2.59    3.10
   2  18   4  245.29    8.96
  -2  18  -4  248.73   12.58
   2  18   5   32.29    3.62
  -2  18  -5   30.36    5.27
   2  18   6   10.71    2.56
  -2  18  -6   17.47    4.51
   2  18   7   29.51    3.79
  -2  18  -7   23.37    4.73
   2  18   8   19.87    4.24
   2  18   8   15.46    2.75
  -2  18  -8   21.77    4.65
   2  18   9  197.15   10.19
  -2  18  -9  200.51   12.08
   2  18  10   38.65    5.41
   2  18  11   25.57    5.22
   2  18  12   21.00    4.48
   2  18  13    0.17    3.03
   2  18  14   41.87    6.31
   2  18  15   35.27    5.94
   2  18  16    0.39    3.47
  -2  19  13    4.43    3.60
  -2  19  12  168.80   11.43
  -2  19  11   45.93    6.57
  -2  19  10    6.59    5.52
   2  19 -10   11.57    3.00
  -2  19   9   53.19    6.62
   2  19  -9   47.75    4.97
  -2  19   8   85.74    8.17
   2  19  -8   79.35    6.15
  -2  19   7  196.66   11.67
   2  19  -7  210.95    9.45
  -2  19   6   93.25    8.27
   2  19  -6  104.92    6.62
  -2  19   5   20.26    4.64
   2  19  -5   23.50    3.31
  -2  19   4    7.42    3.03
   2  19  -4   23.51    3.54
   2  19  -3    4.13    1.95
  -2  19   3    1.55    3.04
   2  19  -2    0.83    1.89
  -2  19   2   -1.23    3.40
   2  19  -1   -0.65    1.87
  -2  19   1   -0.54    2.97
   2  19   0  171.58    7.60
  -2  19   0  164.48   10.43
  -2  19  -1   28.27    5.06
   2  19   1   30.00    3.54
   2  19   2    3.33    1.91
  -2  19  -2    5.09    3.17
   2  19   3   50.23    4.23
  -2  19  -3   40.01    6.05
  -2  19  -4  330.06   14.72
  -2  19  -5   15.97    4.21
  -2  19  -6   31.99    5.45
  -2  19  -7    4.28    3.40
   2  19   8   58.55    6.04
  -2  19  -8   52.08    6.70
   2  19   9    1.84    2.91
  -2  19  -9   -0.04    3.34
   2  19  10  197.16   10.73
  -2  19 -10  192.12   12.19
   2  19  11   13.46    4.27
   2  19  12    4.34    3.65
   2  19  13   38.44    5.89
   2  19  14   98.22    8.70
  -2  20  11    1.52    3.54
  -2  20  10   18.25    4.72
  -2  20   9   75.46    7.90
  -2  20   8   27.39    3.87
  -2  20   7   -0.29    5.31
  -2  20   6    5.63    3.89
  -2  20   5   -0.35    2.99
  -2  20   4   82.07    8.00
  -2  20   3   25.49    5.00
  -2  20   2  164.03   10.72
  -2  20   1   10.83    4.24
  -2  20   0   43.86    5.93
  -2  20  -1   19.04    4.61
  -2  20  -2  115.58    9.30
  -2  20  -3    3.82    3.78
  -2  20  -4   11.24    4.03
  -2  20  -5   21.32    5.05
  -2  20  -6   12.60    4.19
  -2  20  -7   34.05    6.73
  -2  20  -8   98.25    8.98
  -2  20  -9   14.55    4.72
  -2  21   9    6.98    4.01
  -2  21   8   20.43    4.97
  -2  21   7    5.76    3.45
  -2  21   6   71.15    7.71
  -2  21   5   83.44    8.33
  -2  21   4   35.33    5.73
  -2  21   3   39.36    5.95
  -2  21   2   56.28    7.12
  -2  21   1   13.80    6.77
  -2  21   0  160.82   11.25
  -2  21  -1   -5.39    6.03
  -2  21  -2    4.41    4.07
  -2  21  -3    8.04    4.19
  -2  21  -4  287.92   14.66
  -2  21  -5    3.89    3.21
  -2  21  -6    2.85    3.15
  -2  22   6   18.13    4.91
  -2  22   5   89.60    8.60
  -2  22   4  246.73   13.84
  -2  22   3    0.13    3.21
  -2  22   2   20.23    5.06
  -2  22   1   40.72    6.25
  -2  22   0   96.87    8.88
  -2  22  -1    5.61    3.25
  -2  22  -2   62.90    7.50
  -2  22  -3   15.39    4.87
  -3   0  25   -2.63    3.85
  -3   0  24  198.02   12.12
  -3   0  23   -1.12    3.51
  -3   0  22  131.02    8.09
  -3   0  21    3.38    3.43
  -3   0  20  301.35   13.42
  -3   0  19   10.06    3.65
  -3   0  19    1.59    1.38
  -3   0  18   30.66    3.04
  -3   0  18   41.44    5.24
  -3   0  17    1.15    2.97
  -3   0  17   -0.90    1.38
  -3   0  16   88.39    6.65
  -3   0  16   83.69    4.84
  -3   0  15    3.51    1.86
  -3   0  14   21.52    2.75
   3   0 -13    2.75    2.04
  -3   0  12  364.29   11.49
   3   0 -12  358.84   11.21
  -3   0  11    0.15    2.17
   3   0 -11   -0.57    1.80
   3   0 -10  112.35    5.95
  -3   0  10  105.50    5.93
  -3   0   9   -0.54    2.02
   3   0  -9    0.39    1.53
   3   0  -8   47.11    3.77
  -3   0   8   53.84    4.02
  -3   0   7    0.50    1.97
   3   0  -7    0.59    1.44
  -3   0   6    0.65    1.74
   3   0  -6    2.05    1.39
  -3   0   5    1.07    1.62
   3   0  -5   -0.56    1.47
  -3   0   4  420.28    8.52
   3   0  -4  403.93    8.34
   3   0  -3   -0.11    1.21
  -3   0   3   -0.71    1.48
  -3   0   2  255.89    6.11
   3   0  -2  241.72    6.00
  -3   0   1   -0.13    1.40
  -3   0   1   -1.26    1.47
  -3   0   0 1060.48   14.05
  -3   0   0 1084.10   12.47
  -3   0  -1    1.69    1.41
  -3   0  -1    2.34    1.38
  -3   0  -2  117.66    5.19
  -3   0  -3    0.30    1.94
  -3   0  -3   -0.81    1.65
  -3   0  -4 1099.86   16.78
  -3   0  -4 1104.27   16.84
   3   0   4 1083.28   16.35
   3   0   5   -1.17    1.92
  -3   0  -5   -2.83    2.12
  -3   0  -5    2.87    2.06
  -3   0  -6 1218.83   19.08
   3   0   6 1168.84   18.48
  -3   0  -6 1185.23   17.36
   3   0   7   -3.91    2.38
  -3   0  -7   -1.11    1.91
  -3   0  -7    0.46    1.59
  -3   0  -8  210.02    8.66
   3   0   8  195.49    8.37
  -3   0  -8  206.67    7.43
   3   0   9   -0.69    2.38
  -3   0  -9    0.16    1.62
  -3   0  -9   -3.99    2.47
   3   0  10  528.93   14.60
  -3   0 -10  551.24   11.95
   3   0  11    1.00    2.70
  -3   0 -11    2.86    1.90
   3   0  12   45.36    5.20
   3   0  13    3.02    2.84
   3   0  14  424.54   15.20
   3   0  15   -2.62    3.50
   3   0  16  389.13   15.40
   3   0  17    0.44    3.14
   3   0  18    1.92    3.60
   3   0  19   -4.75    3.61
   3   0  20   13.92    4.12
  -3  -1  25    3.63    3.48
  -3   1  25    7.03    4.11
  -3   1  24   33.02    5.98
  -3  -1  24   33.18    5.75
  -3   1  23   -1.36    3.53
  -3  -1  23   -0.69    3.40
  -3   1  22    2.36    3.72
  -3  -1  22    2.05    3.06
  -3  -1  21   21.31    4.59
  -3   1  21   22.64    4.69
  -3  -1  20    9.04    3.64
  -3   1  20    5.48    3.36
  -3  -1  19   48.19    5.58
  -3   1  19   47.91    3.54
  -3   1  19   50.66    6.15
  -3  -1  19   49.98    3.74
  -3   1  18   86.05    7.06
  -3  -1  18   79.62    6.67
  -3  -1  18   84.41    4.86
  -3   1  18   79.70    4.53
  -3   1  17    6.01    1.70
  -3  -1  17    1.30    2.55
  -3  -1  17    3.29    1.54
  -3  -1  16    4.93    3.06
  -3   1  16    0.86    1.48
  -3   1  15   21.27    2.64
  -3  -1  15   33.12    4.43
  -3   1  14    8.21    2.04
  -3   1  14    7.41    2.88
  -3   1  13    5.22    1.78
   3   1 -13    7.97    2.49
  -3   1  13    6.06    2.74
   3  -1 -13    7.19    2.63
  -3   1  12  138.27    6.16
   3  -1 -12  148.30    7.45
  -3   1  12  143.21    7.58
   3   1 -12  141.63    7.18
  -3   1  11   89.53    5.08
   3  -1 -11   88.56    5.66
  -3   1  11   85.96    5.80
   3   1 -11   85.41    5.41
  -3   1  10   -0.53    1.70
  -3   1  10   -0.94    2.20
  -3  -1  10    2.57    2.22
   3   1 -10    2.02    1.86
   3  -1 -10   -1.05    1.75
  -3   1   9  506.64   11.73
   3   1  -9  499.91   11.37
   3  -1  -9  519.60   12.13
  -3  -1   9  529.33   11.79
  -3   1   9  525.45   12.19
  -3   1   8 1357.27   18.81
   3  -1  -8 1295.37   18.42
   3   1  -8 1290.98   17.42
  -3  -1   8 1353.62   17.83
  -3   1   7   29.71    3.28
  -3  -1   7   26.66    2.96
   3   1  -7   25.82    2.66
   3  -1  -7   26.77    2.95
  -3   1   6   73.74    4.48
  -3  -1   6   70.43    3.96
   3   1  -6   69.03    3.73
   3  -1  -6   67.91    4.13
  -3  -1   5   59.78    3.54
  -3   1   5   58.77    3.86
   3   1  -5   53.59    3.25
   3  -1  -5   56.74    3.70
  -3  -1   4  373.76    7.57
  -3   1   4  385.51    8.64
   3  -1  -4  373.68    8.50
   3   1  -4  366.30    7.45
  -3  -1   3  328.04    6.73
  -3   1   3  337.82    7.91
   3   1  -3  331.26    6.70
   3  -1  -3  332.70    7.80
  -3   1   2   29.28    3.42
  -3  -1   2   27.27    1.97
   3  -1  -2   29.30    2.49
  -3   1   2   28.84    2.50
   3   1  -2   32.42    2.20
  -3   1   1   37.07    3.71
  -3  -1   1   36.35    2.71
  -3  -1   1   44.77    2.62
  -3   1   1   46.61    3.18
  -3   1   0  123.55    5.91
  -3  -1   0  116.04    4.60
  -3  -1   0  117.78    3.87
  -3   1   0  123.58    4.71
  -3   1   0  120.76    5.19
  -3   1  -1  229.96    7.87
  -3   1  -1  239.06    7.28
  -3  -1  -1  237.11    6.76
  -3   1  -1  242.72    6.51
  -3  -1  -1  238.85    5.52
  -3   1  -2 1124.03   17.13
  -3   1  -2 1126.88   16.20
  -3  -1  -2 1110.92   15.01
  -3   1  -3   40.81    3.69
  -3  -1  -3   35.20    3.04
  -3   1  -3   36.71    3.42
   3   1   3   35.69    3.08
  -3   1  -4   30.80    3.35
  -3  -1  -4   44.76    3.72
   3   1   4   32.65    3.23
  -3   1  -4   38.18    3.53
  -3   1  -5  422.48   10.59
  -3   1  -5  436.60   11.26
  -3  -1  -5  445.62   11.01
   3   1   5  436.76   10.73
   3  -1   5  413.42   10.96
  -3   1  -6   68.42    4.83
  -3  -1  -6   72.85    4.88
   3  -1   6   75.98    5.27
   3   1   6   70.31    4.82
  -3  -1  -6   69.72    4.53
  -3   1  -6   73.26    4.68
  -3   1  -7   73.49    5.27
  -3  -1  -7   65.96    4.84
   3  -1   7   64.25    4.97
   3   1   7   59.85    4.77
  -3  -1  -7   60.39    4.20
  -3   1  -7   65.65    4.48
  -3   1  -8  116.99    6.66
  -3  -1  -8  121.35    6.64
   3  -1   8  109.26    6.54
   3   1   8  106.99    6.48
  -3   1  -8  112.77    5.75
  -3  -1  -8  120.47    5.70
   3  -1   9    2.40    2.52
   3   1   9    0.33    2.44
  -3  -1  -9    1.89    2.27
  -3   1  -9    1.64    1.89
  -3   1  -9   -3.04    2.30
  -3  -1  -9    1.20    1.53
   3   1  10   30.85    4.04
   3  -1  10   37.07    4.67
  -3  -1 -10   32.22    4.13
  -3   1 -10   37.65    3.63
  -3  -1 -10   34.61    3.28
   3  -1  11   78.10    6.33
   3   1  11   79.36    6.39
  -3  -1 -11   88.06    5.02
   3  -1  12  351.74   12.97
   3   1  12  354.04   12.88
  -3  -1 -12  373.60    9.67
   3   1  13   10.01    3.76
   3  -1  13    6.13    2.88
   3  -1  14  235.11   11.41
   3   1  14  223.08   11.10
   3   1  15   16.75    4.23
   3  -1  15   21.22    4.39
   3   1  16   21.39    4.72
   3  -1  16   24.48    4.95
   3   1  17   16.35    4.31
   3  -1  17   28.51    5.45
   3  -1  18  307.37   14.76
   3   1  18  287.74   14.29
   3   1  19    0.65    3.70
   3  -1  19   -1.98    3.42
   3   1  20   -2.34    3.79
   3  -1  20   -0.35    3.27
  -3  -2  25   -2.21    3.44
  -3   2  24   -0.85    3.49
  -3  -2  24   -2.15    3.67
  -3  -2  23   94.04    8.24
  -3   2  23  119.94    9.59
  -3  -2  22  159.19   10.07
  -3   2  22  193.30   11.97
  -3  -2  21   -2.45    3.58
  -3   2  21   11.61    4.47
  -3   2  20  179.33   10.82
  -3  -2  20  187.21   10.25
  -3  -2  19   57.68    5.85
  -3   2  19   57.32    6.45
  -3  -2  19   51.40    3.93
  -3  -2  18  231.99   10.64
  -3  -2  17  102.83    7.13
  -3   2  17  103.41    5.17
  -3  -2  16  100.09    6.64
  -3   2  16   88.95    4.92
  -3  -2  15   79.12    5.90
  -3   2  15   72.95    6.49
  -3   2  15   65.95    4.30
  -3  -2  14  144.36    7.41
  -3   2  14  149.28    6.37
  -3   2  14  145.16    8.35
  -3   2  13  684.74   13.50
  -3   2  13  692.23   16.78
   3   2 -13  672.77   15.60
  -3   2  12  460.25   11.02
   3   2 -12  451.56   12.23
   3  -2 -12  473.73   13.34
  -3   2  12  475.66   13.38
  -3   2  11   72.33    4.59
   3  -2 -11   76.69    5.35
   3   2 -11   70.80    4.83
  -3   2  11   71.55    5.43
  -3   2  10   10.15    2.19
  -3   2  10    9.08    2.65
   3   2 -10   10.25    2.22
   3  -2 -10    9.53    2.51
  -3   2   9   15.26    2.57
   3   2  -9   17.02    2.37
  -3   2   9   22.63    3.35
   3  -2  -9   15.74    2.78
  -3   2   8    9.08    2.27
  -3   2   8    6.99    2.36
  -3  -2   8   10.41    2.28
   3  -2  -8    8.29    2.41
   3   2  -8    7.62    1.84
  -3   2   7  748.05   14.03
  -3   2   7  746.80   13.88
   3   2  -7  721.02   12.01
  -3  -2   7  738.66   12.20
   3  -2  -7  726.29   13.65
  -3   2   6   34.87    3.63
  -3   2   6   37.21    3.50
   3   2  -6   34.85    2.75
  -3  -2   6   35.92    2.89
   3  -2  -6   34.88    3.17
  -3   2   5   46.18    3.95
   3   2  -5   42.40    2.74
  -3   2   5   50.44    3.83
  -3  -2   5   50.93    3.18
   3  -2  -5   49.76    3.62
  -3   2   4  199.35    7.54
  -3   2   4  197.14    6.65
  -3  -2   4  206.88    5.35
   3  -2  -4  198.78    6.60
   3   2  -4  192.91    5.10
  -3   2   3 1220.84   17.90
  -3  -2   3 1200.75   11.67
  -3   2   3 1186.63   15.29
   3   2  -3 1191.44   11.60
   3  -2  -3 1179.45   15.39
  -3   2   2   85.99    5.16
  -3  -2   2   67.53    2.51
  -3  -2   2   79.50    3.40
   3  -2  -2   79.96    4.15
   3   2  -2   83.03    2.96
  -3   2   2   82.77    4.26
  -3  -2   1   75.81    3.43
  -3   2   1   82.20    5.01
  -3  -2   1   78.46    2.82
  -3   2   1   80.85    4.18
  -3   2   0   17.47    2.91
  -3  -2   0   18.12    2.04
  -3  -2   0   20.25    1.66
  -3   2   0   20.07    2.53
  -3   2  -1  119.56    5.79
  -3  -2  -1  122.02    4.71
  -3   2  -1  122.27    5.49
  -3   2  -1  124.62    5.16
  -3  -2  -1  130.58    3.68
  -3   2  -2  551.18   12.13
  -3  -2  -2  555.35   10.24
  -3   2  -2  573.43   11.98
   3   2   2  540.48   10.04
  -3   2  -3  105.18    5.59
  -3  -2  -3   87.07    4.35
   3   2   3   97.34    4.88
  -3   2  -3   96.87    5.28
  -3   2  -4 1538.58   20.44
  -3  -2  -4 1530.63   18.81
   3   2   4 1506.22   18.51
  -3   2  -4 1549.77   20.89
  -3   2  -5  232.90    8.18
  -3  -2  -5  240.70    7.95
   3   2   5  225.43    7.69
  -3   2  -5  236.35    8.58
  -3   2  -6  474.52   11.49
  -3   2  -6  500.27   12.77
  -3  -2  -6  500.85   11.96
   3   2   6  477.20   11.62
   3  -2   6  482.70   12.34
   3  -2   7   14.55    3.18
   3   2   7   16.25    3.04
  -3  -2  -7    8.63    1.86
  -3   2  -7   15.48    2.83
  -3   2  -7   14.48    2.50
  -3   2  -8  516.16   13.86
   3  -2   8  484.93   13.32
  -3  -2  -8  500.42   13.10
   3   2   8  480.65   12.82
  -3   2  -8  493.75   11.71
   3   2   9   31.93    4.02
   3  -2   9   38.12    4.52
  -3  -2  -9   36.03    4.12
  -3  -2  -9   35.31    3.36
  -3   2  -9   38.93    4.30
   3  -2  10  280.71   11.05
  -3  -2 -10  288.34   10.78
   3   2  10  261.59   10.34
  -3  -2 -10  282.34    8.50
   3  -2  11   18.28    3.67
   3   2  11   18.87    3.85
  -3  -2 -11   18.99    2.63
   3   2  12    2.06    2.72
   3  -2  12    0.21    2.87
  -3  -2 -12    0.36    1.61
   3   2  13    9.32    3.49
   3  -2  13    5.62    3.27
  -3  -2 -13   11.99    2.18
   3  -2  14  248.17   11.84
   3   2  14  254.71   11.89
  -3  -2 -14  248.82    7.88
   3  -2  15  184.78   10.69
   3   2  15  182.15   10.47
   3   2  16   75.20    7.19
   3  -2  16   74.10    7.22
   3   2  17    4.53    3.53
   3  -2  17   -1.86    3.47
   3   2  18   -0.21    3.32
   3  -2  18    0.29    3.44
   3  -2  19   31.40    5.70
   3   2  19   36.35    5.95
   3  -2  20    8.28    4.06
   3   2  20    3.90    3.68
  -3  -3  26    5.80    3.92
  -3  -3  25    8.72    4.44
  -3   3  24   26.95    5.35
  -3  -3  24   22.51    5.00
  -3   3  23   54.16    7.05
  -3  -3  23   43.38    5.88
  -3   3  22   47.18    6.91
  -3  -3  22   31.14    4.90
  -3   3  21  201.94   11.86
  -3  -3  21  215.89   11.10
  -3  -3  20   62.63    6.20
  -3   3  20   60.98    7.08
  -3  -3  19   17.90    3.66
  -3  -3  18   20.40    3.67
  -3  -3  17  323.74   11.76
  -3  -3  16  114.39    7.07
  -3   3  16  116.06    8.20
  -3   3  15    7.54    3.48
  -3  -3  15    6.20    2.92
  -3   3  15   -0.38    1.60
  -3   3  14    5.78    3.22
   3   3 -14    5.08    2.35
  -3  -3  14    4.14    2.39
  -3   3  14    3.12    1.74
  -3  -3  13  243.13    8.73
  -3   3  13  234.91   10.13
   3   3 -13  236.60    9.34
  -3   3  13  231.20    7.94
  -3  -3  12   73.61    4.82
  -3   3  12   73.25    4.63
   3  -3 -12   73.32    5.61
   3   3 -12   67.44    4.98
  -3   3  12   68.44    5.59
  -3   3  11  223.67    7.85
   3   3 -11  209.03    7.98
   3  -3 -11  213.59    8.88
  -3   3  11  217.12    9.03
  -3   3  10    2.86    1.67
   3   3 -10    3.17    1.68
  -3   3  10    6.85    2.87
   3  -3 -10    5.91    2.24
  -3   3   9  181.58    7.21
  -3   3   9  173.51    7.64
   3   3  -9  180.39    6.70
   3  -3  -9  181.56    7.72
  -3   3   8  348.95    9.83
  -3   3   8  351.03   10.37
   3   3  -8  338.17    8.57
   3  -3  -8  346.03   10.26
  -3   3   7   67.78    4.67
   3   3  -7   64.61    3.63
  -3   3   7   62.61    4.57
   3  -3  -7   65.48    4.48
  -3   3   6   24.34    3.05
   3   3  -6   26.28    2.39
   3  -3  -6   26.96    3.05
  -3   3   6   19.16    2.95
  -3   3   5   32.49    3.50
  -3  -3   5   35.65    2.56
   3   3  -5   29.56    2.21
   3  -3  -5   30.04    3.18
  -3   3   5   30.03    3.24
  -3   3   4  842.77   15.11
  -3   3   4  834.76   13.95
  -3  -3   4  839.47    9.85
   3  -3  -4  813.15   13.68
   3   3  -4  821.59    9.70
  -3  -3   3    0.60    1.01
  -3   3   3    1.12    2.11
  -3   3   3   -0.01    1.86
   3  -3  -3    0.26    1.58
   3   3  -3   -0.28    0.88
  -3  -3   2  151.10    4.15
  -3   3   2  152.17    6.72
  -3  -3   2  155.53    3.49
   3  -3  -2  151.41    5.84
  -3   3   2  150.92    5.96
  -3  -3   1   52.18    2.71
  -3   3   1   52.21    4.27
  -3  -3   1   58.19    2.10
  -3   3   1   57.71    3.92
  -3  -3   0  844.94   10.75
  -3   3   0  883.72   15.64
  -3  -3   0  869.40    7.33
  -3   3   0  865.55   13.64
  -3   3  -1  777.55   14.77
  -3  -3  -1  745.56   10.78
  -3   3  -1  779.85   13.15
  -3  -3  -1  773.45    7.38
  -3   3  -1  770.27   13.94
  -3  -3  -2   13.27    2.07
  -3   3  -2   16.32    2.69
   3   3   2   14.92    2.14
  -3   3  -2   10.06    2.23
  -3   3  -2   13.02    2.44
  -3   3  -3    4.95    2.14
  -3  -3  -3    5.38    1.60
  -3   3  -3    5.61    1.93
   3   3   3    7.68    1.88
  -3   3  -4   10.32    2.41
  -3  -3  -4    4.53    2.12
   3   3   4   13.71    2.46
  -3   3  -4   10.74    2.50
  -3   3  -5  278.14    9.01
  -3  -3  -5  282.61    8.48
   3   3   5  267.00    8.34
  -3   3  -5  296.58    9.79
  -3  -3  -6    1.98    1.81
  -3   3  -6    4.45    2.27
   3   3   6    2.37    2.17
  -3   3  -6    4.61    2.07
  -3   3  -7  214.30    8.98
  -3  -3  -7  200.06    7.97
   3   3   7  196.60    7.95
   3  -3   7  193.90    8.40
   3  -3   8   10.38    3.08
   3   3   8    6.48    2.49
  -3  -3  -8    4.63    2.49
  -3   3  -8    5.03    2.64
   3   3   9    1.16    2.39
   3  -3   9   -0.36    2.51
  -3  -3  -9    4.89    2.32
   3   3  10   10.24    3.14
   3  -3  10    8.15    3.22
  -3  -3 -10   11.62    3.22
  -3  -3 -10   11.39    2.31
   3  -3  11  208.72   10.11
   3   3  11  200.93    9.46
  -3  -3 -11  206.66    8.39
  -3  -3 -11  212.12    7.32
   3   3  12   13.95    3.77
   3  -3  12   14.77    3.82
  -3  -3 -12   19.45    2.83
  -3  -3 -12   13.50    2.19
   3  -3  13   75.40    6.80
   3   3  13   66.15    6.29
  -3  -3 -13   73.63    5.60
  -3  -3 -13   80.54    4.59
   3   3  14  218.40   10.96
   3  -3  14  225.12   11.48
  -3  -3 -14  226.44    7.43
   3  -3  15  387.17   15.10
   3   3  15  394.77   14.98
  -3  -3 -15  407.08    9.50
   3  -3  16   66.99    7.01
   3   3  16   69.40    7.02
   3   3  17   63.69    6.93
   3  -3  17   59.12    6.87
   3  -3  18  602.50   20.47
   3   3  18  577.14   20.12
   3  -3  19   11.87    4.25
   3   3  19   17.05    5.21
   3  -3  20   23.71    5.23
   3   3  20   32.35    5.98
  -3  -4  26   -5.06    4.14
  -3  -4  25    9.36    3.77
  -3   4  24    1.44    3.89
  -3  -4  24    4.05    3.74
  -3   4  23   53.74    7.34
  -3  -4  23   62.96    6.81
  -3   4  22    9.01    4.49
  -3  -4  22   -6.33    5.62
  -3   4  21    6.89    4.08
  -3  -4  21   -7.70    3.41
  -3  -4  20  127.28    8.35
  -3  -4  19  242.56   10.88
  -3  -4  18   91.46    6.62
  -3  -4  17  199.80    9.16
  -3   4  17  213.83   11.28
  -3  -4  16   97.94    6.26
  -3   4  16  101.44    7.84
  -3  -4  15  218.85    8.69
  -3   4  15  231.27   10.99
  -3  -4  14  392.31   11.00
   3   4 -14  394.93   12.46
  -3   4  14  406.37   13.73
  -3  -4  13  384.81   10.34
   3   4 -13  392.94   11.91
  -3   4  13  404.20   13.30
  -3   4  12   -0.40    1.62
  -3  -4  12    2.57    1.99
   3   4 -12    2.94    1.99
  -3   4  12    3.69    2.76
  -3  -4  11   10.48    2.22
  -3   4  11    9.42    2.11
   3   4 -11    6.03    2.14
  -3   4  11   12.46    3.32
   3  -4 -11   13.71    3.05
  -3  -4  10   31.83    2.94
  -3   4  10   30.74    3.28
  -3   4  10   32.33    4.11
   3   4 -10   29.17    3.07
   3  -4 -10   41.15    4.25
  -3  -4   9  459.07    8.87
  -3   4   9  458.42   11.33
  -3   4   9  465.81   12.55
   3   4  -9  450.96   10.28
   3  -4  -9  453.97   12.55
  -3   4   8   15.11    2.63
   3   4  -8   12.70    2.01
  -3   4   8   14.52    3.17
   3  -4  -8   11.27    2.56
  -3   4   7  274.12    8.79
   3   4  -7  249.05    6.71
  -3   4   7  258.70    8.92
   3  -4  -7  261.99    8.83
  -3   4   6   16.99    2.99
   3   4  -6   11.96    1.69
  -3   4   6   14.69    2.90
   3  -4  -6   10.71    2.32
  -3   4   5  221.84    8.08
  -3   4   5  212.86    7.68
   3   4  -5  211.09    5.20
   3  -4  -5  214.68    7.76
  -3   4   4   25.20    3.47
   3   4  -4   23.27    1.70
   3  -4  -4   22.68    2.91
  -3   4   4   21.22    2.98
  -3   4   3  260.74    8.77
  -3  -4   3  252.99    4.41
   3   4  -3  257.20    4.38
   3  -4  -3  261.83    8.13
  -3   4   3  248.57    8.08
  -3   4   2   53.32    4.36
  -3  -4   2   50.68    2.23
  -3   4   2   48.42    3.93
  -3   4   1    5.48    2.39
  -3  -4   1    5.99    1.23
  -3   4   1    6.18    2.39
  -3   4   0  247.92    8.66
  -3  -4   0  242.84    5.52
  -3   4   0  237.17    7.74
  -3   4  -1  139.22    6.65
  -3  -4  -1  146.65    4.70
   3   4   1  138.86    4.57
  -3   4  -1  146.98    6.23
  -3   4  -1  139.81    6.40
  -3   4  -2  314.71    9.69
  -3   4  -2  307.40    9.41
  -3  -4  -2  303.27    7.23
   3   4   2  300.96    7.16
  -3  -4  -2  289.37    4.29
  -3   4  -2  303.16    8.83
  -3  -4  -3  527.70   10.08
  -3   4  -3  544.03   12.77
   3   4   3  531.71   10.15
  -3   4  -3  542.87   12.62
  -3  -4  -4  589.98   11.28
  -3   4  -4  608.95   13.86
   3   4   4  580.00   11.28
  -3  -4  -5   57.57    4.15
  -3   4  -5   50.68    4.46
   3   4   5   46.03    3.78
   3   4   6  227.55    8.09
  -3  -4  -6  249.56    8.45
  -3   4  -6  258.39    9.69
  -3  -4  -7  235.66    8.58
  -3   4  -7  238.07    9.51
   3   4   7  221.44    8.32
  -3  -4  -7  228.35    6.80
  -3  -4  -8  136.67    6.95
  -3   4  -8  138.26    7.52
   3   4   8  125.69    6.72
  -3  -4  -8  121.11    5.49
   3  -4   8  129.37    7.32
   3   4   9   85.22    5.89
  -3  -4  -9   90.62    6.08
  -3  -4  -9   80.90    4.75
   3  -4   9   82.90    6.29
   3   4  10  132.89    7.49
  -3  -4 -10  152.13    7.95
   3  -4  10  140.41    8.06
  -3  -4 -10  136.60    6.41
   3   4  11   71.63    5.96
   3  -4  11   70.42    6.14
  -3  -4 -11   85.07    5.60
   3  -4  12   49.46    5.41
  -3  -4 -12   46.71    4.28
  -3  -4 -12   48.38    3.75
   3   4  12   42.49    4.97
   3   4  13  189.75   10.08
   3  -4  13  207.69   10.57
  -3  -4 -13  199.40    8.86
  -3  -4 -13  207.30    7.23
   3   4  14  381.75   14.34
   3  -4  14  368.60   14.51
  -3  -4 -14  401.73    9.75
   3  -4  15    2.60    3.31
   3   4  15   -3.97    3.45
  -3  -4 -15    1.83    1.61
   3  -4  16    3.61    3.46
   3   4  16    2.91    3.39
   3   4  17   34.03    5.54
   3  -4  17   36.46    5.74
   3  -4  18    7.69    4.05
   3   4  18    6.57    3.85
   3   4  19   14.51    4.42
   3  -4  19    9.37    4.25
   3   4  20   13.98    4.74
   3  -4  20   17.36    4.88
  -3  -5  25   44.27    6.12
  -3  -5  24    2.39    3.11
  -3   5  23   42.99    6.94
  -3  -5  23   34.96    5.17
  -3   5  22   33.57    6.22
  -3  -5  22   26.30    4.71
  -3   5  21  355.45   15.85
  -3  -5  21  332.97   13.25
  -3  -5  20   39.41    5.09
  -3  -5  19    1.61    2.46
  -3   5  18   26.42    5.14
  -3  -5  18   17.41    3.42
  -3  -5  17  116.59    6.95
  -3   5  17  114.82    8.77
  -3  -5  16   90.51    5.95
  -3   5  16   97.28    7.74
  -3  -5  15  303.32    9.92
  -3   5  15  285.16   12.25
  -3   5  14    5.51    3.07
   3   5 -14    6.51    2.42
  -3  -5  14    2.62    2.02
   3   5 -13    2.40    2.13
  -3   5  13    6.10    3.73
  -3  -5  13    2.19    1.71
  -3  -5  12  192.02    6.75
   3   5 -12  183.24    7.88
  -3   5  12  195.94    9.40
  -3  -5  11 1088.56   14.81
   3   5 -11 1050.98   17.58
  -3   5  11 1079.44   20.57
  -3  -5  10   27.63    2.57
   3   5 -10   26.94    3.00
  -3   5  10   28.16    3.92
   3  -5 -10   29.44    3.65
  -3  -5   9   29.29    2.41
  -3   5   9   31.17    4.12
   3   5  -9   28.41    2.87
   3  -5  -9   28.73    3.61
  -3  -5   8  126.00    4.08
  -3   5   8  131.89    6.51
   3   5  -8  122.78    5.09
  -3   5   8  124.55    6.76
   3  -5  -8  121.60    6.59
  -3  -5   7  327.18    5.65
  -3   5   7  335.99   10.10
  -3   5   7  332.98   10.37
   3   5  -7  331.91    7.61
   3  -5  -7  344.93   10.67
  -3  -5   6    0.91    0.89
  -3   5   6    1.17    1.98
   3   5  -6    0.14    1.05
   3  -5  -6    3.19    2.14
  -3   5   6   -0.13    2.14
  -3   5   5 1116.15   18.22
   3   5  -5 1098.32   11.25
  -3   5   5 1110.61   17.75
   3  -5  -5 1128.46   17.94
  -3   5   4  128.07    6.49
   3   5  -4  115.16    3.20
  -3   5   4  114.91    6.01
   3  -5  -4  121.78    5.99
  -3   5   3   58.12    4.63
   3  -5  -3   56.30    4.48
  -3  -5   3   53.92    1.56
   3  -5  -3   54.83    4.12
  -3   5   3   59.32    4.53
   3   5  -3   55.93    1.82
  -3   5   2   -1.22    2.07
   3  -5  -2   -0.96    1.86
  -3  -5   2    0.03    0.70
  -3   5   2    2.82    2.22
  -3   5   1  383.13   10.85
   3  -5  -1  384.98   10.84
  -3  -5   1  374.28    5.52
  -3   5   1  384.45   10.22
   3  -5   0   66.41    4.77
  -3  -5   0   66.43    2.78
  -3   5   0   65.38    4.64
   3  -5   1  146.70    6.79
  -3  -5  -1  145.66    4.46
  -3   5  -1  143.54    6.56
   3   5   1  137.18    4.38
   3  -5   2   43.05    4.10
   3   5   2   41.92    2.84
  -3  -5  -2   37.74    2.58
  -3   5  -2   44.18    3.91
  -3   5  -2   40.44    3.88
  -3  -5  -3  194.68    6.06
  -3   5  -3  205.40    8.20
   3   5   3  193.41    6.13
  -3  -5  -3  199.47    3.70
   3  -5   3  202.90    8.04
  -3   5  -4    2.15    1.89
   3   5   4    0.04    1.48
  -3  -5  -4    0.57    0.90
  -3  -5  -4    4.58    1.84
   3  -5   4   -1.57    1.97
  -3  -5  -5  663.11   12.60
  -3   5  -5  686.58   15.47
   3   5   5  617.57   12.29
  -3  -5  -5  633.27    9.00
   3  -5   5  652.96   14.23
  -3   5  -6    9.11    2.72
   3   5   6    6.51    2.13
  -3  -5  -6    8.98    1.56
  -3  -5  -6   17.20    3.00
   3  -5   6    6.77    2.21
   3   5   7   75.45    5.04
  -3   5  -7   93.13    6.32
   3  -5   7   75.18    5.14
  -3  -5  -7   76.92    4.02
   3  -5   8    0.51    1.81
   3   5   8    0.06    2.09
  -3  -5  -8    0.87    1.56
   3   5   9  290.05   10.34
  -3  -5  -9  304.87    8.71
   3  -5   9  291.56   11.10
   3  -5  10    0.02    2.61
  -3  -5 -10    8.69    2.28
   3   5  10    3.94    2.47
   3  -5  11   27.51    4.41
  -3  -5 -11   27.86    3.30
   3   5  11   29.75    4.24
   3  -5  12    5.93    3.02
  -3  -5 -12    5.48    2.45
   3   5  12    3.76    2.80
   3  -5  13    6.26    3.39
  -3  -5 -13   10.52    2.86
  -3  -5 -13    4.67    1.73
   3   5  13    5.24    3.08
   3   5  14  105.52    7.85
   3  -5  14  106.50    8.34
  -3  -5 -14  112.40    5.35
   3   5  15  169.11   10.18
   3  -5  15  178.28   10.59
  -3  -5 -15  189.66    6.67
   3  -5  16    4.44    3.40
   3   5  16    7.44    3.74
   3   5  17  226.42   12.27
   3  -5  17  212.98   12.31
   3  -5  18    0.09    3.75
   3   5  18    3.68    3.48
   3  -5  19   64.23    7.64
   3   5  19   63.17    7.45
   3  -5  20    8.16    4.45
   3   5  20    6.88    4.26
  -3  -6  24  140.81    9.62
  -3  -6  23   24.67    4.70
  -3   6  23   28.93    6.24
  -3   6  22    5.96    4.29
  -3  -6  22    2.55    3.03
  -3  -6  21    0.88    2.54
  -3  -6  20    2.15    2.40
  -3  -6  19  386.29   13.01
  -3   6  19  379.68   16.05
  -3   6  18   11.09    3.78
  -3  -6  18   19.86    3.59
  -3  -6  17   62.08    5.20
  -3   6  17   68.09    7.05
  -3   6  16   -0.43    3.07
  -3  -6  16    2.19    2.04
  -3   6  15    8.58    3.77
  -3  -6  15   12.19    2.70
  -3   6  14   33.85    5.04
   3   6 -14   25.47    3.86
  -3  -6  14   27.23    3.27
   3   6 -13   21.63    3.26
  -3   6  13   20.04    3.99
  -3  -6  13   18.09    2.58
  -3  -6  12   80.90    4.35
  -3   6  12   82.92    6.69
   3   6 -12   74.34    5.20
  -3   6  11   31.19    4.43
   3   6 -11   21.64    3.40
  -3  -6  11   26.74    2.53
  -3  -6  10  130.95    4.58
  -3   6  10  121.51    7.34
   3   6 -10  121.43    5.77
  -3  -6   9  666.55    9.03
   3   6  -9  623.00   12.06
  -3   6   9  643.51   15.58
   3  -6  -9  675.73   15.62
  -3  -6   8   84.96    2.92
   3   6  -8   79.97    4.17
  -3   6   8   82.04    5.80
   3  -6  -8   94.41    5.93
  -3  -6   7 1162.02    8.21
   3   6  -7 1110.99   13.79
  -3   6   7 1170.19   19.79
   3  -6  -7 1179.42   19.76
   3  -6  -6  352.81   10.67
  -3   6   6  350.79   10.71
   3   6  -6  335.67    6.87
   3  -6  -6  362.44   10.87
   3  -6  -5   99.23    5.86
  -3   6   5   96.00    5.85
   3   6  -5   95.75    3.32
   3  -6  -5   94.06    5.72
   3  -6  -4   75.41    5.15
   3   6  -4   76.13    2.52
   3  -6  -4   75.16    5.15
  -3   6   4   76.87    5.18
   3  -6  -3  277.03    9.42
   3  -6  -3  283.91    9.21
  -3   6   3  271.18    9.17
   3  -6  -2  190.13    7.95
  -3   6   2  185.66    7.53
   3  -6  -1  210.39    8.29
  -3   6   1  205.09    7.96
   3  -6   0  100.43    5.92
  -3   6   0   98.16    5.72
   3  -6   1   75.00    5.12
   3   6   1   70.50    3.11
  -3   6  -1   74.64    5.10
   3  -6   2  139.26    6.89
   3   6   2  136.60    4.69
  -3   6  -2  145.61    6.97
  -3   6  -2  141.89    6.88
  -3   6  -3  527.89   13.31
   3   6   3  479.02    9.44
  -3  -6  -3  505.33    4.72
   3  -6   3  518.57   12.99
   3   6   4   20.35    2.53
  -3   6  -4   18.17    3.09
  -3  -6  -4   21.55    1.52
   3  -6   4   20.22    3.07
   3   6   5  189.67    6.87
  -3   6  -5  206.07    8.83
  -3  -6  -5  196.45    4.83
   3  -6   5  200.99    8.29
   3   6   6   54.25    4.17
  -3   6  -6   65.02    5.27
  -3  -6  -6   59.33    3.12
   3  -6   6   57.30    4.70
   3   6   7   70.50    4.83
  -3  -6  -7   73.87    3.82
   3  -6   7   73.64    5.27
   3   6   8   55.36    4.71
  -3  -6  -8   65.85    4.10
   3  -6   8   66.57    5.06
   3   6   9  176.62    8.17
  -3  -6  -9  188.08    6.78
   3  -6   9  183.41    8.16
  -3  -6 -10   25.18    3.01
   3   6  10   22.35    3.62
   3  -6  10   20.25    3.01
   3  -6  11   17.35    3.95
   3  -6  11   23.39    3.44
   3   6  11   24.11    4.06
  -3  -6 -11   19.33    2.93
   3   6  12   97.78    7.23
  -3  -6 -12   94.51    5.92
   3  -6  12   86.37    7.06
   3  -6  13   38.78    5.25
  -3  -6 -13   43.41    4.33
   3   6  13   42.61    5.48
   3   6  14  111.82    8.09
   3  -6  14  107.32    8.20
   3  -6  15    0.93    3.19
  -3  -6 -15    1.21    1.51
   3   6  15    6.08    3.40
   3  -6  16   53.77    6.46
   3   6  16   59.22    6.88
   3   6  17   89.56    8.16
   3  -6  17  105.96    9.10
   3  -6  18   19.44    4.88
   3   6  18   10.27    3.83
   3   6  19  163.44   11.22
   3  -6  19  166.05   11.54
   3   6  20  144.36   11.16
  -3  -7  23   14.41    3.72
  -3  -7  22   68.79    6.49
  -3  -7  21  190.66    9.96
  -3  -7  20  157.94    8.66
  -3   7  20  143.33   10.65
  -3   7  19   37.44    5.94
  -3  -7  19   24.77    3.91
  -3  -7  18   43.94    4.75
  -3   7  18   31.66    5.59
  -3  -7  17  153.35    7.54
  -3   7  17  140.74    9.87
  -3  -7  16   52.00    4.55
  -3   7  16   56.67    6.56
  -3  -7  15   70.75    4.75
  -3   7  15   73.56    7.05
  -3  -7  14  668.84   13.09
   3   7 -14  613.78   15.48
  -3   7  14  623.00   17.91
  -3  -7  13   78.36    4.45
  -3   7  13   83.63    6.98
   3   7 -13   82.33    5.70
  -3  -7  12   59.58    3.70
  -3   7  12   52.35    5.66
   3   7 -12   53.80    4.56
  -3  -7  11  132.41    4.75
  -3   7  11  122.21    7.61
   3   7 -11  122.62    6.12
  -3  -7  10  179.68    4.96
  -3   7  10  179.30    8.89
   3   7 -10  169.91    6.77
  -3  -7   9   46.88    2.36
  -3   7   9   45.56    4.75
   3   7  -9   46.15    3.49
  -3  -7   8  110.34    2.65
   3  -7  -8  110.31    6.32
  -3   7   8  115.58    6.91
   3   7  -8  108.68    4.76
   3  -7  -8  108.70    6.71
   3  -7  -7  334.45   10.61
  -3   7   7  323.08   11.02
   3   7  -7  323.77    7.48
   3  -7  -7  352.22   11.26
   3  -7  -6  185.69    8.03
  -3   7   6  203.63    8.53
   3   7  -6  180.08    5.11
   3  -7  -6  192.99    8.14
   3  -7  -5  467.63   12.67
   3   7  -5  478.94    7.17
  -3   7   5  501.74   12.93
   3  -7  -5  510.64   13.01
   3  -7  -4   53.27    4.45
   3   7  -4   54.55    2.06
   3  -7  -4   54.94    4.51
  -3   7   4   49.14    4.54
   3  -7  -3   50.77    4.36
   3  -7  -3   49.56    4.27
  -3   7   3   51.46    4.63
   3  -7  -2  489.03   12.84
  -3   7   2  475.78   12.40
   3  -7  -1  117.96    6.52
  -3   7   1  120.60    6.50
   3  -7   0   40.52    4.02
   3   7   0   36.65    1.87
  -3   7   0   35.10    3.87
   3  -7   1    6.29    2.17
   3   7   1    6.34    1.28
  -3   7  -1    5.16    2.61
   3  -7   2    3.98    2.22
   3   7   2    3.27    1.30
  -3   7  -2    0.72    1.88
  -3   7  -2    2.45    2.06
   3  -7   3   87.24    5.75
  -3   7  -3   86.89    5.76
   3   7   3   73.93    3.86
  -3   7  -3   81.62    5.52
   3   7   4  182.63    6.33
  -3   7  -4  190.36    8.52
  -3  -7  -4  179.20    3.60
   3  -7   4  186.74    8.23
   3   7   5  452.76   10.52
  -3   7  -5  495.24   13.78
  -3  -7  -5  480.06    7.17
   3  -7   5  468.53   12.96
   3   7   6  220.39    7.84
  -3  -7  -6  232.70    5.70
   3  -7   6  236.06    9.37
   3   7   7   63.02    4.76
  -3  -7  -7   65.74    3.53
   3  -7   7   67.99    5.23
   3   7   8  322.64   10.48
  -3  -7  -8  321.51    8.13
   3  -7   8  324.13   10.92
  -3  -7  -9   43.80    3.46
   3  -7   9   46.13    4.50
   3   7   9   46.55    4.62
   3   7  10  245.85    9.99
  -3  -7 -10  243.44    8.06
   3  -7  10  252.22    9.74
   3   7  11  149.36    8.30
  -3  -7 -11  147.40    6.69
   3  -7  11  140.95    7.45
  -3  -7 -12   14.64    2.68
   3  -7  12   15.15    3.02
   3   7  12   17.98    4.12
   3  -7  13    2.46    2.98
  -3  -7 -13   -0.90    1.87
   3  -7  13   -0.02    1.85
   3   7  13    3.84    3.17
   3   7  14    6.42    4.03
   3  -7  14    3.33    2.86
   3   7  15   71.38    7.11
   3  -7  15   74.43    7.32
   3  -7  16   10.16    4.18
   3   7  16   10.92    3.82
   3  -7  17   -0.83    3.12
   3   7  17   -6.18    3.90
   3  -7  18    7.68    3.58
   3   7  18    4.66    3.33
   3  -7  19   79.26    8.39
   3   7  19   74.03    8.10
   3   7  20   22.98    5.11
  -3  -8  21   26.22    4.24
  -3  -8  20    4.29    2.67
  -3   8  20    1.75    3.44
  -3  -8  19   89.76    6.45
  -3   8  19   92.81    8.62
  -3  -8  18   24.23    3.59
  -3   8  18   22.55    5.78
  -3  -8  17  271.74    9.77
  -3   8  17  270.26   13.47
  -3  -8  16   22.32    3.03
  -3   8  16   14.91    4.22
  -3  -8  15   12.58    2.45
  -3   8  15   12.09    4.40
  -3  -8  14    3.95    1.75
  -3   8  14    9.00    3.94
  -3  -8  13  155.53    5.92
  -3   8  13  157.49    9.52
   3   8 -13  138.01    7.32
  -3  -8  12   27.03    2.48
   3   8 -12   31.64    3.74
  -3   8  12   25.45    4.16
  -3  -8  11   48.71    2.83
   3   8 -11   52.30    4.22
  -3   8  11   52.58    5.64
  -3  -8  10  361.03    6.40
   3  -8 -10  338.39   11.00
  -3   8  10  353.76   12.55
   3   8 -10  331.16    9.42
   3  -8  -9   76.41    5.45
   3   8  -9   69.18    4.25
  -3   8   9   75.05    6.07
  -3  -8   9   74.36    2.42
   3  -8  -8   32.46    3.88
   3   8  -8   29.99    2.73
  -3   8   8   32.86    4.37
   3  -8  -7  202.95    8.55
  -3   8   7  197.49    9.02
   3   8  -7  194.23    5.90
   3  -8  -7  203.85    8.99
   3  -8  -6  622.85   14.76
  -3   8   6  564.53   14.48
   3   8  -6  560.88    8.91
   3  -8  -6  589.09   14.81
   3  -8  -5   78.19    5.57
  -3   8   5   77.18    5.61
   3   8  -5   76.13    3.00
   3  -8  -5   76.56    5.55
   3  -8  -4   54.56    4.72
   3   8  -4   54.86    2.09
   3  -8  -4   59.06    4.88
  -3   8   4   45.61    4.57
   3  -8  -3  294.85   10.35
  -3   8   3  284.88   10.15
   3  -8  -2   42.95    4.43
  -3   8   2   36.12    4.07
   3  -8  -1   54.73    4.76
  -3   8   1   50.23    4.67
   3  -8   0  241.71    9.55
   3   8   0  233.83    4.19
  -3   8   0  243.80    9.33
   3  -8   1   20.65    3.38
   3   8   1   15.32    1.62
  -3   8  -1   14.00    3.12
   3  -8   2   17.00    3.00
  -3   8  -2   21.92    3.38
   3   8   2   15.23    1.85
  -3   8  -2   21.02    3.50
   3  -8   3   27.03    3.62
   3   8   3   25.62    2.48
  -3   8  -3   27.85    3.60
  -3   8  -3   28.87    3.75
   3  -8   4  324.57   11.13
   3   8   4  307.88    8.16
  -3   8  -4  331.43   11.38
  -3  -8  -4  318.30    4.59
   3   8   5   46.95    3.69
   3  -8   5   55.55    4.99
  -3  -8  -5   51.32    2.41
   3  -8   6    1.79    2.08
   3   8   6    2.06    1.98
  -3  -8  -6    1.51    1.17
   3   8   7  351.26   10.43
  -3  -8  -7  369.97    7.88
   3  -8   7  358.92   11.87
   3   8   8  123.44    6.71
  -3  -8  -8  132.49    5.19
   3  -8   8  135.48    7.43
  -3  -8  -9   12.36    2.13
   3  -8   9    9.75    2.93
   3   8   9   11.64    3.24
   3   8  10  267.44   10.50
  -3  -8 -10  271.53    8.47
   3  -8  10  269.30   10.38
  -3  -8 -11    3.83    1.83
   3   8  11    2.02    2.45
  -3  -8 -12   29.39    3.40
   3   8  12   29.29    4.55
  -3  -8 -13    0.82    1.84
   3   8  13    1.63    3.15
   3   8  14  202.22   10.78
   3   8  15   40.38    5.68
   3  -8  15   35.96    5.52
   3   8  16  220.54   11.96
   3  -8  16  233.43   12.70
   3  -8  17    5.10    3.37
   3   8  17   15.17    4.27
   3  -8  18    0.80    3.36
   3   8  18    1.21    3.32
   3  -8  19    5.23    4.02
   3   8  19    2.19    3.31
  -3   9  21    6.43    3.72
  -3  -9  20   91.26    6.65
  -3   9  20   94.27    9.04
  -3  -9  19  103.82    6.66
  -3   9  19  109.03    9.80
  -3  -9  18  150.19    7.64
  -3   9  18  146.36   10.67
  -3  -9  17   98.68    5.93
  -3   9  17   94.01    8.86
  -3  -9  16   31.79    3.56
  -3   9  16   30.16    5.55
  -3  -9  15   38.10    3.44
  -3   9  15   33.67    5.76
  -3  -9  14  261.25    7.82
  -3   9  14  246.85   12.23
  -3  -9  13    0.97    1.55
  -3   9  13   -0.48    3.05
   3   9 -13    0.92    1.78
  -3  -9  12  141.30    4.92
  -3   9  12  146.07    8.96
   3   9 -12  133.11    6.89
  -3  -9  11    1.90    0.99
   3  -9 -11   -0.41    1.80
  -3   9  11    3.00    3.03
   3   9 -11    5.12    2.16
   3  -9 -10   84.39    5.93
  -3   9  10   82.14    6.73
   3   9 -10   81.98    4.92
   3  -9  -9  246.93    9.69
   3   9  -9  237.15    7.64
  -3   9   9  230.36   10.29
   3  -9  -8   26.85    3.72
   3   9  -8   22.20    2.48
  -3   9   8   25.88    4.33
   3  -9  -7  509.81   13.88
   3   9  -7  491.08    9.41
  -3   9   7  500.05   14.35
   3  -9  -6    3.79    2.00
   3   9  -6    2.86    1.22
  -3   9   6    6.13    2.99
   3  -9  -5   46.17    4.57
   3   9  -5   40.85    2.34
  -3   9   5   39.81    4.39
   3  -9  -5   44.26    4.45
   3  -9  -4  319.52   11.11
   3   9  -4  299.08    4.96
   3  -9  -4  308.54   10.83
  -3   9   4  300.49   10.88
   3  -9  -3   18.05    3.18
   3   9  -3   11.07    0.82
  -3   9   3   16.23    3.37
   3  -9  -2  191.28    8.75
  -3   9   2  190.78    8.63
   3  -9  -1   75.22    5.89
  -3   9   1   69.76    5.60
   3  -9   0  307.91   11.13
   3   9   0  306.34    4.67
  -3   9   0  307.09   10.72
   3  -9   1   84.49    6.02
   3   9   1   73.99    3.01
  -3   9  -1   68.14    5.41
   3  -9   2  598.92   15.34
   3   9   2  604.32    9.53
  -3   9  -2  619.68   15.49
   3  -9   3  100.24    6.54
   3   9   3   92.18    4.17
  -3   9  -3   89.95    6.10
   3  -9   4   89.04    6.33
   3   9   4   88.89    4.49
  -3  -9  -4   91.67    2.56
   3   9   5  103.12    5.24
  -3  -9  -5  109.52    3.43
   3   9   6  190.57    7.40
  -3  -9  -6  204.00    5.28
   3   9   7   14.35    2.96
  -3  -9  -7   14.76    1.90
   3   9   8  212.85    8.74
  -3  -9  -8  229.37    6.74
  -3  -9  -9   30.72    2.96
   3   9   9   29.46    4.00
   3   9  10   66.34    5.56
  -3  -9 -10   68.87    4.45
   3   9  11   28.60    4.45
  -3  -9 -11   23.56    3.04
   3   9  12  196.92    9.94
  -3  -9 -12  205.28    8.30
  -3  -9 -13    2.53    1.87
   3   9  13    8.45    3.47
   3   9  14   10.13    3.88
   3   9  15   13.72    3.94
   3   9  16   17.30    4.26
   3   9  17   10.10    4.19
   3   9  18    1.38    3.28
   3   9  19   -2.34    3.61
  -3  10  20   -0.02    3.96
  -3  10  19   -1.09    3.29
  -3 -10  18   10.46    2.42
  -3  10  18   10.42    4.33
  -3 -10  17   -0.80    1.83
  -3  10  17   -4.65    3.73
  -3 -10  16  100.67    5.58
  -3  10  16   79.65    8.20
  -3 -10  15    3.50    1.86
  -3  10  15   -0.75    3.28
  -3 -10  14  473.41   10.13
  -3  10  14  474.43   22.50
  -3 -10  13    0.61    1.31
   3  10 -13    0.62    1.93
  -3  10  13    0.95    3.08
   3 -10 -12  145.69    7.75
  -3  10  12  147.82    9.19
   3  10 -12  144.09    7.18
   3 -10 -11    1.74    1.94
   3  10 -11   -0.12    1.83
  -3  10  11   -0.67    3.11
   3 -10 -10  367.04   12.16
   3  10 -10  355.79   10.01
  -3  10  10  373.40   13.62
   3 -10  -9   26.68    3.67
   3  10  -9   31.62    3.20
  -3  10   9   27.22    4.48
   3 -10  -8   63.73    5.32
   3  10  -8   69.53    4.13
  -3  10   8   68.71    6.00
   3 -10  -7    2.58    2.36
   3  10  -7    0.35    1.21
  -3  10   7    4.72    2.87
   3 -10  -6  367.29   12.22
  -3  10   6  357.63   12.34
   3  10  -6  346.82    7.46
   3  10  -5   23.84    1.93
  -3  10   5   20.69    3.71
   3  10  -4  370.67    5.90
   3  10  -4  385.88    5.99
  -3  10   4  372.36   12.38
   3  10  -3    7.85    0.88
  -3  10   3    9.28    2.98
   3  10  -3    8.92    0.93
  -3  10   2  379.61   12.42
  -3  10   1   17.55    3.66
   3  10   0  291.23    4.58
  -3  10   0  278.74   10.70
   3  10   1   92.03    3.37
  -3  10  -1   95.68    6.47
   3  10   2   35.06    2.56
  -3  10  -2   36.86    4.51
   3  10   3   57.18    3.49
  -3  10  -3   61.65    5.62
   3  10   4   32.64    3.05
  -3  10  -4   30.33    4.28
   3  10   5  104.38    5.29
  -3 -10  -5  109.15    3.48
   3  10   6   91.71    5.32
  -3 -10  -6   97.83    3.75
   3  10   7   -2.59    2.33
  -3 -10  -7   -0.33    1.21
  -3 -10  -8   45.62    3.13
   3  10   8   39.64    4.17
  -3 -10  -9   40.38    3.27
   3  10   9   38.27    4.30
   3  10  10  235.51   10.07
  -3 -10 -10  232.90    7.87
   3  10  11   23.06    4.25
  -3 -10 -11   18.96    2.94
   3  10  12   81.65    6.77
  -3 -10 -12   88.41    5.62
   3  10  13    0.11    2.82
   3  10  14   12.09    3.90
   3  10  15   10.74    3.67
   3  10  16  457.47   17.43
   3  10  17    0.97    3.03
   3  10  18    1.83    3.38
   3  10  19    2.41    3.70
  -3  11  19   35.40    6.04
  -3  11  18  297.36   14.88
  -3  11  17    3.14    3.49
  -3 -11  16   20.72    2.92
  -3  11  16   12.66    4.73
  -3 -11  15   28.56    2.99
  -3  11  15   32.01    5.77
  -3  11  14  150.91    9.98
   3  11 -13   15.91    3.34
  -3  11  13   16.80    4.09
   3  11 -12   13.05    2.53
  -3  11  12    9.87    3.56
  -3  11  11   10.22    3.59
   3  11 -11   17.73    2.90
   3  11 -10    5.53    2.10
  -3  11  10    2.18    3.22
   3  11  -9   24.82    2.99
  -3  11   9   26.45    4.47
  -3  11   8  139.75    8.57
  -3  11   7  105.58    7.44
  -3  11   6  135.16    8.10
  -3  11   5   30.59    4.43
   3  11  -4   11.47    1.30
  -3  11   4   12.76    3.60
  -3  11   3   -1.28    2.68
   3  11  -3    3.77    0.88
   3  11  -2  359.02    4.15
  -3  11   2  356.31   12.32
  -3  11   1   38.48    4.69
   3  11   0   35.01    1.72
  -3  11   0   34.61    4.31
   3  11   1   73.66    3.14
  -3  11  -1   78.85    6.13
   3  11   2  742.50   10.83
  -3  11  -2  750.25   18.07
   3  11   3   37.08    3.21
  -3  11  -3   43.98    5.02
   3  11   4  171.30    6.40
  -3  11  -4  171.98    9.04
   3  11   5   -0.15    1.72
  -3 -11  -5    0.23    0.89
  -3  11  -5    0.48    2.56
   3  11   6  141.35    6.51
  -3 -11  -6  149.62    4.72
   3  11   7   -2.03    2.29
  -3 -11  -7    1.09    1.24
   3  11   8  108.85    6.50
  -3 -11  -8  114.46    4.86
   3  11   9    7.40    2.59
  -3 -11  -9   11.32    2.06
   3  11  10    3.92    2.50
  -3 -11 -10    3.04    1.78
  -3 -11 -11   59.48    4.46
   3  11  11   50.45    5.39
   3  11  12  261.91   11.56
   3  11  13   10.94    3.64
   3  11  14   22.10    4.71
   3  11  15    0.07    3.12
   3  11  16   15.48    4.51
   3  11  17   -0.77    3.05
   3  11  18   18.33    5.97
   3  11  19    6.04    3.58
  -3  12  19    4.13    3.84
  -3  12  18    5.00    3.79
  -3  12  17   30.00    5.42
  -3  12  16   26.37    5.18
  -3  12  15   76.95    8.03
  -3  12  14   -2.60    3.41
  -3  12  13  268.21   13.06
  -3  12  12    6.41    3.35
   3  12 -12   10.88    2.66
   3  12 -11   51.41    4.38
  -3  12  11   56.68    6.24
  -3  12  10  225.08   11.09
  -3  12   9    6.31    3.23
  -3  12   8   -1.39    2.77
  -3  12   7    1.29    2.92
  -3  12   6  386.94   13.76
   3  12  -5    1.36    1.05
  -3  12   5   -2.35    2.95
  -3  12   4    1.42    2.62
   3  12  -4    1.08    1.09
   3  12  -3  291.49    5.32
  -3  12   3  272.39   11.36
   3  12  -2  247.01    4.26
  -3  12   2  223.16   10.12
   3  12  -1   81.08    2.01
  -3  12   1   85.18    6.75
   3  12   0  381.21    5.70
  -3  12   0  386.78   13.37
   3  12   1   61.51    3.01
  -3  12  -1   60.61    5.84
   3  12   2    7.84    1.39
  -3  12  -2   12.70    3.73
   3  12   3    3.28    1.34
  -3  12  -3    5.69    2.84
   3  12   4   19.46    2.41
  -3  12  -4   26.43    4.41
   3  12   5    8.52    2.27
  -3  12  -5    5.98    2.73
   3  12   6   12.17    2.68
  -3 -12  -6   14.81    1.76
   3  12   7  473.01   12.69
  -3 -12  -7  493.65    9.39
   3  12   8   -1.74    2.47
  -3 -12  -8    1.10    1.36
   3  12   9  150.55    8.03
  -3 -12  -9  158.82    6.21
   3  12  10  121.52    7.57
   3  12  11   22.35    4.02
   3  12  12  138.92    8.65
   3  12  13    1.02    2.81
   3  12  14   95.57    7.93
   3  12  15   25.45    4.96
   3  12  16  201.81   11.78
   3  12  17   86.71    8.34
   3  12  18    2.09    3.44
  -3  13  18   33.38    5.79
  -3  13  17   31.16    5.83
  -3  13  16    3.75    3.92
  -3  13  15    0.36    3.09
  -3  13  14  240.75   12.82
  -3  13  13   31.18    5.29
  -3  13  12    6.79    3.78
  -3  13  11   21.73    4.50
  -3  13  10  247.12   12.04
  -3  13   9   20.36    4.34
  -3  13   8   83.44    7.20
  -3  13   7   75.58    6.83
  -3  13   6   95.75    7.42
  -3  13   5  125.94    8.25
   3  13  -5  129.01    4.81
   3  13  -4   47.57    2.80
  -3  13   4   40.70    4.94
   3  13  -3    9.46    1.32
  -3  13   3    8.84    2.78
   3  13  -2   19.80    1.57
  -3  13   2   15.38    3.77
   3  13  -1   15.96    1.27
  -3  13   1   13.96    3.64
   3  13   0   24.00    1.75
   3  13   0   21.88    1.36
  -3  13   0   21.75    4.20
   3  13   1   50.90    2.75
   3  13   1   58.55    2.03
  -3  13  -1   54.73    5.83
   3  13   2   -1.66    1.51
  -3  13  -2    2.93    3.23
   3  13   3  538.43   10.67
  -3  13  -3  521.23   16.38
   3  13   4 1017.05   15.83
  -3  13  -4 1048.04   23.19
   3  13   5  174.96    7.16
  -3  13  -5  184.36   10.12
   3  13   6   39.01    3.93
  -3  13  -6   35.37    4.94
   3  13   7   69.29    5.25
  -3 -13  -7   76.47    3.91
   3  13   8  244.13    9.72
   3  13   9   79.71    6.09
   3  13  10  182.97    9.26
   3  13  11  269.35   11.58
   3  13  12   42.71    5.29
   3  13  13   17.98    3.99
   3  13  14    6.97    3.37
   3  13  15   82.41    7.84
   3  13  16    9.97    4.22
   3  13  17   21.64    5.43
   3  13  18    4.00    3.66
  -3  14  17    8.26    4.45
  -3  14  16    4.96    3.92
  -3  14  15   15.61    4.55
  -3  14  14    2.36    3.68
  -3  14  13   54.48    6.74
  -3  14  12   20.64    4.68
  -3  14  11   -0.63    3.07
  -3  14  10  388.16   15.39
  -3  14   9  146.02    9.65
  -3  14   8    1.85    3.43
  -3  14   7   88.57    7.39
  -3  14   6  524.08   16.95
   3  14  -6  529.31   10.46
  -3  14   5  158.86    9.60
   3  14  -5  173.38    5.73
   3  14  -4   36.92    2.59
  -3  14   4   35.06    4.97
   3  14  -3  405.22    7.55
  -3  14   3  383.38   14.30
   3  14  -2   60.29    2.81
  -3  14   2   52.62    5.81
   3  14  -1   24.35    1.17
   3  14  -1   29.52    1.91
  -3  14   1   19.35    4.15
   3  14  -1   22.56    1.13
   3  14   0    8.52    1.15
   3  14   0   10.00    1.27
  -3  14   0    5.57    2.91
   3  14   1  281.42    6.55
   3  14   1  307.88    5.32
  -3  14  -1  271.49   12.04
   3  14   2   70.71    3.75
   3  14   2   80.11    2.97
  -3  14  -2   71.74    6.47
   3  14   3    2.09    1.47
  -3  14  -3   -0.80    2.97
   3  14   4  298.51    8.84
  -3  14  -4  314.98   13.25
   3  14   5  442.16   11.37
  -3  14  -5  479.82   16.36
   3  14   6   56.25    4.56
  -3  14  -6   57.07    6.17
   3  14   7   19.13    3.21
  -3  14  -7   17.46    4.39
   3  14   8   30.95    4.01
   3  14   9  118.95    7.35
   3  14  10   -2.46    2.60
   3  14  11   18.64    3.73
   3  14  12   27.34    4.63
   3  14  13   17.24    3.96
   3  14  14   37.42    5.58
   3  14  15    3.17    3.06
   3  14  16    6.62    3.56
   3  14  17   19.66    5.04
  -3  15  16    0.93    3.72
  -3  15  15   87.04    8.64
  -3  15  14    6.63    3.44
  -3  15  13   57.74    6.98
  -3  15  12    8.27    3.95
  -3  15  11  200.64   11.76
  -3  15  10   14.89    4.29
  -3  15   9   38.55    5.64
  -3  15   8   42.84    5.61
   3  15  -7   55.33    3.92
  -3  15   7   53.99    6.27
  -3  15   6   56.57    6.44
   3  15  -6   63.36    3.95
  -3  15   5  182.65   10.52
   3  15  -5  200.26    6.40
  -3  15   4   37.16    5.22
   3  15  -4   44.50    2.99
   3  15  -3   -1.65    1.33
  -3  15   3   -3.05    3.06
   3  15  -2   28.48    2.28
  -3  15   2   26.02    4.82
   3  15  -1  262.70    4.16
   3  15  -1  286.40    6.00
  -3  15   1  272.04   12.40
   3  15   0    5.71    1.11
   3  15   0    8.57    1.30
  -3  15   0    3.34    3.07
   3  15   1   10.38    1.53
   3  15   1   11.73    1.45
  -3  15  -1   11.08    3.76
   3  15   2   31.93    2.69
   3  15   2   34.93    2.20
  -3  15  -2   30.84    5.00
   3  15   3   57.43    3.87
   3  15   3   58.31    2.91
  -3  15  -3   58.35    6.48
   3  15   4   42.76    3.61
  -3  15  -4   50.07    5.97
   3  15   5  130.35    6.41
  -3  15  -5  136.93    9.25
   3  15   6    3.04    1.86
  -3  15  -6   -0.76    3.36
   3  15   7   33.68    3.90
  -3  15  -7   39.22    5.59
   3  15   8    2.28    2.08
  -3  15  -8    4.91    3.58
   3  15   9  207.99    9.69
   3  15  10   62.94    5.94
   3  15  11   87.28    7.00
   3  15  12    6.33    2.91
   3  15  13   13.31    3.79
   3  15  14    1.16    3.20
   3  15  15  103.38    8.66
   3  15  16   -1.59    3.61
   3  15  17   28.33    5.45
  -3  16  15   18.88    5.20
  -3  16  14    0.29    3.48
  -3  16  13   79.99    8.59
  -3  16  12  125.45    9.89
  -3  16  11   -1.84    3.57
  -3  16  10   -0.90    3.14
  -3  16   9  149.38   10.15
  -3  16   8    0.86    3.55
   3  16  -8   -0.33    1.46
  -3  16   7  127.09    9.17
   3  16  -7  139.91    6.28
  -3  16   6    3.57    3.61
   3  16  -6   -0.69    1.28
  -3  16   5  107.34    8.30
   3  16  -5  103.99    4.91
  -3  16   4   14.48    4.07
   3  16  -4   19.68    2.35
   3  16  -3   31.25    2.58
  -3  16   3   27.59    4.99
   3  16  -2    7.54    1.49
  -3  16   2    6.28    3.64
   3  16  -1   -0.58    1.16
  -3  16   1   -0.43    3.11
  -3  16   0   71.62    7.02
   3  16   1  169.57    5.43
  -3  16  -1  170.80   10.34
   3  16   2   39.43    3.49
  -3  16  -2   22.28    4.57
   3  16   3  215.42    7.27
  -3  16  -3  214.26   11.68
   3  16   4   40.08    3.53
  -3  16  -4   45.71    6.06
   3  16   5   83.74    5.37
  -3  16  -5   77.38    7.58
   3  16   6    2.76    2.40
  -3  16  -6    0.89    3.28
   3  16   7  182.79    8.53
  -3  16  -7  190.04   11.31
   3  16   8   50.15    4.91
  -3  16  -8   46.63    6.30
   3  16   9   34.09    4.44
  -3  16  -9   39.33    5.89
   3  16  10   46.30    5.24
   3  16  11   52.46    5.83
   3  16  12   36.32    5.50
   3  16  13   98.68    8.09
   3  16  14   -0.14    3.08
   3  16  15    8.77    3.69
   3  16  16   -3.19    4.38
  -3  17  13    9.56    3.93
  -3  17  12  239.50   13.50
  -3  17  11   87.41    8.30
  -3  17  10   -1.50    3.41
  -3  17   9   30.70    5.64
  -3  17   8   15.42    4.40
  -3  17   7   55.23    6.96
  -3  17   6   19.16    4.70
  -3  17   5   56.01    6.39
  -3  17   4  383.89   15.74
  -3  17   3   39.04    5.52
  -3  17   2  158.25   10.25
  -3  17   1  153.39   10.12
  -3  17   0   46.27    5.98
  -3  17  -1   68.47    6.94
  -3  17  -2   22.66    5.08
  -3  17  -3   53.11    6.55
  -3  17  -4   33.33    5.44
  -3  17  -5   61.59    7.01
  -3  17  -6   27.44    5.30
  -3  17  -7   -5.96    3.94
   3  17   8   28.43    4.11
  -3  17  -8   22.82    4.80
   3  17   9   88.21    6.76
  -3  17  -9   87.66    8.25
   3  17  10    1.49    2.87
  -3  17 -10    2.86    3.54
   3  17  11   66.51    6.44
   3  17  12    6.44    3.23
   3  17  13    6.91    3.10
  -3  18  12  192.62   12.58
  -3  18  11   15.91    4.63
  -3  18  10    3.78    3.54
  -3  18   9    5.71    3.89
  -3  18   8    3.85    3.67
  -3  18   7   17.40    4.70
  -3  18   6   11.94    4.12
  -3  18   5   36.25    5.85
  -3  18   4   40.81    5.86
  -3  18   3   76.12    7.67
  -3  18   2    0.32    2.98
  -3  18   1    0.38    3.22
  -3  18   0  152.29   10.26
  -3  18  -1    5.33    3.60
  -3  18  -2   67.94    7.12
  -3  18  -3   26.62    5.56
  -3  18  -4  169.81   11.05
  -3  18  -5  121.51    9.49
  -3  18  -6   79.34    7.98
  -3  18  -7    8.77    4.09
  -3  18  -8   -0.63    3.43
  -3  18  -9    2.95    3.70
  -3  19  10   17.32    4.98
  -3  19   9   13.64    4.39
  -3  19   8  199.09   12.25
  -3  19   7   39.33    6.23
  -3  19   6    0.47    3.40
  -3  19   5    7.86    3.98
  -3  19   4  142.72   10.33
  -3  19   3   30.68    5.68
  -3  19   2   53.78    6.80
  -3  19   1    3.40    3.47
  -3  19   0   -6.20    4.27
  -3  19  -1   31.43    5.66
  -3  19  -2   98.46    8.76
  -3  19  -3   81.16    8.39
  -3  19  -4   33.04    6.39
  -3  19  -5    4.79    3.38
  -3  19  -6    1.73    3.92
  -3  19  -7    1.87    3.28
  -3  20   7    6.98    3.98
  -3  20   6   -2.05    3.10
  -3  20   5   26.49    5.62
  -3  20   4   55.82    7.22
  -3  20   3    0.31    3.26
  -3  20   2    1.85    3.37
  -3  20   1    7.06    3.95
  -3  20   0  115.84    9.43
  -3  20  -1    6.96    4.00
  -3  20  -2   35.56    5.90
  -3  20  -3   -0.28    3.29
  -3  20  -4   29.80    5.81
  -4   0  25    2.34    3.91
  -4   0  24    8.35    3.93
  -4   0  23   -3.30    3.70
  -4   0  22    5.03    3.99
  -4   0  21    3.98    3.77
  -4   0  20   46.99    6.05
  -4   0  19    0.17    1.89
  -4   0  19    3.33    3.22
  -4   0  18   33.76    3.84
  -4   0  18   38.49    5.33
  -4   0  17    2.24    2.08
  -4   0  16  436.24   12.78
  -4   0  15   -1.20    2.03
  -4   0  14   20.03    3.20
  -4   0  14   23.59    4.06
  -4   0  13   -1.82    2.12
  -4   0  13    4.15    2.77
  -4   0  12 1299.96   22.10
   4   0 -12 1260.83   21.56
  -4   0  11    1.06    2.30
   4   0 -11    2.03    2.12
  -4   0  10  124.15    6.70
   4   0 -10  121.01    6.42
  -4   0   9    0.64    2.05
   4   0  -9   -0.36    1.55
  -4   0   8  756.07   14.65
   4   0  -8  739.09   14.31
  -4   0   7    1.59    1.87
   4   0  -7   -0.02    1.51
  -4   0   6   87.85    4.85
   4   0  -6   90.18    4.78
  -4   0   5   -1.60    1.63
   4   0  -5    0.44    1.32
  -4   0   4  209.59    6.82
   4   0  -4  206.02    6.75
  -4   0   3    4.00    1.98
  -4   0   2  137.58    5.29
  -4   0   2  132.31    5.69
  -4   0   1   -0.83    1.48
  -4   0   1   -3.33    1.80
  -4   0   0    3.18    1.58
  -4   0   0    0.12    1.47
  -4   0  -1   -7.82    2.89
  -4   0  -1    0.76    1.65
  -4   0  -1   -2.00    1.47
  -4   0  -2    7.88    2.53
  -4   0  -2   10.83    2.41
  -4   0  -2   13.30    2.41
  -4   0  -3   -2.86    2.21
  -4   0  -3   -1.35    1.54
  -4   0  -3    2.98    1.79
  -4   0  -4  153.13    7.15
  -4   0  -4  142.44    7.31
  -4   0  -5    0.78    1.92
  -4   0  -5    1.70    2.11
  -4   0  -6   55.10    4.95
   4   0   6   42.21    4.31
  -4   0  -6   44.49    4.43
   4   0   7    3.71    2.63
  -4   0  -7    0.84    2.22
  -4   0  -7    4.49    2.84
   4   0   8   67.86    5.66
  -4   0  -8   80.17    5.59
   4   0   9    0.03    2.40
  -4   0  -9   -2.40    2.26
   4   0  10  395.70   13.57
  -4   0 -10  415.73   12.36
   4   0  11   -0.15    2.62
  -4   0 -11    0.67    2.07
   4   0  12    1.49    2.82
  -4   0 -12   -2.76    2.33
   4   0  13   -3.77    3.02
   4   0  14  261.99   12.93
   4   0  15   -1.65    2.97
   4   0  16   42.84    5.92
   4   0  17   -0.04    3.25
   4   0  18  223.17   13.31
  -4  -1  25   22.01    4.82
  -4   1  24   30.12    5.55
  -4  -1  24   28.84    5.25
  -4  -1  23    5.71    3.62
  -4   1  23   11.22    4.39
  -4  -1  22   46.55    5.97
  -4   1  22   41.15    6.13
  -4  -1  21   -5.38    3.55
  -4   1  21    4.08    3.41
  -4   1  20  437.70   16.26
  -4  -1  20  415.94   15.27
  -4   1  19   78.97    7.25
  -4  -1  19   71.72    6.56
  -4  -1  19   74.31    5.37
  -4   1  19   73.64    5.32
  -4  -1  18   43.34    5.43
  -4  -1  18   35.72    4.00
  -4   1  18   43.44    4.26
  -4   1  17    5.11    2.23
  -4  -1  17   12.15    3.51
  -4  -1  17    0.80    1.83
  -4  -1  16  283.37   10.45
  -4   1  16  285.17   10.28
  -4   1  15   22.75    3.43
  -4   1  15   26.72    4.66
  -4   1  14    0.26    2.01
  -4   1  14    0.57    2.71
  -4   1  13  435.20   12.54
  -4   1  13  437.30   13.67
  -4   1  12    4.66    2.39
  -4   1  12    3.10    2.71
  -4  -1  12    4.76    2.38
   4   1 -12    5.88    2.54
  -4   1  11   74.65    5.55
   4  -1 -11   68.59    5.22
  -4  -1  11   72.11    5.39
   4   1 -11   73.38    5.21
  -4   1  11   76.56    5.79
  -4   1  10  225.76    9.12
   4   1 -10  226.26    8.40
  -4  -1  10  223.49    8.58
  -4   1  10  228.89    8.95
   4  -1 -10  221.06    8.81
  -4   1   9    0.19    2.27
  -4  -1   9    2.70    2.09
  -4   1   9    3.02    2.24
   4   1  -9    1.69    1.77
   4  -1  -9    4.50    1.93
  -4   1   8    5.63    2.47
  -4   1   8    5.19    2.34
  -4  -1   8    6.00    2.31
   4   1  -8    4.01    1.77
   4  -1  -8    1.95    1.66
  -4   1   7   50.79    4.77
  -4   1   7   47.93    4.09
  -4  -1   7   50.55    3.88
   4  -1  -7   51.73    4.04
   4   1  -7   45.40    3.47
  -4   1   6  123.03    6.89
  -4  -1   6  125.51    5.49
  -4   1   6  125.85    5.95
   4   1  -6  114.33    5.10
   4  -1  -6  120.81    5.80
  -4   1   5   31.07    3.86
  -4   1   5   35.13    3.35
  -4  -1   5   38.88    3.47
   4   1  -5   36.42    2.93
   4  -1  -5   38.19    3.31
  -4   1   4  336.20   11.03
  -4   1   4  338.36    9.03
  -4  -1   4  339.52    8.13
   4   1  -4  332.44    7.97
   4  -1  -4  330.15    8.79
  -4   1   3  143.04    7.48
  -4  -1   3  148.05    5.29
  -4   1   3  144.43    5.87
  -4  -1   2   83.81    4.44
  -4   1   2   85.23    5.86
  -4  -1   2   76.89    3.68
  -4   1   2   92.24    4.66
  -4   1   1   67.14    5.26
  -4  -1   1   70.59    4.21
  -4   1   1   69.75    4.59
  -4  -1   1   75.07    3.69
  -4   1   1   57.53    3.61
  -4   1   0  171.83    8.01
  -4   1   0  182.85    7.21
  -4  -1   0  175.82    6.58
  -4   1   0  175.22    6.23
  -4  -1   0  193.83    5.79
  -4   1  -1   12.78    2.43
  -4   1  -1   13.87    2.37
  -4  -1  -1   11.54    2.20
  -4  -1  -1   14.37    1.95
  -4   1  -1    9.13    1.69
  -4   1  -2  877.61   17.66
  -4   1  -2  888.33   16.38
  -4  -1  -2  907.77   15.58
  -4  -1  -2  883.72   12.52
  -4   1  -2  880.91   14.24
  -4   1  -3   86.16    5.89
  -4  -1  -3   85.92    5.12
  -4   1  -3   88.52    5.47
  -4  -1  -3   88.33    4.23
  -4   1  -3   83.37    4.63
  -4   1  -4  459.88   12.92
  -4  -1  -4  457.18   11.90
  -4   1  -4  487.92   12.89
  -4   1  -5    6.58    3.00
  -4  -1  -5    1.72    2.41
  -4   1  -5    4.90    3.01
  -4  -1  -5    6.18    2.33
  -4  -1  -6  266.06    9.77
  -4   1  -6  257.03    9.73
  -4   1  -6  272.25   10.25
  -4  -1  -6  266.75    9.87
   4   1   6  263.69    9.75
   4  -1   7   -0.32    2.37
   4   1   7   -0.38    2.06
  -4   1  -7   -0.35    2.18
  -4  -1  -7    0.66    2.32
  -4  -1  -7   -1.48    2.15
   4  -1   8    2.66    2.67
   4   1   8    1.56    2.27
  -4  -1  -8   -2.24    2.25
  -4   1  -8    0.06    2.11
   4  -1   9   39.42    4.99
   4   1   9   38.28    4.56
  -4  -1  -9   41.10    4.16
  -4   1  -9   43.12    4.30
   4  -1  10   64.67    6.18
   4   1  10   54.96    5.63
  -4   1 -10   63.77    5.23
  -4  -1 -10   55.98    4.92
   4  -1  11   39.03    4.99
   4   1  11   39.97    5.17
  -4  -1 -11   41.62    4.30
  -4   1 -11   37.18    4.28
   4  -1  12  116.06    8.18
   4   1  12  112.69    8.19
  -4  -1 -12  129.73    6.94
   4   1  13   69.28    6.84
   4  -1  13   60.00    6.44
  -4  -1 -13   73.72    5.28
   4   1  14   15.24    3.97
   4  -1  14   22.16    4.53
   4   1  15   76.57    7.37
   4  -1  15   64.62    7.04
   4   1  16   17.05    4.37
   4  -1  16   16.37    4.55
   4   1  17    2.56    3.44
   4  -1  17    2.33    3.74
   4   1  18   44.79    6.69
   4  -1  18   55.33    7.24
   4   1  19   41.14    6.81
  -4  -2  25   34.71    5.77
  -4   2  24   32.55    5.75
  -4  -2  24    6.27    3.31
  -4   2  23    4.20    3.82
  -4  -2  23    2.77    3.24
  -4  -2  22   -3.11    3.26
  -4   2  22    4.87    4.06
  -4  -2  21   53.91    6.12
  -4   2  21   51.63    6.53
  -4  -2  20   17.26    6.89
  -4   2  20   14.16    3.62
  -4  -2  19    9.64    3.40
  -4   2  19   10.86    2.85
  -4  -2  19    6.98    2.13
  -4  -2  18  258.40   11.22
  -4   2  18  262.94    9.69
  -4   2  17   27.18    3.55
  -4  -2  17   27.35    4.10
  -4  -2  16   65.65    5.62
  -4   2  16   54.17    4.66
  -4   2  16   65.23    6.71
  -4   2  15   81.73    5.77
  -4   2  15   83.20    7.05
  -4   2  14   45.32    4.46
  -4   2  14   52.71    5.70
  -4   2  13    2.91    2.24
  -4   2  13   -3.31    2.86
   4   2 -13    0.60    1.87
  -4   2  12  156.20    7.79
   4   2 -12  158.77    7.61
  -4   2  12  162.51    8.48
  -4   2  11  381.51   11.90
   4   2 -11  375.57   11.06
  -4   2  11  377.89   12.12
   4  -2 -11  382.70   12.15
  -4   2  10    6.26    2.55
  -4  -2  10    8.83    2.52
  -4   2  10   11.58    3.26
   4  -2 -10    9.18    2.52
   4   2 -10    6.79    2.05
  -4   2   9   13.17    2.99
  -4  -2   9   14.35    2.78
  -4   2   9   10.08    2.64
   4   2  -9   11.63    2.21
   4  -2  -9   12.44    2.65
  -4   2   8  959.46   18.75
  -4   2   8  994.57   17.65
  -4  -2   8  993.58   15.68
   4   2  -8  968.27   15.36
   4  -2  -8 1014.02   17.84
  -4   2   7  130.77    7.21
  -4   2   7  130.05    6.49
  -4  -2   7  137.62    5.71
   4  -2  -7  131.83    6.41
   4   2  -7  125.15    5.37
  -4   2   6  279.08   10.21
  -4  -2   6  293.88    7.79
  -4   2   6  276.26    8.96
   4   2  -6  286.90    7.67
   4  -2  -6  283.12    8.94
  -4   2   5  241.88    9.59
  -4   2   5  244.50    8.30
  -4  -2   5  262.13    7.03
   4   2  -5  237.42    6.57
   4  -2  -5  248.20    8.24
  -4   2   4  255.62    9.77
  -4   2   4  250.04    8.18
  -4  -2   4  258.81    6.61
   4  -2  -4  254.58    8.17
   4   2  -4  258.15    6.56
  -4  -2   3    7.14    1.79
  -4   2   3    4.67    2.63
  -4  -2   3    2.42    1.39
  -4   2   3    4.59    1.98
  -4  -2   2  285.44    7.48
  -4   2   2  296.39   10.55
  -4  -2   2  281.59    6.33
  -4   2   2  295.33    8.57
  -4  -2   1  343.44    8.44
  -4   2   1  339.73   11.18
  -4  -2   1  336.00    6.80
  -4   2   1  343.29    9.97
  -4   2   1  344.89    9.21
  -4   2   0   -0.46    2.24
  -4  -2   0    0.63    1.51
  -4   2   0   -0.95    1.50
  -4   2   0    3.03    1.97
  -4  -2   0    1.81    1.30
  -4   2  -1   33.18    4.00
  -4  -2  -1   29.87    2.92
  -4   2  -1   34.63    3.59
  -4  -2  -1   30.61    2.31
  -4   2  -1   32.33    3.25
  -4   2  -2  320.66   10.84
  -4  -2  -2  328.95    9.24
  -4   2  -2  328.25   10.32
  -4  -2  -2  330.56    7.08
  -4   2  -2  319.75    9.17
  -4   2  -3   20.49    3.23
  -4  -2  -3   17.79    2.54
  -4   2  -3   26.53    3.47
  -4   2  -3   15.46    2.27
  -4  -2  -3   21.12    2.21
  -4   2  -4   74.11    5.63
  -4  -2  -4   73.24    4.74
  -4   2  -4   74.75    5.38
  -4   2  -5  273.57   10.21
  -4   2  -5  281.08   10.34
  -4  -2  -5  275.19    9.46
   4   2   5  262.03    9.22
  -4   2  -6   39.66    4.37
  -4  -2  -6   34.12    3.61
  -4   2  -6   35.98    4.28
   4   2   6   32.09    3.77
  -4   2  -7   99.93    6.47
  -4  -2  -7  105.70    6.44
  -4  -2  -7  109.54    6.57
   4   2   7  104.18    6.48
  -4  -2  -8   -2.65    2.24
  -4  -2  -8   -0.77    2.26
  -4   2  -8    3.63    2.38
   4   2   8    1.56    2.27
  -4   2  -9   71.88    5.68
  -4  -2  -9   75.67    5.56
   4   2   9   66.32    5.79
   4  -2   9   69.26    6.21
  -4  -2 -10  284.31   10.14
   4   2  10  292.10   11.57
   4  -2  10  266.31   11.44
   4   2  11    1.73    2.43
   4  -2  11   -3.41    3.28
  -4  -2 -11    0.88    1.96
   4  -2  12  116.92    8.38
   4   2  12  115.69    8.17
  -4  -2 -12  124.58    6.90
   4   2  13   36.79    5.16
   4  -2  13   41.69    5.81
  -4  -2 -13   37.73    4.15
   4  -2  14   93.16    7.91
   4   2  14   98.97    7.91
  -4  -2 -14   99.52    6.15
   4   2  15   35.86    5.57
   4  -2  15   50.79    6.50
   4   2  16    2.81    3.16
   4  -2  16    7.52    3.66
   4  -2  17  127.26   10.07
   4   2  17  111.28    9.44
   4   2  18  101.65   10.67
   4  -2  18   59.69    7.09
   4   2  19   26.56    5.65
  -4  -3  24  124.85    9.35
  -4   3  24  115.08   10.09
  -4   3  23   12.81    4.79
  -4  -3  23    3.22    3.00
  -4   3  22  157.28   11.20
  -4  -3  22  152.00    9.61
  -4   3  21   10.77    4.44
  -4  -3  21   13.95    3.79
  -4  -3  20  156.22    9.20
  -4  -3  19   93.68    7.04
  -4  -3  18   84.32    6.45
  -4  -3  17   52.78    5.16
  -4   3  17   46.76    5.81
  -4   3  17   68.86    5.29
  -4  -3  16  215.05    9.29
  -4   3  16  198.47   10.70
  -4   3  16  205.42    8.73
  -4  -3  15   60.17    5.14
  -4   3  15   57.86    6.04
  -4   3  15   60.54    5.06
  -4  -3  14  117.30    6.48
  -4   3  14  115.42    6.75
  -4   3  14  108.75    7.71
  -4   3  13   21.29    3.26
  -4   3  13   25.89    4.45
   4   3 -13   24.32    3.43
  -4   3  12  591.04   14.88
   4   3 -12  553.87   13.70
  -4   3  12  577.22   15.64
  -4   3  11   35.65    4.15
  -4   3  11   36.52    4.60
   4   3 -11   32.69    3.49
  -4   3  10  219.42    9.25
   4   3 -10  211.39    7.82
  -4   3  10  210.39    9.18
   4  -3 -10  212.32    9.09
  -4   3   9  316.40   10.88
  -4   3   9  325.89   10.92
   4   3  -9  307.07    8.85
   4  -3  -9  328.43   10.83
  -4   3   8    0.51    2.27
  -4   3   8    1.88    2.39
   4  -3  -8    0.29    1.73
   4   3  -8    0.52    1.31
  -4   3   7  271.72   10.09
  -4  -3   7  279.82    7.72
  -4   3   7  265.82    9.34
   4  -3  -7  277.72    9.54
   4   3  -7  271.90    7.48
  -4   3   6    7.94    2.61
  -4  -3   6   10.64    2.02
   4   3  -6    7.95    1.59
  -4   3   6    9.48    2.64
   4  -3  -6    7.66    2.36
  -4   3   5   63.26    5.22
  -4  -3   5   67.10    3.52
  -4   3   5   63.56    4.66
   4   3  -5   64.18    3.33
   4  -3  -5   61.07    4.45
  -4   3   4  770.72   16.81
  -4  -3   4  784.23   10.58
  -4   3   4  754.05   14.56
   4  -3  -4  752.34   14.54
  -4  -3   4  742.66   10.85
   4   3  -4  771.83   10.40
  -4  -3   3    1.62    1.19
  -4   3   3    1.36    2.40
  -4  -3   3    8.97    1.73
  -4   3   3   -1.31    2.04
  -4  -3   2  347.69    7.76
  -4   3   2  360.55   11.65
  -4  -3   2  351.21    6.29
  -4   3   2  362.17   10.00
  -4  -3   1   37.78    2.84
  -4   3   1   45.76    4.70
  -4  -3   1   44.08    2.32
  -4   3   1   43.19    3.91
  -4  -3   0  519.51   10.16
  -4   3   0  511.54   13.93
  -4  -3   0  518.20    7.33
  -4   3   0  525.62   12.01
  -4   3   0  527.15   12.93
  -4   3  -1   71.02    5.53
  -4  -3  -1   76.13    4.26
  -4   3  -1   72.86    5.10
  -4   3  -1   71.24    4.77
  -4  -3  -1   68.49    2.86
  -4   3  -2  117.25    6.79
  -4  -3  -2  115.10    5.39
  -4   3  -2  124.17    6.65
  -4  -3  -2  119.00    3.89
  -4   3  -2  116.90    6.05
  -4   3  -3  527.66   14.11
  -4  -3  -3  519.37   11.76
  -4   3  -3  544.24   13.93
  -4  -3  -3  545.82    8.68
  -4   3  -3  531.10   12.38
  -4   3  -4   17.31    3.09
   4   3   4   16.77    2.75
  -4   3  -4   13.10    2.90
  -4  -3  -4   13.12    2.03
  -4  -3  -5   61.58    4.44
   4   3   5   62.40    4.62
  -4   3  -5   65.45    5.32
  -4   3  -5   63.05    5.29
  -4  -3  -6  845.87   16.94
   4   3   6  854.07   16.68
  -4   3  -6  848.62   17.96
  -4  -3  -7  268.46    9.97
   4   3   7  262.17    9.84
  -4   3  -7  264.90   10.26
   4   3   8  313.40   11.19
  -4  -3  -8  348.99   11.77
   4   3   9  217.69    9.72
  -4  -3  -9  240.59    9.41
   4  -3  10   25.65    4.38
   4   3  10   26.64    4.38
  -4  -3 -10   21.64    3.44
   4  -3  11    7.72    2.95
   4   3  11   15.98    3.79
  -4  -3 -11   15.91    2.93
   4  -3  12   10.91    3.81
   4   3  12   10.96    3.50
  -4  -3 -12   10.04    2.73
   4  -3  13  138.92    9.33
   4   3  13  129.56    8.72
  -4  -3 -13  150.69    7.53
   4  -3  14   26.11    4.88
   4   3  14   34.61    5.37
  -4  -3 -14   28.98    3.61
   4  -3  15   16.19    4.30
   4   3  15   -0.58    3.16
  -4  -3 -15    9.06    2.50
   4  -3  16   40.15    6.04
   4   3  16   27.14    5.27
   4  -3  17  132.65   10.22
   4   3  17  122.53    9.87
   4  -3  18   24.54    5.16
   4   3  18   28.18    5.49
   4   3  19   84.67    8.74
  -4   4  23   17.04    4.90
  -4   4  22   53.16    7.29
  -4  -4  22   40.88    5.66
  -4  -4  21  132.52    8.55
  -4  -4  20   -1.34    2.79
  -4  -4  19  142.78    8.27
  -4   4  18   31.56    5.37
  -4  -4  18   38.13    4.61
  -4  -4  17   63.76    5.28
  -4   4  17   71.50    7.21
  -4   4  16   -0.30    3.13
  -4  -4  16   -1.01    2.15
  -4   4  15   41.95    5.51
  -4  -4  15   39.50    4.12
  -4   4  15   36.83    4.07
  -4   4  14   13.61    3.99
  -4  -4  14   12.11    2.76
  -4   4  14    9.78    2.97
   4   4 -13   11.35    2.58
  -4   4  13   19.28    4.30
  -4  -4  13   21.24    3.11
  -4   4  13   17.54    3.24
  -4  -4  12   50.49    3.95
  -4   4  12   47.80    4.59
   4   4 -12   44.68    4.16
  -4   4  12   50.92    5.39
  -4   4  11  334.37   11.26
  -4   4  11  347.03   12.21
   4   4 -11  335.18   10.11
  -4   4  10   21.66    3.50
  -4   4  10   16.20    3.30
   4   4 -10   19.86    2.78
  -4   4   9  350.14   11.54
   4   4  -9  329.95    9.02
  -4   4   9  351.81   11.64
   4  -4  -9  354.03   11.68
  -4   4   8  699.13   16.20
   4   4  -8  670.36   12.02
  -4   4   8  691.25   15.76
   4  -4  -8  720.89   15.98
  -4   4   7  262.48   10.11
  -4   4   7  252.51    9.53
   4  -4  -7  258.24    9.46
   4   4  -7  252.28    6.95
  -4   4   6   90.48    6.15
  -4   4   6   87.62    5.68
   4  -4  -6   92.15    5.65
   4   4  -6   88.75    3.90
  -4   4   5  451.87   13.17
  -4   4   5  446.74   11.95
   4  -4  -5  459.79   12.24
   4   4  -5  459.55    8.01
  -4  -4   5  448.38    7.55
  -4  -4   4   58.64    2.89
  -4   4   4   58.51    5.15
  -4  -4   4   66.31    2.97
  -4   4   4   54.94    4.57
   4   4  -4   57.28    2.71
   4  -4  -4   58.42    4.44
  -4  -4   3   -0.40    0.99
  -4   4   3   -0.19    2.20
  -4  -4   3    1.54    1.04
  -4   4   3   -2.71    2.33
  -4  -4   2  118.44    4.25
  -4   4   2  122.00    7.07
  -4  -4   2  123.86    3.16
  -4   4   2  123.97    6.26
  -4  -4   1   41.73    2.80
  -4   4   1   44.32    4.64
  -4  -4   1   39.54    1.61
  -4   4   1   38.12    3.77
  -4   4   0   -1.36    2.16
  -4   4   0    4.37    2.67
  -4  -4   0    0.68    1.18
  -4  -4   0    3.69    0.96
  -4   4   0   -1.55    2.17
  -4  -4  -1  645.73   11.40
  -4   4  -1  673.46   15.25
  -4   4  -1  658.41   15.84
  -4  -4  -1  658.12    6.84
  -4   4  -1  644.17   13.96
  -4   4  -2   86.40    6.08
  -4  -4  -2   88.24    4.72
  -4   4  -2   83.31    5.73
  -4  -4  -2   88.20    2.85
  -4   4  -2   85.97    5.40
  -4   4  -3   85.85    5.99
  -4  -4  -3   90.00    4.92
  -4   4  -3   88.34    6.04
  -4   4  -3   87.15    5.53
  -4  -4  -3   91.23    3.24
   4   4   4   31.88    3.32
  -4  -4  -4   36.35    3.38
  -4   4  -4   36.39    4.19
  -4   4  -4   39.68    4.36
   4   4   5  811.79   15.45
  -4  -4  -5  836.08   15.78
  -4   4  -5  825.50   17.93
   4   4   6    1.67    1.99
  -4  -4  -6    2.45    1.90
   4   4   7   23.71    3.57
  -4  -4  -7   24.99    3.57
   4   4   8   34.61    4.09
  -4  -4  -8   41.36    4.37
   4   4   9    5.51    2.69
  -4  -4  -9    4.84    1.94
   4   4  10  225.36   10.29
  -4  -4 -10  249.82    8.88
   4   4  11  266.86   11.56
  -4  -4 -11  304.45   10.52
  -4  -4 -11  286.37   10.00
   4  -4  11  277.16   12.45
   4  -4  12   15.13    4.24
   4   4  12    7.95    3.43
  -4  -4 -12   13.57    2.78
  -4  -4 -12   18.40    3.08
  -4  -4 -13    6.93    2.38
   4  -4  13    8.58    3.63
   4   4  13    5.10    3.43
  -4  -4 -14  110.52    6.36
   4   4  14   90.67    7.85
   4  -4  14   92.60    8.06
  -4  -4 -15  229.20    8.88
   4   4  15  214.53   11.76
   4  -4  15  212.68   12.11
   4   4  16    0.70    3.05
   4  -4  16   -0.66    3.08
   4  -4  17   99.16    9.05
   4   4  17   93.99    8.68
   4  -4  18   24.15    5.66
   4   4  18   16.87    4.67
   4   4  19   -0.42    3.29
  -4  -5  21    1.46    2.61
  -4  -5  20    5.58    2.81
  -4  -5  19  132.07    7.71
  -4   5  19  137.57   10.18
  -4   5  18    9.80    3.86
  -4  -5  18   11.49    2.95
  -4   5  17   16.80    4.37
  -4  -5  17   14.01    2.92
  -4   5  16   -2.39    2.89
  -4  -5  16    0.13    1.92
  -4   5  15   -0.60    2.85
  -4  -5  15    2.68    2.08
  -4  -5  14  107.12    5.72
  -4   5  14  106.54    7.82
  -4  -5  13  277.68    8.41
   4   5 -13  263.69    9.75
  -4   5  13  268.40   11.69
  -4   5  12   22.89    3.68
  -4  -5  12   23.51    2.68
  -4   5  12   25.36    4.45
   4   5 -12   22.33    3.03
  -4  -5  11   28.17    2.95
  -4   5  11   30.65    4.12
  -4   5  11   18.47    3.97
   4   5 -11   26.48    3.08
  -4  -5  10   33.03    2.77
  -4   5  10   37.01    4.34
   4   5 -10   33.16    3.27
  -4   5  10   31.33    4.34
  -4   5   9  243.28    9.92
  -4   5   9  237.51    9.94
   4   5  -9  239.45    7.55
  -4   5   8   23.02    3.67
  -4   5   8   21.11    3.67
   4  -5  -8   22.15    3.45
   4   5  -8   22.29    2.42
  -4   5   7   53.46    5.05
  -4   5   7   55.15    4.95
   4   5  -7   51.38    3.15
   4  -5  -7   61.06    4.93
  -4   5   6   46.56    4.74
  -4   5   6   46.12    4.54
  -4  -5   6   42.69    2.14
   4   5  -6   42.46    2.63
   4  -5  -6   45.82    4.38
  -4  -5   5  141.31    3.56
  -4   5   5  145.20    7.72
  -4   5   5  136.27    7.06
   4  -5  -5  137.64    7.09
   4   5  -5  140.48    4.11
  -4   5   4    4.26    2.72
  -4  -5   4    2.37    0.81
  -4   5   4    0.28    2.29
   4  -5  -4    3.56    1.81
   4   5  -4    1.94    0.79
  -4   5   3  481.57   13.76
  -4  -5   3  476.08    7.03
  -4   5   3  474.82   12.53
  -4   5   2   36.58    4.48
  -4  -5   2   34.12    2.21
  -4   5   2   37.50    3.91
  -4   5   1    1.16    2.33
  -4  -5   1    0.04    1.15
  -4   5   1    0.46    2.21
  -4   5   0    2.71    2.69
  -4  -5   0    4.43    1.47
  -4   5   0    4.51    2.38
  -4   5  -1   35.19    4.46
  -4   5  -1   35.52    4.03
  -4  -5  -1   32.72    2.72
  -4   5  -1   32.51    3.88
  -4   5  -2  169.02    8.41
  -4   5  -2  172.08    8.18
  -4  -5  -2  165.27    5.89
  -4   5  -2  160.71    7.57
  -4   5  -3  496.99   13.97
  -4  -5  -3  485.81   10.73
  -4  -5  -3  495.17    6.10
  -4  -5  -3  499.90    5.95
  -4   5  -3  481.67   12.93
   4   5   3  475.05   10.52
   4   5   4  116.43    5.62
  -4  -5  -4  112.57    5.53
  -4  -5  -4  117.19    3.62
  -4   5  -4  107.77    6.39
   4   5   5  114.84    5.92
  -4  -5  -5  114.52    5.87
  -4  -5  -5  120.50    4.14
  -4  -5  -6   53.29    4.60
   4   5   6   38.19    3.93
  -4  -5  -6   39.67    2.83
  -4  -5  -7  166.64    7.91
   4   5   7  151.55    7.43
  -4  -5  -7  149.53    5.56
  -4  -5  -8   53.97    5.38
   4   5   8   33.24    4.10
  -4  -5  -8   46.05    3.42
   4   5   9  164.72    8.52
  -4  -5  -9  165.82    6.69
   4   5  10    4.94    2.66
  -4  -5 -10    5.98    2.15
   4   5  11   32.50    4.43
  -4  -5 -11   39.49    4.01
   4   5  12   48.38    5.53
  -4  -5 -12   46.63    4.40
  -4  -5 -12   45.83    4.37
  -4  -5 -13  252.22    9.52
   4   5  13  216.89   11.11
   4  -5  13  217.80   11.72
  -4  -5 -14    1.00    2.16
   4   5  14    1.16    3.05
   4  -5  14    3.69    3.38
  -4  -5 -15   26.73    3.55
   4   5  15   21.24    4.56
   4  -5  15   20.93    4.90
   4   5  16    4.61    3.28
   4  -5  16    1.39    3.47
   4   5  17  120.55    9.70
   4  -5  17  113.21    9.73
   4   5  18    2.82    3.35
  -4   6  20   64.20    7.45
  -4  -6  19  106.26    6.88
  -4   6  19  106.43    9.10
  -4  -6  18  268.33   10.13
  -4   6  18  255.12   13.20
  -4  -6  17  189.78    8.29
  -4   6  17  179.09   10.92
  -4   6  16    6.18    3.52
  -4  -6  16    7.66    2.16
  -4   6  15   14.42    4.24
  -4  -6  15   15.96    2.64
   4   6 -14   17.07    3.15
  -4   6  14   22.21    4.32
  -4  -6  14   15.89    2.54
   4   6 -13   27.59    3.38
  -4   6  13   29.88    4.63
  -4  -6  13   33.28    3.11
  -4  -6  12   68.55    3.86
  -4   6  12   57.05    5.82
   4   6 -12   56.25    4.44
  -4  -6  11  156.77    5.19
  -4   6  11  155.76    8.80
   4   6 -11  149.84    6.64
  -4   6  10   23.44    4.02
   4   6 -10   23.80    2.80
  -4  -6  10   23.26    2.08
  -4  -6   9  327.17    5.97
   4   6  -9  314.83    8.42
  -4   6   9  312.09   11.68
  -4  -6   8   39.19    1.92
   4   6  -8   39.19    3.01
  -4   6   8   36.23    4.44
  -4  -6   7    7.55    0.89
  -4  -6   7    7.20    0.80
   4   6  -7    6.64    1.42
  -4   6   7    7.76    3.02
  -4   6   6    3.81    2.83
   4  -6  -6    1.49    2.09
   4   6  -6   -0.24    0.99
  -4   6   6    1.55    2.49
  -4   6   5   75.17    5.94
  -4   6   5   62.15    5.09
   4   6  -5   75.47    2.76
   4  -6  -5   74.79    5.45
  -4   6   4   34.65    4.48
   4  -6  -4   30.96    3.69
  -4   6   4   31.67    3.96
  -4  -6   3    4.23    0.85
  -4   6   3    6.71    2.74
  -4  -6   2    4.42    1.05
  -4   6   2    3.18    2.34
  -4  -6   1  171.51    4.50
  -4   6   1  177.47    8.16
  -4  -6   0  160.98    4.86
  -4   6   0  150.49    7.53
  -4  -6  -1  214.70    6.08
  -4   6  -1  220.85    9.28
  -4   6  -1  200.83    8.64
  -4  -6  -2   81.76    4.07
  -4   6  -2   86.68    6.04
  -4  -6  -3   -2.46    1.84
   4   6   3   -2.79    1.64
  -4   6  -3    1.53    2.14
   4   6   4    2.14    1.58
  -4  -6  -4    0.15    1.60
  -4  -6  -4    2.16    0.86
  -4  -6  -4    1.38    0.71
  -4   6  -4    1.88    2.29
  -4  -6  -5  341.95    9.95
   4   6   5  325.40    9.61
  -4  -6  -5  346.10    6.18
   4   6   6  153.89    7.04
  -4  -6  -6  165.96    4.95
   4   6   7   -0.76    2.17
  -4  -6  -7    2.59    1.45
   4   6   8   19.54    3.36
  -4  -6  -8   25.00    2.70
   4   6   9   11.86    3.10
  -4  -6  -9   14.80    2.34
   4   6  10   32.88    4.55
  -4  -6 -10   34.59    3.44
   4   6  11  385.31   13.65
  -4  -6 -11  401.20   11.08
   4   6  12   -0.33    2.56
  -4  -6 -12    1.71    1.95
   4   6  13    2.31    3.21
  -4  -6 -13    1.55    2.25
   4   6  14   44.34    5.75
  -4  -6 -14   52.29    4.71
   4   6  15  165.34   10.79
   4  -6  16   -3.89    3.78
   4   6  16    0.47    2.94
   4  -6  17   72.26    7.90
   4   6  17   80.00    8.16
   4   6  18   19.63    5.15
  -4   7  20    0.81    3.78
  -4   7  19   63.74    7.36
  -4  -7  18   79.08    5.62
  -4   7  18   84.37    7.91
  -4  -7  17   51.92    4.35
  -4   7  17   45.01    6.46
  -4   7  16   26.99    5.26
  -4  -7  16   19.51    2.86
  -4   7  15   35.08    5.43
  -4  -7  15   29.18    3.22
  -4  -7  14  549.41   11.05
   4   7 -14  492.46   13.73
  -4   7  14  535.60   17.40
  -4  -7  13   30.16    2.72
   4   7 -13   30.07    3.71
  -4   7  13   31.92    5.32
  -4  -7  12  181.47    5.44
  -4   7  12  157.86    9.29
   4   7 -12  165.91    7.29
  -4  -7  11  218.92    5.27
  -4   7  11  204.66   10.23
   4   7 -11  208.86    7.72
  -4  -7  10  119.75    3.31
  -4   7  10  116.83    7.80
   4   7 -10  112.52    5.38
  -4  -7   9    7.74    0.77
  -4   7   9    5.18    3.27
   4   7  -9    8.01    1.86
   4   7  -8   53.75    3.29
  -4   7   8   54.72    5.42
   4   7  -7  195.78    5.45
  -4   7   7  181.97    9.05
  -4   7   6  248.34   10.19
   4   7  -6  254.57    5.39
  -4   7   5   74.32    5.80
   4   7  -5   73.55    2.37
  -4   7   4   66.33    5.49
  -4   7   3   53.87    5.05
  -4   7   2  406.17   12.41
  -4   7   1  236.46    9.54
  -4   7   0   68.18    5.62
  -4   7  -1   87.72    6.16
  -4   7  -2   11.92    2.97
   4   7   3  789.41   13.05
  -4   7  -3  802.37   17.89
   4   7   4   45.37    3.53
  -4   7  -4   37.16    4.42
   4   7   5    4.24    1.93
  -4  -7  -5    3.64    0.91
   4   7   6    9.53    2.49
  -4  -7  -6   14.11    1.60
   4   7   7   38.45    4.02
  -4  -7  -7   42.07    2.70
   4   7   8    9.58    2.64
  -4  -7  -8   14.42    2.03
   4   7   9   14.18    3.10
  -4  -7  -9   19.01    2.47
   4   7  10   19.18    3.64
  -4  -7 -10   24.32    2.86
   4   7  11   29.33    4.57
  -4  -7 -11   31.91    3.52
   4   7  12   59.35    5.94
   4   7  13  237.84   11.63
   4   7  14   15.69    3.95
   4   7  15    4.38    3.65
   4   7  16  241.96   12.95
   4   7  17    1.68    3.39
   4   7  18    9.61    4.11
  -4   8  20   52.95    7.28
  -4   8  19    6.30    3.99
  -4   8  18  203.16   12.74
  -4   8  17   10.58    4.90
  -4  -8  16   -0.69    1.77
  -4   8  16   -2.52    3.47
  -4  -8  15  104.57    5.05
  -4   8  15  103.26    8.37
  -4  -8  14    6.01    1.73
  -4   8  14   13.97    4.29
   4   8 -14    8.82    2.60
  -4  -8  13   28.26    2.43
  -4   8  13   24.29    4.71
   4   8 -13   21.34    3.20
  -4  -8  12   62.95    2.88
   4   8 -12   54.13    4.31
  -4   8  12   58.06    6.15
  -4  -8  11   79.94    2.51
   4   8 -11   73.23    4.71
  -4   8  11   73.67    6.53
  -4   8  10    8.86    3.30
   4   8 -10    8.93    1.82
   4   8  -9   20.18    2.21
  -4   8   9   21.92    4.23
   4   8  -8   11.03    1.71
  -4   8   8    9.82    3.52
   4   8  -7  150.46    4.64
  -4   8   7  166.53    8.81
   4   8  -6   92.34    3.07
  -4   8   6   79.37    6.19
  -4   8   5   76.72    6.03
   4   8  -5   64.50    1.86
  -4   8   4    1.96    2.55
  -4   8   3   29.56    4.11
  -4   8   2  309.88   11.28
  -4   8   1  102.22    6.81
  -4   8   0  233.90   10.01
  -4   8  -1  346.51   11.98
   4   8   2   89.88    4.12
  -4   8  -2   91.99    6.50
   4   8   3  416.82    9.31
  -4   8  -3  432.01   13.71
   4   8   4  137.53    5.89
  -4   8  -4  139.12    8.07
   4   8   5  174.68    6.99
  -4   8  -5  184.46    9.23
   4   8   6  109.36    6.05
  -4  -8  -6  111.03    3.32
   4   8   7   57.83    4.79
  -4  -8  -7   64.27    3.11
   4   8   8  545.55   14.36
  -4  -8  -8  568.43    9.89
   4   8   9   55.27    5.16
  -4  -8  -9   59.40    3.71
   4   8  10   23.16    3.91
   4   8  11   11.75    3.45
   4   8  12  202.89   10.53
   4   8  13   49.03    5.75
   4   8  14   -1.31    3.09
   4   8  15  122.09    9.14
   4   8  16   37.66    6.12
   4   8  17  109.51    9.23
   4   8  18   20.17    4.97
  -4   9  19   25.24    5.48
  -4   9  18   52.41    6.75
  -4   9  17    0.75    3.94
  -4   9  16  117.49    9.51
  -4   9  15   10.96    4.37
  -4   9  14  172.50   10.70
  -4  -9  13   41.46    2.33
   4   9 -13   36.19    3.91
  -4   9  13   39.57    5.51
   4   9 -12   -3.87    6.40
  -4   9  12    1.13    3.02
   4   9 -11  128.56    6.09
  -4   9  11  138.03    8.86
   4   9 -10  794.86   13.79
  -4   9  10  800.12   20.37
   4   9  -9    5.86    1.66
  -4   9   9    6.76    3.40
  -4   9   8   71.07    6.36
   4   9  -8   66.58    3.58
   4   9  -7   19.18    1.83
  -4   9   7   19.16    3.85
   4   9  -6  515.62    6.70
  -4   9   6  531.22   15.57
  -4   9   5    5.58    3.11
  -4   9   4  145.71    8.35
  -4   9   3  248.03   10.59
  -4   9   2  270.61   11.02
  -4   9   1    2.91    2.68
  -4   9   0   90.45    6.75
  -4   9  -1   38.04    4.75
   4   9   2    3.84    1.30
  -4   9  -2    1.61    2.48
   4   9   3   -0.62    1.33
  -4   9  -3   -0.66    2.52
   4   9   4  132.46    5.71
  -4   9  -4  123.29    7.88
   4   9   5    1.06    1.56
  -4   9  -5   -0.67    2.54
   4   9   6    2.46    1.77
  -4  -9  -6    3.37    0.80
   4   9   7   60.02    4.85
  -4  -9  -7   71.43    2.99
   4   9   8   97.90    6.34
  -4  -9  -8   99.55    4.07
   4   9   9   11.91    3.03
   4   9  10   90.25    6.62
   4   9  11    1.26    2.78
   4   9  12  240.18   11.34
   4   9  13  138.49    9.08
   4   9  14   32.34    5.35
   4   9  15    7.02    3.92
   4   9  16   86.00    8.08
   4   9  17   -3.73    3.44
   4   9  18   52.46    7.25
  -4  10  19   13.04    5.07
  -4  10  18   96.77    8.82
  -4  10  17    9.18    4.21
  -4  10  16   -7.53    4.02
  -4  10  15    3.29    3.70
  -4  10  14   40.59    5.86
  -4  10  13    5.72    3.60
  -4  10  12   12.42    4.06
   4  10 -12   13.77    2.74
   4  10 -11    2.78    1.75
  -4  10  11   -2.59    3.43
   4  10 -10   56.11    3.93
  -4  10  10   62.82    6.58
   4  10  -9    5.42    1.49
  -4  10   9    8.34    3.58
   4  10  -8   60.23    3.39
  -4  10   8   67.83    6.49
   4  10  -7    0.97    0.94
  -4  10   7    1.04    2.70
   4  10  -6  151.97    3.42
  -4  10   6  149.56    8.69
  -4  10   5   -2.13    2.99
  -4  10   4   31.14    4.53
  -4  10   3    0.40    2.71
  -4  10   2  382.10   13.29
  -4  10   1    2.28    2.97
  -4  10   0   52.28    5.43
  -4  10  -1   92.96    7.07
   4  10   2   71.71    3.44
  -4  10  -2   71.11    6.32
   4  10   3   -0.40    1.38
  -4  10  -3    2.41    2.82
   4  10   4  382.63    9.53
  -4  10  -4  380.52   13.92
   4  10   5   15.79    2.44
  -4  10  -5    9.91    3.39
   4  10   6  152.15    7.02
  -4  10  -6  158.49    9.26
   4  10   7   26.32    3.42
  -4 -10  -7   28.77    1.87
   4  10   8  173.72    8.25
   4  10   9   21.73    3.63
   4  10  10    0.86    2.49
   4  10  11   19.61    3.73
   4  10  12   33.01    4.74
   4  10  13    3.07    3.19
   4  10  14    2.71    2.84
   4  10  15    9.30    3.97
   4  10  16    3.58    3.51
   4  10  17   -3.16    3.41
   4  10  18   33.33    5.71
  -4  11  18    7.84    3.94
  -4  11  17    3.05    4.19
  -4  11  16   45.96    6.46
  -4  11  15    1.39    3.83
  -4  11  14   52.61    6.85
  -4  11  13   39.60    5.74
  -4  11  12   12.46    4.09
  -4  11  11   -0.33    3.35
  -4  11  10  350.60   14.28
   4  11  -9   17.16    2.27
  -4  11   9   15.49    4.29
   4  11  -8    5.50    1.42
  -4  11   8    6.59    3.45
   4  11  -7    6.15    1.07
  -4  11   7   10.69    3.54
  -4  11   6  509.68   16.38
   4  11  -6  481.11    5.76
   4  11  -6  535.52    6.11
  -4  11   5   21.30    4.26
  -4  11   4    4.55    2.85
  -4  11   3   -1.58    2.94
  -4  11   2   23.27    4.24
  -4  11   1    2.03    3.08
  -4  11   0   61.46    6.04
  -4  11  -1   -0.49    2.87
   4  11   2    8.98    1.83
  -4  11  -2    9.11    3.51
   4  11   3    3.94    1.39
  -4  11  -3    3.04    2.75
   4  11   4   73.08    4.22
  -4  11  -4   75.47    6.74
   4  11   5    6.16    2.02
  -4  11  -5    2.41    2.96
   4  11   6    1.20    1.61
  -4  11  -6    2.29    2.95
   4  11   7   -0.98    2.04
  -4  11  -7   -2.36    2.96
   4  11   8   52.80    4.86
   4  11   9   47.72    4.84
   4  11  10   39.71    4.68
   4  11  11    3.88    2.91
   4  11  12  271.03   12.17
   4  11  13    5.46    3.22
   4  11  14   12.16    3.93
   4  11  15    3.95    3.70
   4  11  16   83.48    8.02
   4  11  17   -2.61    3.43
  -4  12  17   10.97    4.86
  -4  12  16    5.46    3.80
  -4  12  15  180.87   11.76
  -4  12  14   70.78    7.55
  -4  12  13   18.09    4.39
  -4  12  12  108.72    8.87
  -4  12  11  160.57   10.33
  -4  12  10  129.63    9.43
  -4  12   9    5.09    3.34
  -4  12   8   91.23    7.69
  -4  12   7   71.34    6.84
  -4  12   6   88.62    7.43
   4  12  -6   70.31    2.14
   4  12  -6   77.91    2.31
  -4  12   5  146.92    9.28
  -4  12   4    5.34    3.43
  -4  12   3   30.07    4.66
  -4  12   2   89.91    7.29
  -4  12   1  290.26   12.44
  -4  12   0    7.33    3.49
  -4  12  -1   33.07    5.37
   4  12   2  233.93    5.68
  -4  12  -2  230.45   11.36
   4  12   3  103.95    4.55
  -4  12  -3   94.71    7.55
   4  12   4  104.94    5.10
  -4  12  -4   93.87    7.62
   4  12   5    3.32    1.53
  -4  12  -5    5.31    3.24
   4  12   6   91.03    5.45
  -4  12  -6   98.70    8.04
   4  12   7   60.18    4.74
  -4  12  -7   65.10    6.79
   4  12   8  115.15    6.79
   4  12   9   11.14    2.85
   4  12  10   31.06    4.37
   4  12  11   14.48    3.35
   4  12  12   46.62    5.58
   4  12  13   15.07    4.20
   4  12  14    0.50    3.07
   4  12  15    5.22    3.29
   4  12  16    1.63    3.44
   4  12  17   95.22    8.92
  -4  13  16   46.19    6.20
  -4  13  15   42.06    6.69
  -4  13  14  135.37   10.23
  -4  13  13   41.90    6.06
  -4  13  12   49.81    6.61
  -4  13  11   52.88    6.76
  -4  13  10  151.00   10.12
  -4  13   9   16.28    4.50
  -4  13   8   25.34    4.66
  -4  13   7   49.44    5.98
  -4  13   6  318.08   13.65
  -4  13   5    5.82    3.51
  -4  13   4  190.39   10.77
  -4  13   3  236.73   11.83
  -4  13   2  261.57   12.30
  -4  13   1  179.64   10.33
  -4  13   0   16.75    3.97
  -4  13  -1    2.01    2.86
   4  13   2    2.63    1.10
  -4  13  -2    2.30    3.11
   4  13   3  184.96    5.82
  -4  13  -3  184.46   10.72
   4  13   4    7.71    1.79
  -4  13  -4    4.67    3.16
   4  13   5    2.64    1.75
  -4  13  -5   -7.34    4.23
   4  13   6  127.77    6.47
  -4  13  -6  113.01    8.79
   4  13   7    8.58    2.48
  -4  13  -7   -0.33    3.22
   4  13   8   11.65    3.04
  -4  13  -8    7.76    3.38
   4  13   9  122.51    7.36
   4  13  10   21.00    3.65
   4  13  11    5.45    2.88
   4  13  12  106.66    7.98
   4  13  13   40.11    5.70
   4  13  14    2.62    2.76
   4  13  15   -1.39    3.22
   4  13  16  139.23   10.29
   4  13  17    8.18    3.76
  -4  14  15  151.33   11.35
  -4  14  14   15.34    4.89
  -4  14  13   16.99    4.80
  -4  14  12    0.43    3.35
  -4  14  11  263.00   13.60
  -4  14  10    9.39    4.13
  -4  14   9  160.41   10.63
  -4  14   8   12.03    3.96
  -4  14   7   10.80    4.06
  -4  14   6   27.51    4.78
  -4  14   5  124.13    8.90
  -4  14   4   41.55    5.55
  -4  14   3    1.19    3.22
  -4  14   2   10.51    3.61
  -4  14   1  192.82   11.00
  -4  14   0   37.34    5.61
  -4  14  -1  329.63   14.22
  -4  14  -2   47.85    6.05
  -4  14  -3    0.66    2.81
  -4  14  -4   24.44    4.93
  -4  14  -5  102.89    8.44
   4  14   6   29.92    3.36
  -4  14  -6   28.73    5.23
   4  14   7   21.78    3.21
  -4  14  -7   19.33    4.80
   4  14   8    2.03    2.13
  -4  14  -8    3.81    3.74
   4  14   9   11.60    3.09
  -4  14  -9    8.45    3.87
   4  14  10    1.55    2.24
   4  14  11   84.53    6.94
   4  14  12   44.20    5.43
   4  14  13   -0.90    2.64
   4  14  14    4.66    3.42
  -4  15  14   18.04    5.45
  -4  15  13  281.90   14.80
  -4  15  12    6.83    4.20
  -4  15  11   -0.74    3.46
  -4  15  10   50.24    6.98
  -4  15   9   -3.29    3.11
  -4  15   8    4.79    3.30
  -4  15   7   94.44    8.28
  -4  15   6    1.48    3.11
  -4  15   5   93.46    8.15
  -4  15   4    4.79    3.50
  -4  15   3  183.73   10.95
  -4  15   2    1.82    3.41
  -4  15   1   94.71    8.18
  -4  15   0   26.63    5.33
  -4  15  -1   14.74    4.43
  -4  15  -2    4.02    3.77
  -4  15  -3  220.97   12.20
  -4  15  -4    5.72    3.04
  -4  15  -5   75.29    7.68
  -4  15  -6    4.21    3.17
  -4  15  -7  101.92    8.94
  -4  15  -8   41.99    6.29
  -4  15  -9   96.31    8.80
  -4  15 -10   42.35    6.15
  -4  16  12   -2.12    3.61
  -4  16  11   45.72    6.53
  -4  16  10    0.73    3.47
  -4  16   9  116.95    9.61
  -4  16   8   65.54    7.66
  -4  16   7   37.96    5.88
  -4  16   6    0.16    3.55
  -4  16   5  252.59   13.23
  -4  16   4  164.10   10.79
  -4  16   3   -0.59    3.18
  -4  16   2    0.18    3.25
  -4  16   1   15.97    3.88
  -4  16   0   10.40    4.00
  -4  16  -1  256.80   13.32
  -4  16  -2    4.59    3.84
  -4  16  -3    3.01    3.65
  -4  16  -4   25.37    5.45
  -4  16  -5   80.39    8.08
  -4  16  -6    7.57    4.14
  -4  16  -7   55.32    6.87
  -4  16  -8   31.71    5.85
  -4  16  -9    3.21    3.53
  -4  17  10    4.60    3.89
  -4  17   9   29.62    5.67
  -4  17   8    7.92    4.19
  -4  17   7   66.41    7.67
  -4  17   6   36.31    5.60
  -4  17   5   48.38    6.50
  -4  17   4  171.93   11.19
  -4  17   3   50.56    6.45
  -4  17   2    2.65    3.81
  -4  17   1    6.86    3.60
  -4  17   0   44.48    6.41
  -4  17  -1    7.42    4.25
  -4  17  -2   35.96    5.82
  -4  17  -3   34.29    5.55
  -4  17  -4    9.99    4.23
  -4  17  -5  133.41   10.33
  -4  17  -6  216.45   13.17
  -4  18   7   34.96    5.91
  -4  18   6   14.25    5.17
  -4  18   5   92.54    8.86
  -4  18   4  123.07   10.00
  -4  18   3   90.93    8.78
  -4  18   2   29.96    5.59
  -4  18   1    0.13    4.08
  -4  18   0   12.52    3.92
  -4  18  -1    5.30    3.91
  -4  18  -2   77.87    8.27
  -4  18  -3    6.01    3.73
  -4  18  -4   58.53    7.38
  -5   0  23    8.28    4.53
  -5   0  22  267.46   13.55
  -5   0  21    8.67    4.12
  -5   0  20  186.97   10.74
  -5   0  19   -4.38    3.39
  -5   0  18    1.98    2.42
  -5   0  17    0.91    2.50
  -5   0  16   10.46    3.14
  -5   0  15   -3.97    3.05
  -5   0  14   65.37    5.96
  -5   0  14   55.72    5.81
  -5   0  13   -4.83    3.15
  -5   0  13   -0.09    2.64
  -5   0  12   39.30    4.50
  -5   0  12   39.89    4.77
  -5   0  11   -0.79    2.75
  -5   0  11   -4.05    2.72
   5   0 -11   -1.44    2.09
  -5   0  10  168.82    9.25
  -5   0  10  178.10    8.36
   5   0 -10  173.32    8.00
  -5   0   9    0.14    2.56
  -5   0   9    2.03    2.33
   5   0  -9   -0.77    1.67
  -5   0   8   73.78    6.36
  -5   0   8   86.58    5.68
   5   0  -8   82.82    5.26
  -5   0   7    3.28    2.77
  -5   0   7    0.24    1.93
   5   0  -7   -0.23    1.62
  -5   0   6  155.72    8.88
  -5   0   6  160.61    6.91
   5   0  -6  156.66    6.73
  -5   0   5   -0.35    2.59
  -5   0   5   -2.77    1.99
  -5   0   4 1198.43   23.62
  -5   0   4 1219.10   17.72
  -5   0   3   -1.34    2.51
  -5   0   3    0.39    1.67
  -5   0   3    8.08    2.48
  -5   0   2    1.62    2.67
  -5   0   2    3.36    1.90
  -5   0   2    3.59    1.63
  -5   0   1   -2.04    3.01
  -5   0   1    2.84    2.09
  -5   0   1   -3.55    1.99
  -5   0   0  203.90    9.90
  -5   0   0  197.87    8.24
  -5   0   0  195.41    6.98
  -5   0  -1   -2.08    2.88
  -5   0  -1   -0.44    1.76
  -5   0  -1   -3.77    1.93
  -5   0  -2  386.78   13.34
  -5   0  -2  399.74   12.05
  -5   0  -2  397.28   10.12
  -5   0  -3   -1.38    1.95
  -5   0  -3   -1.84    2.18
  -5   0  -3    1.67    1.67
  -5   0  -4   54.46    5.50
  -5   0  -4   55.92    4.29
  -5   0  -5   -0.16    2.50
  -5   0  -5    5.24    2.33
  -5   0  -6  933.59   20.79
  -5   0  -7   -0.09    2.84
  -5   0  -8   30.44    4.23
  -5   0  -9    4.62    2.96
  -5   0 -10   20.19    3.90
   5   0  11    5.23    3.30
  -5   0 -11   -0.40    2.60
   5   0  12    3.63    2.99
  -5   0 -12    1.49    2.50
   5   0  13    0.68    3.00
   5   0  14   21.26    4.65
   5   0  15  -12.61    4.97
   5   0  16   19.82    4.87
  -5   1  23   17.65    4.99
  -5   1  22    9.72    4.46
  -5  -1  21   11.49    3.96
  -5   1  21    9.33    4.01
  -5  -1  20   34.35    5.41
  -5  -1  19   14.75    4.04
  -5   1  19   18.14    3.65
  -5  -1  19   22.00    4.32
  -5  -1  18  122.55    8.13
  -5  -1  18  110.89    7.55
  -5   1  18  108.39    7.42
  -5  -1  17   67.06    6.12
  -5   1  17   64.51    5.91
  -5   1  16   44.60    5.05
  -5  -1  16   47.23    5.36
  -5   1  16   53.29    6.07
  -5   1  15   17.95    3.70
  -5  -1  15   21.03    3.80
  -5   1  15   21.89    4.24
  -5  -1  14   28.21    4.32
  -5   1  14   26.64    4.45
  -5   1  14   32.32    4.72
  -5   1  13  112.68    7.56
  -5  -1  13  124.78    7.66
  -5   1  13  115.83    7.61
  -5   1  12  219.46   10.23
  -5  -1  12  234.89    9.93
  -5   1  12  222.27   10.03
  -5   1  11    9.79    3.16
  -5  -1  11   10.63    2.91
  -5   1  11   10.86    3.09
   5   1 -11    9.20    2.47
  -5   1  10   47.58    5.19
  -5  -1  10   59.12    4.91
  -5   1  10   53.94    5.10
   5  -1 -10   54.07    4.74
   5   1 -10   53.95    4.57
  -5   1   9   24.10    4.12
  -5  -1   9   25.27    3.46
  -5   1   9   34.49    4.24
   5   1  -9   26.28    3.08
   5  -1  -9   25.46    3.31
  -5   1   8  697.05   18.11
  -5   1   8  715.24   15.60
  -5  -1   8  729.19   14.75
   5   1  -8  686.51   14.20
   5  -1  -8  700.22   15.30
  -5   1   7    7.96    3.13
  -5   1   7    6.21    2.42
  -5  -1   7    3.76    2.15
   5   1  -7    6.27    1.91
   5  -1  -7    1.34    1.94
  -5   1   6   34.67    4.65
  -5  -1   6   27.42    3.22
  -5   1   6   29.00    3.52
   5   1  -6   30.40    3.07
   5  -1  -6   28.30    3.24
  -5   1   5   17.45    3.82
  -5  -1   5   16.92    2.38
  -5   1   5   13.80    2.58
  -5  -1   4    1.05    1.70
  -5   1   4    0.00    2.71
  -5  -1   4    1.14    1.62
  -5   1   4    5.30    2.41
  -5  -1   3   57.57    4.25
  -5   1   3   58.12    5.82
  -5   1   3   65.14    4.60
  -5  -1   3   50.26    3.44
  -5   1   3   55.29    4.47
  -5   1   2   -0.78    2.57
  -5  -1   2    5.16    2.04
  -5   1   2    5.22    2.07
  -5   1   2    5.85    2.05
  -5  -1   2    0.81    1.53
  -5   1   1   20.46    3.88
  -5  -1   1   12.15    2.56
  -5   1   1   15.42    2.63
  -5  -1   1   13.58    2.08
  -5   1   1   14.26    2.32
  -5   1   0    6.82    2.98
  -5   1   0   12.47    2.63
  -5  -1   0    7.83    2.21
  -5  -1   0   14.43    2.33
  -5   1   0    4.18    1.68
  -5   1  -1  158.34    8.83
  -5   1  -1  173.62    8.10
  -5  -1  -1  155.89    7.27
  -5   1  -1  160.12    6.71
  -5  -1  -1  172.22    6.24
  -5  -1  -2   22.81    3.80
  -5  -1  -2   24.02    3.28
  -5   1  -2   18.33    3.28
  -5   1  -2   24.73    3.42
  -5  -1  -2   19.88    2.61
  -5   1  -2   24.13    2.85
  -5   1  -3   29.27    4.23
  -5  -1  -3   34.18    4.64
  -5  -1  -3   27.01    3.32
  -5   1  -3   29.67    3.31
  -5  -1  -3   27.27    2.88
  -5  -1  -4   85.85    6.76
  -5   1  -4   93.14    7.03
  -5  -1  -4   90.94    6.01
  -5   1  -4   93.74    5.62
  -5  -1  -4   92.90    5.02
  -5  -1  -5   66.25    5.84
  -5   1  -5   74.49    6.29
  -5  -1  -5   72.40    4.64
  -5   1  -5   74.53    5.08
  -5   1  -6   11.13    3.38
  -5  -1  -6    3.55    2.65
  -5   1  -7   23.69    3.98
  -5  -1  -7   26.11    4.13
  -5   1  -8   10.59    3.18
  -5  -1  -8   19.95    3.99
  -5  -1  -9    9.95    3.02
  -5   1  -9   10.27    3.47
  -5   1 -10  613.36   17.26
  -5  -1 -10  602.72   16.95
   5   1  10  603.40   17.78
  -5   1 -11   41.40    5.19
  -5  -1 -11   41.61    5.04
   5   1  11   40.13    5.62
  -5  -1 -12   68.66    6.07
   5  -1  12   68.92    6.87
   5   1  12   77.06    7.43
  -5  -1 -13   11.62    3.31
   5  -1  13    7.35    3.30
   5   1  13    2.25    3.16
   5   1  14  256.85   13.25
   5  -1  14  242.12   13.13
   5  -1  15    8.53    3.60
   5   1  15    9.08    4.04
   5  -1  16   10.36    3.89
   5   1  16   13.17    4.14
  -5   2  23   48.14    6.91
  -5   2  22   27.03    5.57
  -5  -2  20  174.37    9.81
  -5  -2  19    3.68    2.89
  -5   2  19    6.92    2.93
  -5  -2  19    3.49    2.42
  -5   2  18    0.10    2.35
  -5  -2  18    7.99    3.31
  -5  -2  18    8.26    3.03
  -5  -2  17  101.94    7.08
  -5  -2  17   93.67    7.16
  -5   2  17   98.62    7.19
  -5   2  17   96.72    8.07
  -5   2  16   77.06    6.49
  -5   2  16   81.26    7.43
  -5   2  15   23.30    3.97
  -5   2  15   22.17    4.41
  -5   2  14   23.38    4.09
  -5   2  14   25.10    4.46
  -5   2  13  114.12    7.61
  -5   2  13  127.92    8.11
  -5   2  12    2.78    2.51
  -5   2  12    5.86    3.18
   5   2 -12    1.11    1.73
  -5   2  11   42.26    4.88
  -5  -2  11   50.23    4.77
  -5   2  11   45.70    4.96
   5   2 -11   46.58    4.26
  -5   2  10  218.01   10.36
  -5   2  10  224.01    9.80
  -5  -2  10  241.56    8.98
   5   2 -10  206.47    8.21
  -5   2   9   25.08    4.25
  -5  -2   9   31.79    3.55
  -5   2   9   30.98    4.18
   5   2  -9   28.96    3.24
   5  -2  -9   21.02    3.38
  -5   2   8   12.44    3.38
  -5  -2   8   16.23    2.79
  -5   2   8   13.74    3.10
   5  -2  -8   16.41    3.03
   5   2  -8   15.94    2.56
  -5   2   7   -5.01    3.17
  -5  -2   7   -0.04    1.69
   5   2  -7    0.89    1.41
   5  -2  -7   -0.41    1.81
  -5   2   6  101.19    7.20
  -5  -2   6  118.87    5.48
  -5   2   6  114.42    6.46
   5   2  -6  107.07    5.14
   5  -2  -6  115.67    6.31
  -5   2   5   33.87    4.65
  -5  -2   5   44.46    3.53
  -5   2   5   51.46    4.52
  -5  -2   5   40.35    3.41
  -5  -2   4  289.83    8.51
  -5  -2   4  293.72    7.77
  -5   2   4  296.73    9.72
  -5   2   4  279.70   11.60
  -5  -2   3  187.06    6.95
  -5   2   3  196.95    9.81
  -5  -2   3  192.49    6.06
  -5   2   3  193.87    7.82
  -5  -2   2  329.04    9.33
  -5   2   2  330.33   12.47
  -5  -2   2  328.58    7.74
  -5   2   2  320.85    9.88
  -5   2   2  337.58   10.97
  -5   2   1    6.56    3.19
  -5  -2   1    1.53    1.57
  -5   2   1    2.19    2.09
  -5   2   1   -1.33    2.38
  -5  -2   1    0.88    1.39
  -5   2   0  433.90   12.75
  -5  -2   0  434.20   11.24
  -5   2   0  418.61   14.28
  -5  -2   0  454.08    9.05
  -5   2   0  419.03   11.16
  -5   2  -1   -0.19    2.36
  -5  -2  -1   -0.75    1.55
  -5   2  -1    0.32    1.61
  -5   2  -1    0.14    1.53
  -5  -2  -1    1.89    1.46
  -5   2  -2  162.57    8.90
  -5  -2  -2  164.81    7.44
  -5   2  -2  169.14    7.32
  -5  -2  -2  166.11    5.74
  -5   2  -3   19.49    3.86
  -5  -2  -3   19.62    2.92
  -5   2  -3   15.30    2.55
  -5  -2  -3   22.77    2.61
  -5   2  -4   78.06    6.45
  -5  -2  -4   73.55    5.30
  -5   2  -4   74.96    5.11
  -5  -2  -4   78.21    4.37
  -5  -2  -5  115.60    7.62
  -5   2  -5  113.56    7.70
  -5  -2  -5  105.50    6.49
  -5  -2  -5  118.59    5.42
  -5   2  -5  108.14    6.21
  -5  -2  -6  173.87    9.24
  -5   2  -6  171.35    9.39
  -5   2  -7   76.96    6.43
  -5  -2  -7   79.31    6.29
  -5  -2  -8    0.48    2.44
  -5   2  -8   -0.60    2.85
   5   2   9    1.87    2.65
  -5   2  -9    2.31    2.70
  -5  -2  -9   -0.09    2.52
   5   2  10   34.35    5.07
  -5  -2 -10   34.31    4.48
  -5   2 -10   33.72    4.69
   5   2  11    6.23    3.49
  -5  -2 -11    1.04    2.51
   5   2  12   28.81    4.75
  -5  -2 -12   28.77    4.27
   5   2  13    7.47    3.56
  -5  -2 -13    5.66    2.79
   5  -2  14   -1.91    2.99
   5   2  14    2.00    3.04
  -5  -2 -14    1.50    2.21
   5  -2  15   67.97    7.68
   5   2  15   77.55    7.90
   5  -2  16   -1.67    3.65
   5   2  16    0.23    3.04
  -5   3  23   19.07    5.16
  -5  -3  19   18.00    3.63
  -5   3  19   18.18    3.49
  -5  -3  19   12.13    3.15
  -5   3  18   -0.77    6.08
  -5  -3  18    6.38    2.90
  -5   3  18    7.29    2.87
  -5  -3  17   54.01    5.21
  -5   3  17   51.41    6.56
  -5   3  17   57.12    5.68
  -5  -3  16  439.61   13.07
  -5   3  16  421.33   14.28
  -5   3  16  403.33   15.52
  -5   3  15   26.39    4.21
  -5   3  15   29.20    4.89
  -5   3  14    2.02    2.29
  -5   3  14    2.32    2.90
  -5   3  13  196.81    9.97
  -5   3  13  209.16   10.42
  -5   3  12  197.43   10.01
  -5   3  12  186.90    9.66
   5   3 -12  183.12    8.19
  -5   3  11   -1.11    2.78
  -5   3  11    1.36    2.73
   5   3 -11   -0.07    1.72
  -5   3  10   41.05    5.03
  -5   3  10   45.98    4.90
   5   3 -10   41.93    3.80
  -5   3   9    6.99    2.91
  -5   3   9   17.20    3.63
   5   3  -9    9.57    2.13
  -5   3   8   93.23    6.98
  -5   3   8  103.50    6.70
  -5  -3   8  103.85    5.38
   5   3  -8   98.91    5.10
  -5   3   7    4.37    3.06
  -5  -3   7    5.92    1.95
  -5   3   7    3.82    2.46
   5  -3  -7    1.78    1.90
   5   3  -7    6.72    1.76
  -5   3   6  463.75   14.98
  -5   3   6  466.05   13.05
  -5  -3   6  488.55   10.19
   5   3  -6  470.36    9.92
   5  -3  -6  450.51   12.68
  -5  -3   6  454.55    9.78
  -5  -3   5   58.42    3.73
  -5   3   5   64.73    5.96
  -5   3   5   62.03    5.06
  -5  -3   5   65.06    3.76
  -5  -3   4    0.90    1.34
  -5   3   4   -2.59    2.90
  -5  -3   4    6.32    1.94
  -5   3   4   -2.69    4.32
  -5  -3   3  101.32    4.97
  -5   3   3  115.50    7.83
  -5  -3   3  108.37    4.30
  -5   3   3  108.67    6.33
  -5   3   2   14.71    2.65
  -5  -3   2   15.17    2.24
  -5   3   2   16.86    3.53
  -5  -3   2   14.97    1.75
  -5   3   2   16.78    2.86
  -5  -3   1   24.97    2.96
  -5   3   1   20.54    3.12
  -5   3   1   19.89    4.10
  -5  -3   1   17.29    1.77
  -5   3   1   14.21    2.72
  -5   3   0   39.75    4.66
  -5  -3   0   25.02    2.97
  -5  -3   0   24.43    2.09
  -5   3   0   32.67    3.93
  -5  -3  -1  181.44    7.29
  -5   3  -1  181.92    9.60
  -5  -3  -1  181.33    5.20
  -5   3  -1  184.31    8.06
  -5  -3  -2   16.18    2.75
  -5   3  -2   12.46    3.32
  -5  -3  -2   15.64    1.94
  -5   3  -2   15.26    2.91
  -5   3  -3  333.64   12.77
  -5  -3  -3  329.45   10.46
  -5  -3  -3  328.11    7.46
  -5   3  -3  311.16   10.44
  -5   3  -4  385.36   13.79
  -5  -3  -4  386.05   11.70
  -5   3  -4  401.24   12.13
  -5  -3  -4  410.60    8.74
  -5   3  -5   -5.05    3.00
  -5  -3  -5    0.78    1.67
  -5   3  -5   -2.68    2.47
  -5  -3  -5    1.44    1.40
  -5   3  -6   41.52    5.18
  -5  -3  -7   15.36    2.88
  -5   3  -7   14.91    3.80
   5   3   8   11.92    3.27
  -5   3  -8   20.36    4.10
  -5  -3  -8   17.76    3.77
   5   3   9    2.34    2.82
  -5  -3  -9   -3.46    3.08
   5   3  10    7.97    3.18
  -5  -3 -10   10.53    3.31
   5   3  11  255.49   12.00
  -5  -3 -11  260.91   11.16
   5   3  12    0.67    2.86
  -5  -3 -12    1.06    2.37
   5   3  13   64.04    6.86
  -5  -3 -13   72.56    6.25
   5   3  14  238.49   12.75
  -5  -3 -14  239.56   10.66
   5   3  15    6.93    3.95
   5   3  16   18.14    4.56
   5   3  17   12.57    4.28
  -5   4  19   57.50    7.09
  -5   4  18   26.73    5.22
  -5  -4  17  199.65    8.87
  -5   4  17  209.74   10.23
  -5   4  17  202.04   11.55
  -5  -4  16    5.95    2.50
  -5   4  16    6.15    2.84
  -5   4  16   10.60    4.07
  -5   4  15   16.49    3.87
  -5  -4  15   19.16    3.21
  -5   4  15   21.28    4.69
  -5  -4  14    6.72    2.49
  -5   4  14    3.97    2.54
  -5   4  14   10.38    3.69
  -5   4  13   11.20    3.36
  -5   4  13   10.00    3.32
   5   4 -13    6.83    2.42
  -5   4  12  181.37    9.62
   5   4 -12  169.49    7.76
  -5   4  12  175.62    9.56
  -5   4  11  673.50   18.18
  -5   4  11  673.08   17.94
   5   4 -11  661.54   14.41
  -5   4  10    8.92    3.11
  -5   4  10   12.34    3.39
   5   4 -10   13.72    2.40
  -5   4   9   92.38    7.00
  -5   4   9   88.32    6.50
   5   4  -9   85.07    4.76
  -5   4   8   21.70    4.08
  -5   4   8   22.41    3.63
   5   4  -8   20.52    2.49
  -5   4   7  219.59   10.53
  -5   4   7  208.84    9.29
  -5  -4   7  205.23    6.17
   5   4  -7  205.82    6.48
  -5  -4   6  141.58    5.07
  -5   4   6  149.56    8.80
  -5   4   6  144.70    7.74
   5   4  -6  145.05    5.13
   5  -4  -6  139.28    7.43
  -5  -4   5    1.65    1.23
  -5   4   5   -1.13    2.69
  -5  -4   5    2.57    1.55
  -5   4   5   -2.27    2.49
  -5  -4   4  110.65    4.69
  -5  -4   4  122.71    4.25
  -5   4   4  120.86    6.97
  -5   4   4  125.45    8.13
  -5  -4   3   91.75    4.38
  -5   4   3   88.93    7.14
  -5   4   3   87.41    5.95
  -5  -4   3  100.76    3.56
  -5  -4   2  387.67    9.06
  -5   4   2  399.53   14.05
  -5  -4   2  399.86    6.44
  -5   4   2  393.97   11.95
  -5  -4   1  136.36    5.65
  -5   4   1  141.48    8.59
  -5  -4   1  133.84    3.59
  -5   4   1  137.48    7.16
  -5  -4   0  133.14    5.83
  -5   4   0  139.71    8.58
  -5  -4   0  139.49    3.73
  -5   4   0  143.81    7.50
  -5   4  -1   13.83    3.75
  -5  -4  -1   14.11    2.40
  -5   4  -1   17.35    3.20
  -5  -4  -1   13.66    1.44
  -5  -4  -2  334.56    9.93
  -5   4  -2  326.47   12.82
  -5  -4  -2  336.98    6.14
  -5   4  -2  311.46   10.92
  -5   4  -3   56.77    5.63
  -5  -4  -3   59.50    4.59
  -5   4  -3   62.31    5.26
  -5  -4  -3   63.16    3.00
  -5   4  -4   10.09    2.79
  -5  -4  -4   13.09    2.52
  -5   4  -4   11.43    2.92
  -5  -4  -4   13.75    1.76
  -5  -4  -5   -0.17    2.02
  -5   4  -5    1.32    2.43
  -5   4  -5    0.68    2.36
  -5  -4  -5    0.48    1.27
  -5   4  -6   66.21    6.46
  -5  -4  -6   73.52    5.58
  -5  -4  -6   68.92    3.87
  -5   4  -6   64.64    5.49
   5   4   7    4.05    2.54
   5   4   8   -1.51    2.51
   5   4   9  113.34    7.62
  -5  -4  -9  114.21    7.70
   5   4  10   50.82    5.69
  -5  -4 -10   53.12    5.47
   5   4  11   92.90    7.63
  -5  -4 -11  103.62    7.24
   5   4  12    3.32    3.19
  -5  -4 -12    5.59    2.93
   5   4  13  235.08   12.30
  -5  -4 -13  265.35   11.29
   5   4  14   60.13    6.88
  -5  -4 -14   66.81    6.01
   5   4  15   33.36    5.84
   5   4  16   20.39    4.96
   5   4  17   10.17    4.45
  -5   5  20   15.30    4.95
  -5   5  19   80.22    8.24
  -5   5  18    8.49    3.88
  -5   5  17   28.90    5.43
  -5   5  16   38.79    5.76
  -5  -5  15  396.77   10.82
  -5   5  15  395.97   15.46
  -5  -5  14   37.65    3.63
  -5   5  14   37.76    5.49
  -5   5  14   33.32    4.67
  -5  -5  13  155.27    6.33
  -5   5  13  150.02    9.51
  -5   5  13  156.33    9.02
  -5  -5  12  131.24    5.57
  -5   5  12  130.20    8.30
  -5   5  12  129.98    8.53
   5   5 -12  128.82    6.66
  -5   5  11  309.30   12.59
  -5   5  11  299.23   12.35
   5   5 -11  304.91    9.55
  -5   5  10   48.05    5.41
  -5   5  10   47.97    5.35
   5   5 -10   46.32    3.75
  -5   5   9  245.00   11.10
  -5   5   9  236.91   10.51
   5   5  -9  241.07    7.59
  -5   5   8  185.30    9.78
  -5   5   8  189.42    9.34
   5   5  -8  191.72    6.36
  -5  -5   8  191.22    5.34
  -5   5   7   36.47    5.04
  -5  -5   7   32.61    2.35
   5   5  -7   32.33    2.54
  -5   5   7   33.60    4.67
  -5   5   6    2.66    3.06
  -5  -5   6    0.74    1.03
  -5   5   6    3.76    2.67
   5   5  -6    3.01    1.15
  -5  -5   5  390.70    7.45
  -5   5   5  383.25   12.50
  -5   5   5  398.92   14.16
  -5  -5   4   75.89    3.51
  -5   5   4   71.55    6.42
  -5   5   4   69.13    5.58
  -5   5   3  498.26   15.77
  -5  -5   3  497.96    9.02
  -5   5   3  482.82   13.73
  -5   5   2   39.67    5.19
  -5  -5   2   35.99    2.84
  -5   5   2   33.11    4.14
  -5   5   1  484.95   15.60
  -5  -5   1  460.07    9.65
  -5   5   1  455.80   13.29
  -5   5   0  141.86    8.75
  -5  -5   0  137.44    5.63
  -5   5   0  131.75    7.41
  -5   5  -1  224.81   10.78
  -5  -5  -1  224.56    7.52
  -5   5  -1  231.49    9.74
  -5  -5  -2   30.58    3.29
  -5   5  -2   40.63    5.21
  -5  -5  -2   26.79    1.15
  -5  -5  -2   28.29    1.24
  -5   5  -2   31.93    4.22
  -5  -5  -3   85.35    5.22
  -5   5  -3   97.80    7.37
  -5  -5  -3   89.44    2.63
  -5  -5  -3   83.09    2.58
  -5   5  -3   79.04    5.96
  -5  -5  -4   77.16    5.19
  -5  -5  -4   71.19    2.84
  -5  -5  -4   77.58    2.92
  -5   5  -4   67.53    5.79
  -5  -5  -5  460.36   12.67
  -5  -5  -5  464.40    8.11
  -5   5  -5  459.11   14.09
  -5  -5  -5  468.44    7.87
   5   5   6    5.79    2.35
  -5  -5  -6   10.22    2.82
  -5  -5  -6    9.94    1.72
  -5   5  -6    4.16    2.32
  -5  -5  -6   10.84    1.75
   5   5   7   70.08    5.74
   5   5   8  134.82    8.01
   5   5   9   17.67    3.73
   5   5  10   58.52    5.94
  -5  -5 -10   74.81    6.46
   5   5  11  110.23    8.13
  -5  -5 -11  115.09    7.68
   5   5  12   -0.42    2.69
  -5  -5 -12    2.49    2.49
   5   5  13   79.17    7.41
  -5  -5 -13   81.68    6.42
   5   5  14   20.85    4.68
  -5  -5 -14   24.65    4.01
   5   5  15   25.08    4.83
   5   5  16   -1.63    3.82
   5   5  17   82.62    8.59
  -5   6  19   62.47    7.64
  -5   6  18   19.45    5.33
  -5   6  17  186.08   11.53
  -5   6  16    8.12    4.21
  -5   6  15    7.95    4.05
  -5   6  14   43.03    6.03
  -5   6  13    6.27    3.94
  -5  -6  12   63.32    3.53
  -5   6  12   56.66    6.23
  -5  -6  11   28.70    2.29
  -5   6  11   22.62    4.12
   5   6 -11   26.64    3.06
  -5  -6  10  161.99    4.60
  -5   6  10  168.76    9.63
  -5   6  10  151.70    8.97
   5   6 -10  155.75    6.33
  -5  -6   9  138.84    3.93
  -5   6   9  128.00    8.48
  -5   6   9  127.20    8.17
  -5  -6   9  133.49    3.71
   5   6  -9  138.07    5.55
  -5  -6   8   83.42    2.75
  -5   6   8   85.23    7.07
  -5   6   8   82.70    6.59
   5   6  -8   82.48    4.01
  -5  -6   7   92.13    2.70
  -5   6   7   84.42    6.86
  -5   6   7  100.58    7.12
   5   6  -7   86.92    3.78
  -5  -6   6  292.40    4.78
  -5   6   6  282.11   12.14
  -5   6   6  271.13   11.07
  -5   6   5    8.84    3.47
  -5  -6   5   11.52    1.26
  -5   6   5   11.13    3.21
  -5   6   4   34.57    5.06
  -5  -6   4   34.46    2.07
  -5   6   4   36.65    4.69
  -5   6   3    2.81    2.99
  -5  -6   3    0.98    0.97
  -5   6   3    1.18    2.39
  -5   6   2   22.41    4.33
  -5  -6   2   17.92    1.92
  -5   6   2   17.80    3.61
  -5   6   1  296.95   12.64
  -5  -6   1  286.14    7.02
  -5   6   1  272.25   10.73
  -5  -6   0   70.97    3.90
  -5   6   0   78.66    6.14
  -5  -6  -1    3.26    1.58
  -5   6  -1    0.05    2.40
  -5  -6  -2   26.99    2.90
  -5   6  -2   20.06    3.63
  -5  -6  -3  565.06   12.59
  -5   6  -3  549.29   15.48
  -5  -6  -4    3.87    1.73
  -5   6  -4   11.62    3.37
  -5  -6  -5   62.22    4.85
  -5  -6  -5   74.15    2.70
  -5  -6  -5   69.21    2.48
  -5   6  -5   73.45    6.31
  -5  -6  -6   13.53    2.99
   5   6   6    7.80    2.49
  -5   6  -6    5.98    2.82
  -5  -6  -6    5.99    1.26
   5   6   7   22.12    3.58
   5   6   8   52.99    5.20
   5   6   9   90.78    6.83
   5   6  10  122.36    8.04
   5   6  11   61.31    6.25
   5   6  12  113.34    8.32
  -5  -6 -12  118.63    7.84
   5   6  13  263.44   12.88
  -5  -6 -13  284.23   11.75
   5   6  14   11.22    4.00
   5   6  15   15.92    4.39
   5   6  16    8.01    3.93
   5   6  17    9.82    4.48
  -5   7  19   64.94    7.83
  -5   7  18   56.99    7.39
  -5   7  17   14.22    4.52
  -5   7  16    4.05    3.41
  -5   7  15    7.40    3.78
  -5   7  14   41.59    5.77
  -5   7  13   42.95    5.93
  -5   7  12   64.53    6.61
  -5   7  11  197.88   10.81
  -5   7  10   98.81    7.62
  -5   7   9  100.35    7.54
   5   7  -9   99.49    4.56
   5   7  -8   22.93    2.10
  -5   7   8   16.08    3.84
  -5   7   7    3.10    2.87
   5   7  -7    2.53    1.05
  -5   7   6  379.93   13.41
  -5   7   5   25.62    4.15
  -5   7   4    1.59    2.71
  -5   7   3   75.23    6.23
  -5   7   2  215.65    9.97
  -5   7   1   25.11    3.97
  -5   7   0   88.43    6.70
  -5   7  -1   40.07    5.06
  -5   7  -2   92.52    6.85
  -5   7  -3    5.18    2.77
  -5   7  -4  329.93   12.67
  -5   7  -5   19.19    3.83
   5   7   6   20.73    3.30
  -5   7  -6   11.43    3.12
   5   7   7  121.78    7.14
  -5   7  -7  130.54    8.38
   5   7   8  372.55   12.61
   5   7   9   33.37    4.48
   5   7  10    5.74    2.76
   5   7  11   48.02    5.65
   5   7  12    2.81    2.70
   5   7  13   38.79    5.55
  -5  -7 -13   39.41    4.79
   5   7  14    8.03    3.40
   5   7  15    1.81    3.37
   5   7  16   25.69    5.27
   5   7  17   45.21    6.71
  -5   8  18   47.20    6.67
  -5   8  17   10.87    4.14
  -5   8  16   11.83    4.18
  -5   8  15   15.05    5.96
  -5   8  14   93.88    8.31
  -5   8  13   27.57    5.14
  -5   8  12    5.64    3.96
  -5   8  11    4.52    3.16
  -5   8  10  189.28   10.45
  -5   8   9  183.37   10.13
  -5   8   8   52.36    5.77
  -5   8   7   56.98    6.16
  -5   8   6   75.05    6.56
  -5   8   5   88.89    7.15
  -5   8   4   46.82    5.45
  -5   8   3   24.44    4.22
  -5   8   2    3.77    2.94
  -5   8   1  157.11    8.93
  -5   8   0   13.26    3.68
  -5   8  -1   58.16    5.87
  -5   8  -2  120.31    7.98
  -5   8  -3   32.07    4.75
  -5   8  -4   12.69    3.63
  -5   8  -5   73.71    6.78
   5   8   5   74.21    5.07
   5   8   6   13.87    2.67
  -5   8  -6   16.64    4.18
   5   8   7   19.50    3.30
  -5   8  -7   25.05    4.40
   5   8   8  150.46    8.13
   5   8   9    2.48    2.17
   5   8  10   -2.02    2.88
   5   8  11   20.02    4.07
   5   8  12  257.37   12.23
   5   8  13   16.52    4.38
   5   8  14    0.51    3.28
   5   8  15   41.35    6.03
   5   8  16   63.80    7.71
  -5   9  17    5.56    4.31
  -5   9  16    4.54    3.48
  -5   9  15   18.08    4.99
  -5   9  14    8.02    4.09
  -5   9  13    4.17    3.55
  -5   9  12   -1.67    3.20
  -5   9  11   25.41    4.58
  -5   9  10    1.36    3.01
  -5   9   9   15.01    3.82
  -5   9   8   15.06    3.74
  -5   9   7   50.67    5.92
  -5   9   6   11.73    3.86
  -5   9   5   -2.17    3.27
  -5   9   4  119.34    8.12
  -5   9   3   30.14    4.80
  -5   9   2   92.75    7.27
  -5   9   1    8.70    3.31
  -5   9   0   82.86    7.02
  -5   9  -1   61.44    6.18
  -5   9  -2  100.28    7.63
  -5   9  -3   11.89    3.68
  -5   9  -4  207.31   10.87
  -5   9  -5   51.00    5.82
   5   9   5   50.40    4.23
   5   9   6    7.95    2.34
  -5   9  -6    5.73    3.18
   5   9   7    8.35    2.42
  -5   9  -7    4.87    3.34
   5   9   8   14.25    3.47
  -5   9  -8    9.99    3.52
   5   9   9   35.63    4.78
   5   9  10   27.87    4.20
   5   9  11   38.16    5.12
   5   9  12    0.01    2.80
   5   9  13   -8.98    4.02
   5   9  14    4.84    3.25
   5   9  15    8.22    3.59
   5   9  16   -1.41    3.30
  -5  10  17    0.12    3.68
  -5  10  16    1.74    3.46
  -5  10  15    5.50    3.80
  -5  10  14  167.92   11.23
  -5  10  13    3.94    3.35
  -5  10  12    2.74    3.24
  -5  10  11   -1.28    3.55
  -5  10  10  239.59   12.39
  -5  10   9   24.34    4.97
  -5  10   8  135.70    9.24
  -5  10   7   10.57    3.72
  -5  10   6   26.06    4.61
  -5  10   5    2.41    3.33
  -5  10   4  244.07   11.66
  -5  10   3   24.21    4.43
  -5  10   2   30.66    4.82
  -5  10   1   14.06    3.67
  -5  10   0   74.86    6.88
  -5  10  -1   39.93    5.31
  -5  10  -2   37.36    5.22
  -5  10  -3   62.42    6.20
  -5  10  -4   -2.23    3.15
   5  10   5    6.14    2.04
  -5  10  -5    6.13    3.40
   5  10   6  231.42    8.84
  -5  10  -6  247.31   12.23
   5  10   7   10.09    2.70
  -5  10  -7   11.18    3.82
   5  10   8   64.52    5.44
  -5  10  -8   58.64    6.66
   5  10   9   -1.81    2.52
  -5  10  -9   -1.80    3.25
   5  10  10   29.76    4.39
   5  10  11   12.84    3.45
   5  10  12  122.99    8.67
   5  10  13   12.25    3.62
   5  10  14    0.60    2.95
   5  10  15    1.93    3.16
   5  10  16  139.06   10.40
  -5  11  16   11.19    4.97
  -5  11  15    3.82    3.73
  -5  11  14    7.76    3.95
  -5  11  13   11.26    4.18
  -5  11  12   13.12    4.20
  -5  11  11    6.95    3.41
  -5  11  10   22.04    4.85
  -5  11   9    4.50    3.41
  -5  11   8   18.51    4.32
  -5  11   7    9.90    3.79
  -5  11   6   83.86    7.38
  -5  11   5   32.48    5.30
  -5  11   4   78.37    7.19
  -5  11   3    0.74    3.25
  -5  11   2   88.47    7.45
  -5  11   1   -0.74    2.89
  -5  11   0  152.15    9.55
  -5  11  -1   32.02    5.02
  -5  11  -2  143.49    9.54
  -5  11  -3    4.08    3.16
  -5  11  -4  287.46   13.22
  -5  11  -5   -1.37    3.08
  -5  11  -6   33.74    5.40
   5  11   7    2.40    2.13
  -5  11  -7   -5.71    5.69
   5  11   8   57.50    5.16
  -5  11  -8   54.42    6.69
   5  11   9    5.89    2.69
  -5  11  -9    3.87    3.24
   5  11  10    1.34    2.62
   5  11  11    3.73    2.62
   5  11  12   79.35    7.14
  -5  12  14  265.50   14.34
  -5  12  13   98.99    9.10
  -5  12  12   11.22    4.06
  -5  12  11   -1.10    3.47
  -5  12  10  232.99   12.80
  -5  12   9    7.72    3.83
  -5  12   8   68.17    7.40
  -5  12   7   45.74    5.83
  -5  12   6   21.59    5.01
  -5  12   5  104.42    8.34
  -5  12   4  173.18   10.67
  -5  12   3   85.69    7.49
  -5  12   2    8.47    3.58
  -5  12   1   -6.29    3.94
  -5  12   0   13.61    4.00
  -5  12  -1   20.36    4.61
  -5  12  -2   63.61    7.09
  -5  12  -3    4.46    3.28
  -5  12  -4   30.21    5.12
  -5  12  -5   68.19    7.14
  -5  12  -6   48.29    6.30
  -5  12  -7   20.28    4.70
  -5  12  -8   99.96    8.83
  -5  12  -9   58.16    7.02
  -5  12 -10    2.00    3.33
  -5  13  13   30.25    5.84
  -5  13  12    1.25    3.57
  -5  13  11    4.55    3.42
  -5  13  10    0.65    3.57
  -5  13   9  226.24   12.79
  -5  13   8   34.09    5.80
  -5  13   7    4.90    3.87
  -5  13   6   77.57    7.61
  -5  13   5   34.74    5.57
  -5  13   4   86.01    8.17
  -5  13   3   84.97    8.13
  -5  13   2  176.66   10.94
  -5  13   1   -4.17    3.45
  -5  13   0   14.40    4.27
  -5  13  -1  103.64    8.55
  -5  13  -2   27.77    5.08
  -5  13  -3    2.76    3.23
  -5  13  -4  174.01   10.94
  -5  13  -5   12.84    3.82
  -5  13  -6    2.57    3.74
  -5  13  -7   12.68    4.33
  -5  13  -8   87.55    8.39
  -5  13  -9   -0.79    3.40
  -5  14  12   51.71    7.09
  -5  14  11   46.52    6.81
  -5  14  10  147.45   10.94
  -5  14   9   14.78    4.33
  -5  14   8   15.44    5.10
  -5  14   7  124.93    9.83
  -5  14   6   46.27    6.26
  -5  14   5    7.04    4.02
  -5  14   4    4.22    3.68
  -5  14   3   47.75    6.60
  -5  14   2   21.51    4.84
  -5  14   1   37.38    5.73
  -5  14   0    6.44    3.86
  -5  14  -1    2.59    3.97
  -5  14  -2    0.38    3.34
  -5  14  -3   93.48    8.55
  -5  14  -4   -0.12    3.36
  -5  14  -5   21.11    4.88
  -5  14  -6    7.67    3.70
  -5  14  -7   52.76    7.04
  -5  14  -8   73.72    8.10
  -5  15  10   -2.60    3.71
  -5  15   9   45.29    6.51
  -5  15   8   45.84    6.96
  -5  15   7   35.48    6.08
  -5  15   6    0.07    3.24
  -5  15   5  223.02   12.90
  -5  15   4   51.12    6.72
  -5  15   3  119.66    9.66
  -5  15   2   14.59    4.47
  -5  15   1   54.66    6.74
  -5  15   0    6.15    3.30
  -5  15  -1  101.68    8.90
  -5  15  -2    0.58    3.26
  -5  15  -3  115.45    9.61
  -5  15  -4   48.37    6.73
  -5  15  -5  115.46    9.64
  -5  15  -6   68.49    7.66
  -5  16   7   63.63    7.81
  -5  16   6    5.14    4.11
  -5  16   5    5.29    3.54
  -5  16   4   23.51    5.13
  -5  16   3   11.08    4.39
  -5  16   2   11.88    3.85
  -5  16   1  100.25    8.98
  -5  16   0   66.50    7.31
  -5  16  -1    2.58    3.61
  -5  16  -2   45.71    6.77
  -5  16  -3   32.95    6.07
  -6   0  19   -2.58    3.39
  -6   0  18    8.37    3.21
  -6   0  17   -2.79    3.28
  -6   0  16  429.80   16.27
  -6   0  15   -0.28    2.80
  -6   0  14   10.18    3.54
  -6   0  14    9.49    3.13
  -6   0  13   -4.28    3.81
  -6   0  13    3.19    3.01
  -6   0  12  133.48    9.28
  -6   0  12  145.95    8.36
  -6   0  11    1.13    2.88
  -6   0  11    0.15    2.57
  -6   0  10   21.86    4.71
  -6   0  10   21.12    3.76
  -6   0   9   -3.13    3.00
  -6   0   9    3.66    2.61
  -6   0   8   79.83    7.23
  -6   0   8   76.64    5.63
  -6   0   7   -1.04    3.18
  -6   0   7   -1.30    1.97
  -6   0   6  144.60    9.54
  -6   0   6  156.54    7.25
  -6   0   6  146.68    7.44
  -6   0   5    2.98    1.86
  -6   0   5    2.58    1.96
  -6   0   5    1.12    3.23
  -6   0   4   98.84    6.21
  -6   0   4  100.82    8.09
  -6   0   4  110.21    5.91
  -6   0   3   -0.96    3.02
  -6   0   3    0.75    1.78
  -6   0   3   -5.13    2.15
  -6   0   2  149.31    7.75
  -6   0   2  158.66   10.01
  -6   0   2  164.29    7.09
  -6   0   1    5.15    3.46
  -6   0   1   -1.35    1.70
  -6   0   0  248.90   12.33
  -6   0   0  269.04    8.86
  -6   0  -1    0.60    2.72
  -6   0  -1   -3.58    1.78
  -6   0  -2    1.51    2.53
  -6   0  -2    9.00    2.47
  -6   0  -3   -1.03    2.52
  -6   0  -3   -2.52    2.44
  -6   0  -4    8.74    3.47
  -6   0  -4    0.56    1.95
  -6   0  -5    3.90    3.80
  -6   0  -5    1.65    1.90
  -6   0  -6    9.99    3.70
  -6   0  -6   12.05    2.91
  -6   0  -7   -0.74    2.98
  -6   0  -7    4.19    2.50
  -6   0  -8   11.69    3.72
  -6   0  -8   16.37    3.34
  -6   0  -9   -1.23    3.02
  -6   0  -9    3.94    2.41
  -6   0 -10   24.40    4.68
  -6   0 -11    4.25    3.32
  -6   0 -12   19.67    4.56
  -6  -1  19    0.24    2.81
  -6   1  19   -0.20    2.77
  -6   1  18   -0.18    2.82
  -6  -1  18   -1.21    3.18
  -6   1  17   -1.32    3.20
  -6  -1  17   -1.91    3.59
  -6   1  16   58.81    6.62
  -6   1  16   59.71    6.47
  -6  -1  16   55.83    6.26
  -6   1  15    5.00    3.27
  -6   1  15   -2.16    3.08
  -6  -1  15    1.26    3.03
  -6   1  14    1.35    2.61
  -6   1  14    3.29    2.81
  -6  -1  14    7.16    3.46
  -6   1  13   -1.91    3.09
  -6  -1  13    1.65    2.47
  -6   1  13    5.52    3.38
  -6  -1  13   -1.00    3.20
  -6  -1  12  177.51    8.93
  -6   1  12  184.09    9.42
  -6  -1  12  172.95   10.52
  -6   1  12  154.28    9.94
  -6  -1  11   49.00    5.01
  -6   1  11   58.79    5.73
  -6  -1  11   50.09    6.55
  -6   1  11   49.80    6.19
  -6  -1  10   33.43    4.23
  -6   1  10   21.77    3.73
  -6  -1  10   22.58    4.45
  -6   1  10   27.22    4.89
  -6  -1   9   55.55    4.79
  -6   1   9   51.68    5.11
  -6  -1   9   44.26    5.66
  -6   1   9   46.19    5.87
  -6   1   8    9.66    2.90
  -6  -1   8   13.42    2.89
  -6  -1   8    9.85    3.46
  -6   1   8    8.21    3.59
  -6  -1   7   -0.86    1.85
  -6  -1   7   -1.49    3.19
  -6   1   7   -3.13    3.31
  -6   1   7    3.64    2.28
  -6  -1   7    3.23    2.32
  -6  -1   6  106.86    8.35
  -6   1   6   97.42    8.02
  -6  -1   6  103.26    5.89
  -6   1   6  101.23    6.19
  -6  -1   6   90.52    5.73
  -6  -1   5    0.28    1.85
  -6  -1   5    0.44    2.94
  -6   1   5   -1.07    2.87
  -6   1   5    0.40    1.97
  -6  -1   5    3.62    2.12
  -6  -1   4   15.89    2.83
  -6  -1   4   12.05    3.57
  -6   1   4   14.33    3.91
  -6  -1   4   17.72    2.74
  -6   1   4   15.84    2.90
  -6  -1   3   24.32    3.50
  -6   1   3   37.45    4.35
  -6  -1   3   17.76    2.40
  -6  -1   3   25.02    4.90
  -6   1   3   16.59    4.05
  -6  -1   2  316.67   10.73
  -6  -1   2  335.28   14.22
  -6   1   2  332.54   14.08
  -6  -1   2  333.54    9.21
  -6   1   2  333.62   10.54
  -6  -1   1    3.18    3.22
  -6   1   1    3.17    3.17
  -6  -1   1    2.27    2.08
  -6   1   1    3.34    1.70
  -6  -1   1   -3.95    2.38
  -6  -1   0  233.07    9.65
  -6  -1   0  258.65   12.35
  -6   1   0  236.63   12.05
  -6  -1   0  231.03    7.60
  -6   1   0  236.51    8.78
  -6   1  -1   -0.43    2.92
  -6  -1  -1   -3.65    3.40
  -6  -1  -1    0.34    1.66
  -6   1  -1   -1.82    2.00
  -6  -1  -2  185.74   10.54
  -6   1  -2  194.92   10.79
  -6  -1  -2  214.28    7.62
  -6   1  -2  190.43    8.05
  -6  -1  -3   98.71    8.02
  -6   1  -3   96.40    8.00
  -6   1  -3   87.51    5.54
  -6  -1  -3   93.25    5.22
  -6   1  -4   10.07    3.86
  -6  -1  -4   13.15    3.74
  -6  -1  -4    7.03    2.15
  -6   1  -4    3.91    1.77
  -6  -1  -5   91.57    7.67
  -6   1  -5  104.34    8.41
  -6  -1  -5   95.63    5.59
  -6   1  -5  100.13    6.31
  -6  -1  -6   19.48    4.43
  -6   1  -6   15.96    4.29
  -6  -1  -6   19.78    3.12
  -6   1  -6   22.43    3.61
  -6   1  -7   34.37    5.43
  -6  -1  -7   45.48    5.85
  -6  -1  -7   41.05    4.23
  -6   1  -7   34.77    4.38
  -6   1  -8    6.54    3.41
  -6  -1  -8    3.26    2.86
  -6  -1  -8    7.66    2.61
  -6   1  -8    8.78    2.69
  -6  -1  -9   33.99    5.27
  -6   1  -9   40.80    5.97
  -6  -1  -9   36.75    4.21
  -6   1  -9   36.82    4.50
  -6   1 -10    6.82    3.41
  -6  -1 -10   10.47    3.69
  -6  -1 -11   14.59    3.79
  -6   1 -11   19.04    4.77
  -6  -1 -12   70.55    7.02
  -6  -1 -13   18.25    4.37
  -6  -2  19    5.11    3.06
  -6   2  18   -1.80    3.09
  -6  -2  18    1.69    2.80
  -6   2  17   11.71    4.22
  -6   2  17   10.91    3.58
  -6  -2  17   18.19    4.37
  -6   2  16  212.49   11.70
  -6  -2  16  199.89   11.39
  -6   2  16  209.28   11.52
  -6   2  15   88.27    7.64
  -6  -2  15   81.85    7.74
  -6   2  15   78.04    7.45
  -6   2  14   29.34    4.71
  -6  -2  14   30.84    5.18
  -6   2  14   28.36    4.81
  -6   2  13    1.94    2.64
  -6  -2  13    5.46    3.45
  -6   2  13    1.17    3.04
  -6   2  12  241.59   11.11
  -6   2  12  217.22   11.63
  -6  -2  11   98.38    6.38
  -6   2  11   90.92    6.97
  -6   2  11   99.89    8.13
  -6   2  10    0.53    2.59
  -6  -2  10    2.42    2.24
  -6   2  10    5.26    3.22
  -6  -2   9   24.40    3.27
  -6   2   9   24.17    3.94
  -6   2   9   20.50    4.44
  -6   2   8   86.15    6.30
  -6  -2   8   92.23    5.57
  -6   2   8   99.14    8.20
  -6   2   7   31.87    4.19
  -6  -2   7   34.68    3.58
  -6   2   7   31.12    5.08
  -6  -2   6   19.89    2.85
  -6  -2   6   29.31    3.34
  -6   2   6   19.63    3.50
  -6   2   6   25.05    4.70
  -6  -2   5   83.88    5.30
  -6   2   5   77.85    7.25
  -6  -2   5  100.72    5.35
  -6   2   5   73.62    5.45
  -6  -2   4   -0.54    1.86
  -6   2   4   -2.42    3.27
  -6  -2   4    1.70    1.78
  -6  -2   3   67.08    4.94
  -6   2   3   72.58    7.32
  -6  -2   3   65.53    4.00
  -6   2   3   80.29    5.71
  -6  -2   2   18.56    3.03
  -6   2   2   13.74    4.07
  -6  -2   2    8.83    1.63
  -6   2   2   21.11    3.40
  -6  -2   1   17.23    2.83
  -6   2   1    9.99    3.64
  -6  -2   1    7.33    1.63
  -6   2   1   15.44    2.80
  -6  -2   0   -1.39    3.02
  -6   2   0    1.54    3.06
  -6  -2   0    3.10    1.97
  -6   2   0   -1.92    2.44
  -6  -2   0   -0.62    1.70
  -6  -2  -1   -0.79    3.26
  -6   2  -1   -1.15    2.92
  -6  -2  -1    2.14    2.05
  -6   2  -1   -5.74    2.89
  -6  -2  -1    3.27    1.62
  -6  -2  -2    3.17    2.60
  -6   2  -2   11.86    3.61
  -6  -2  -2    6.98    1.90
  -6   2  -2    6.17    2.06
  -6  -2  -3   15.38    4.03
  -6   2  -3   12.32    3.73
  -6   2  -3   10.40    2.54
  -6  -2  -3   10.47    2.24
  -6  -2  -4  194.04   10.85
  -6   2  -4  196.44   11.15
  -6   2  -4  198.12    8.83
  -6  -2  -4  200.05    7.17
  -6  -2  -5   68.89    6.94
  -6   2  -5   71.55    6.97
  -6  -2  -5   72.76    4.71
  -6   2  -5   66.48    5.42
  -6   2  -6  191.75   11.00
  -6  -2  -6  190.57   10.95
  -6  -2  -6  178.86    7.20
  -6   2  -6  187.18    8.96
  -6   2  -7   54.55    6.27
  -6  -2  -7   53.33    6.22
  -6   2  -7   56.14    5.19
  -6  -2  -7   58.76    4.45
  -6  -2  -8    9.94    3.46
  -6   2  -8   13.97    3.95
  -6   2  -8    8.78    2.64
  -6  -2  -9    1.12    2.80
  -6   2  -9    1.86    3.01
  -6   2  -9   -0.92    2.15
  -6  -2 -10  116.32    8.62
  -6  -2 -11   -4.16    3.40
  -6  -2 -12   33.69    5.29
  -6  -2 -13   12.51    4.13
  -6  -3  19   -0.17    3.26
  -6   3  18    8.70    3.78
  -6   3  18    7.71    3.46
  -6  -3  18    4.68    3.69
  -6   3  17   55.88    6.59
  -6  -3  17   48.20    6.18
  -6   3  17   49.17    5.93
  -6   3  16   17.59    4.55
  -6   3  16   10.43    3.69
  -6   3  15    7.16    3.72
  -6   3  15    6.57    3.39
  -6   3  14   16.77    3.78
  -6   3  14   11.37    3.93
  -6   3  13   25.16    4.69
  -6   3  13   17.50    4.11
  -6   3  12   13.04    4.01
  -6   3  12    5.02    3.39
  -6   3  11  162.05    9.33
  -6   3  11  171.78   10.45
  -6   3  10    9.81    3.52
  -6   3  10    7.17    3.86
  -6   3   9    3.81    2.81
  -6   3   9   11.59    4.10
  -6  -3   8    0.77    1.74
  -6   3   8   -0.63    2.42
  -6   3   8   -1.09    3.14
  -6   3   7  209.64    9.58
  -6  -3   7  221.01    7.65
  -6   3   7  212.63   11.51
  -6  -3   6  121.50    5.58
  -6   3   6  115.36    7.20
  -6   3   6  104.31    8.42
  -6   3   5  282.67   10.80
  -6  -3   5  276.45    7.75
  -6   3   5  280.30   13.36
  -6  -3   4  196.99    7.53
  -6   3   4  195.69   11.13
  -6   3   4  209.15    9.26
  -6  -3   4  216.31    6.68
  -6  -3   3   -1.45    1.87
  -6   3   3    1.85    3.08
  -6  -3   3    7.19    1.91
  -6   3   3    2.43    2.57
  -6  -3   2   56.54    4.45
  -6   3   2   54.39    6.28
  -6  -3   2   60.65    3.31
  -6   3   2   64.97    5.40
  -6  -3   1  162.38    7.29
  -6   3   1  157.05    9.94
  -6  -3   1  167.68    5.30
  -6   3   1  159.13    8.01
  -6  -3   0   -1.46    1.97
  -6   3   0    1.13    3.06
  -6  -3   0    4.25    1.50
  -6   3   0   -5.04    3.02
  -6  -3  -1   52.41    4.60
  -6   3  -1   55.58    6.31
  -6  -3  -1   47.33    3.01
  -6   3  -1   35.47    3.78
  -6   3  -2   26.20    4.81
  -6  -3  -2   20.42    3.25
  -6   3  -2   19.70    3.47
  -6  -3  -2   22.02    2.32
  -6   3  -3  203.65   11.19
  -6   3  -3  197.86    9.14
  -6  -3  -3  207.61    6.36
  -6  -3  -4   13.43    4.28
  -6   3  -4    5.44    2.99
  -6   3  -4    8.25    2.34
  -6   3  -5  123.13    8.91
  -6  -3  -5  131.62    9.15
  -6   3  -5  129.34    7.61
  -6   3  -6   89.74    7.79
  -6  -3  -6   81.90    7.49
  -6   3  -6   81.42    6.19
  -6   3  -7    4.63    3.23
  -6  -3  -7   -1.41    2.83
  -6   3  -7    0.23    2.05
  -6  -3  -8   -4.12    3.21
  -6   3  -8   -3.44    2.43
  -6  -3  -9   24.57    4.85
  -6   3  -9   16.49    3.10
  -6  -3 -10    7.02    3.48
  -6  -3 -11   22.62    4.74
  -6  -3 -12    1.71    2.92
  -6  -3 -13   71.11    6.92
   6   3  14   23.29    5.20
  -6  -4  19  181.40   11.62
  -6   4  19  202.59   12.71
  -6   4  18    7.34    3.68
  -6   4  17    6.26    3.58
  -6   4  17    3.10    3.27
  -6   4  16   50.44    6.37
  -6   4  16   49.37    6.44
  -6   4  15   -1.67    3.24
  -6   4  15   -0.60    2.99
  -6   4  14   11.53    3.92
  -6   4  14   17.53    4.21
  -6   4  13   74.10    7.32
  -6   4  13   78.50    7.24
  -6   4  12   60.03    6.55
  -6   4  12   56.69    6.07
  -6   4  11   -3.63    3.26
  -6   4  11    1.17    2.95
  -6   4  10   22.71    4.97
  -6   4  10   22.79    4.35
  -6   4   9  282.54   13.27
  -6   4   9  259.00   11.38
  -6   4   8   79.91    7.31
  -6   4   8   82.48    6.69
  -6   4   7   17.84    4.17
  -6   4   7   20.46    3.82
  -6   4   6    0.63    3.26
  -6   4   6    0.13    2.45
  -6   4   5   12.66    3.90
  -6   4   5   13.61    3.33
  -6   4   4    8.64    3.78
  -6  -4   4    9.64    1.68
  -6   4   4   11.15    3.17
  -6   4   3  377.08   15.30
  -6  -4   3  400.50    7.18
  -6   4   3  363.16   12.46
  -6   4   2    2.17    2.85
  -6   4   2    2.39    2.32
  -6   4   1    9.36    3.73
  -6   4   1    5.31    2.62
  -6   4   0    5.50    3.53
  -6   4   0    5.37    2.34
  -6   4  -1  188.85   10.94
  -6   4  -1  201.92    9.43
  -6   4  -2    8.74    3.92
  -6   4  -2    4.74    2.97
  -6   4  -3  126.15    9.11
  -6   4  -3  131.11    7.96
  -6   4  -4    2.73    2.63
  -6   4  -4    7.08    2.83
  -6   4  -5    7.80    2.96
  -6   4  -5   12.91    3.12
  -6  -4  -6  113.31    8.70
  -6   4  -6  108.29    7.45
  -6  -4  -7  229.77   11.87
  -6   4  -7  234.55   10.82
  -6  -4  -8   33.65    5.25
  -6   4  -8   25.98    3.96
  -6  -4  -9  119.13    8.73
  -6   4  -9  118.12    8.09
  -6  -4 -10  217.13   11.73
  -6  -4 -11   73.22    7.04
  -6  -4 -12   -1.28    2.85
   6   4  13   55.85    6.75
   6   4  14   94.19    8.67
  -6   5  18   -2.49    3.54
  -6   5  17   68.74    7.54
  -6   5  16    2.63    3.59
  -6   5  15  118.23    8.92
  -6   5  15  123.30    9.34
  -6   5  14   43.34    5.87
  -6   5  14   28.85    5.03
  -6   5  13   19.00    4.52
  -6   5  13   25.36    5.54
  -6   5  12    5.49    3.79
  -6   5  12    0.88    2.89
  -6   5  11   20.20    4.79
  -6   5  11   20.57    4.39
  -6   5  10    2.11    3.18
  -6   5  10    1.67    2.90
  -6   5   9    2.85    3.34
  -6   5   9    2.43    2.78
  -6   5   8    8.28    3.81
  -6   5   8   -0.90    2.82
  -6   5   7  178.37   10.79
  -6   5   7  178.10    9.56
  -6   5   6   50.94    6.18
  -6   5   6   44.61    5.26
  -6   5   5  367.60   15.23
  -6   5   5  355.89   13.12
  -6   5   4   29.78    5.21
  -6   5   4   30.08    4.31
  -6   5   3   52.63    6.44
  -6   5   3   44.56    4.95
  -6   5   2   53.46    6.38
  -6   5   2   53.44    5.41
  -6   5   1   66.38    7.16
  -6   5   1   63.32    5.74
  -6   5   0   92.31    7.95
  -6   5   0   89.08    6.64
  -6   5  -1   20.10    4.56
  -6   5  -1   21.70    3.94
  -6   5  -2    6.12    3.96
  -6   5  -2    3.47    2.75
  -6   5  -3   56.45    6.54
  -6   5  -3   55.64    5.72
  -6   5  -4   22.48    4.03
  -6   5  -5  334.33   13.00
  -6   5  -6   35.69    4.90
  -6   5  -7   51.17    5.72
  -6  -5  -8    7.47    3.56
  -6   5  -8    7.57    3.08
  -6  -5  -9   33.50    5.27
  -6   5  -9   32.25    5.05
  -6  -5 -10    2.79    3.03
  -6   5 -10   -2.05    3.33
  -6  -5 -11  114.28    8.67
   6   5  12   18.17    4.28
  -6  -5 -12   25.94    4.64
   6   5  13    5.42    3.02
   6   5  14   -2.04    3.39
  -6   6  18   61.52    7.52
  -6   6  17   18.34    5.31
  -6   6  16   19.83    4.95
  -6   6  15   16.06    4.56
  -6   6  14    5.89    4.11
  -6   6  13  177.87   10.95
  -6   6  12    5.15    3.36
  -6   6  11   12.20    4.19
  -6   6  11   -2.09    3.23
  -6   6  10   63.01    6.80
  -6   6  10   52.82    5.93
  -6   6   9  293.47   13.79
  -6   6   9  284.83   12.61
  -6   6   8   11.74    4.40
  -6   6   8    4.28    2.95
  -6   6   7   18.53    4.51
  -6   6   7   15.28    3.91
  -6   6   6   -0.24    3.05
  -6   6   6    3.17    3.54
  -6   6   5   -0.81    2.92
  -6   6   5    0.49    2.80
  -6   6   4  139.01    9.77
  -6   6   4  142.96    8.63
  -6   6   3  352.01   15.01
  -6   6   3  343.76   13.12
  -6   6   2   30.96    5.65
  -6   6   2   22.06    4.34
  -6   6   1  165.07   10.60
  -6   6   1  156.58    8.94
  -6   6   0  116.65    7.76
  -6   6  -1  171.07    9.47
  -6   6  -2   27.10    4.53
  -6   6  -3  100.24    7.64
  -6   6  -4   15.45    3.87
  -6   6  -5   -0.13    2.77
  -6   6  -6   46.94    5.76
  -6   6  -7   84.39    7.44
  -6   6  -8    0.07    2.90
  -6  -6  -9  137.66    9.61
  -6   6  -9  111.74    8.47
  -6  -6 -10    3.61    3.18
  -6   6 -10    5.48    3.17
  -6  -6 -11  108.83    8.55
   6   6  11   95.41    7.90
   6   6  12    2.15    3.19
  -6  -6 -12   -1.98    3.06
   6   6  13   25.33    4.82
   6   6  14    5.30    3.46
  -6   7  17  179.02   12.03
  -6   7  16    0.39    3.25
  -6   7  15   82.23    8.22
  -6   7  14  218.33   12.55
  -6   7  13    3.57    3.13
  -6   7  12    4.11    3.57
  -6   7  11   42.28    5.59
  -6   7  10    2.60    3.69
  -6   7   9   64.13    6.57
  -6   7   8    3.55    2.91
  -6   7   7   44.50    5.41
  -6   7   6    7.26    3.75
  -6   7   5  186.52   10.16
  -6   7   4  126.12    8.39
  -6   7   3   21.86    4.09
  -6   7   2    3.08    2.78
  -6   7   1   75.64    6.76
  -6   7   0   23.09    4.19
  -6   7  -1    3.47    3.13
  -6   7  -2    6.36    3.27
  -6   7  -3   43.12    5.53
  -6   7  -4  256.72   11.98
  -6   7  -5   77.75    7.03
  -6   7  -6   38.64    5.54
  -6   7  -7    6.37    3.23
  -6   7  -8   52.08    6.25
  -6   7  -9   52.54    6.35
  -6   7 -10    3.60    2.93
  -6  -7 -11   -0.74    2.97
   6   7  11    0.13    2.71
  -6   7 -11   -1.47    3.11
  -6  -7 -12  120.63    9.03
   6   7  12   96.49    8.14
   6   7  13   20.13    4.53
   6   7  14   43.15    5.95
  -6   8  16   13.98    4.64
  -6   8  15   32.02    5.56
  -6   8  14    5.25    3.95
  -6   8  13   37.46    6.03
  -6   8  12   -5.89    3.73
  -6   8  11    1.75    3.26
  -6   8  10  213.64   11.78
  -6   8   9   10.69    3.67
  -6   8   8   -0.96    3.16
  -6   8   7    8.76    3.62
  -6   8   6   68.05    6.83
  -6   8   5   16.35    4.04
  -6   8   4   84.76    7.27
  -6   8   3  209.73   10.98
  -6   8   2  166.65    9.71
  -6   8   1   19.03    3.98
  -6   8   0  180.87   10.09
  -6   8  -1    0.95    2.91
  -6   8  -2   92.45    7.65
  -6   8  -3   15.88    4.02
  -6   8  -4  107.87    8.34
  -6   8  -5    9.04    3.57
  -6   8  -6   -0.98    2.97
  -6   8  -7   37.35    5.49
  -6   8  -8   19.35    4.60
  -6   8  -9    2.83    3.03
  -6   8 -10    3.04    3.19
  -6   8 -11    6.48    3.99
  -6   9  15   -1.28    3.37
  -6   9  14  257.49   13.99
  -6   9  13   23.29    5.15
  -6   9  12   26.04    5.16
  -6   9  11   53.00    6.69
  -6   9  10  314.60   14.50
  -6   9   9   27.77    6.99
  -6   9   8   84.13    7.74
  -6   9   7   12.79    4.25
  -6   9   6  179.31   10.74
  -6   9   5   11.93    3.80
  -6   9   4   14.90    4.00
  -6   9   3    8.57    3.56
  -6   9   2    0.06    3.12
  -6   9   1   90.86    7.68
  -6   9   0    4.98    2.93
  -6   9  -1    0.95    2.88
  -6   9  -2   28.33    4.93
  -6   9  -3    6.22    3.49
  -6   9  -4   16.51    3.81
  -6   9  -5    1.08    3.15
  -6   9  -6    5.50    3.01
  -6   9  -7   42.22    6.02
  -6   9  -8   43.22    5.88
  -6   9  -9    3.01    3.30
  -6   9 -10    2.09    3.65
  -6   9 -11    5.75    3.56
  -6  10  14   43.21    6.71
  -6  10  13    6.85    3.91
  -6  10  12   35.71    6.11
  -6  10  11   10.51    4.01
  -6  10  10    4.99    3.54
  -6  10   9    8.72    3.94
  -6  10   8    3.16    3.42
  -6  10   7    6.34    3.54
  -6  10   6  142.50    9.87
  -6  10   5    6.99    4.45
  -6  10   4   43.13    6.33
  -6  10   3    4.14    3.09
  -6  10   2  209.05   11.57
  -6  10   1   -1.58    3.20
  -6  10   0    4.55    3.52
  -6  10  -1    6.24    3.74
  -6  10  -2    5.35    3.55
  -6  10  -3   -1.21    3.13
  -6  10  -4  248.42   12.81
  -6  10  -5    6.75    3.65
  -6  10  -6    1.17    3.36
  -6  10  -7   12.15    3.98
  -6  10  -8  145.63   10.50
  -6  10  -9   10.14    4.17
  -6  10 -10    4.91    3.85
  -6  11  12  102.05    9.19
  -6  11  11   77.17    8.30
  -6  11  10  118.66    9.46
  -6  11   9    5.88    3.65
  -6  11   8   46.59    6.50
  -6  11   7  110.39    9.16
  -6  11   6    5.30    3.50
  -6  11   5    2.13    3.49
  -6  11   4    8.86    3.88
  -6  11   3    1.85    3.43
  -6  11   2   57.01    6.62
  -6  11   1    8.19    3.53
  -6  11   0   -0.80    3.34
  -6  11  -1   28.93    5.30
  -6  11  -2   90.36    8.31
  -6  11  -3    7.90    3.57
  -6  11  -4   55.34    6.69
  -6  11  -5   27.29    5.23
  -6  11  -6   -3.60    3.47
  -6  11  -7   -1.63    3.65
  -6  11  -8  274.40   14.42
  -6  12  11   -2.46    3.79
  -6  12  10    7.45    3.82
  -6  12   9   20.57    5.19
  -6  12   8   13.08    4.50
  -6  12   7    3.21    3.61
  -6  12   6  107.87    9.15
  -6  12   5   40.30    6.24
  -6  12   4  115.42    9.28
  -6  12   3    3.39    3.84
  -6  12   2   94.91    8.50
  -6  12   1   -1.17    3.54
  -6  12   0   21.68    4.57
  -6  12  -1   43.32    6.17
  -6  12  -2   44.79    6.28
  -6  12  -3   36.89    5.98
  -6  12  -4   91.42    8.69
  -6  12  -5   13.53    4.71
  -6  12  -6    8.98    4.28
  -6  13   8   16.26    4.91
  -6  13   7   13.21    4.46
  -6  13   6    3.60    3.57
  -6  13   5    1.27    3.12
  -6  13   4   41.06    6.00
  -6  13   3   -0.91    3.33
  -6  13   2   14.35    4.54
  -6  13   1  105.55    9.24
  -6  13   0    0.64    3.56
  -6  13  -1   13.96    4.41
  -6  13  -2   13.26    4.54
  -6  13  -3   42.15    6.71
  -6  13  -4   75.50    8.03
  -6  14   5   31.24    5.95
  -6  14   4   45.30    6.73
  -6  14   3   78.49    8.22
  -6  14   2   45.58    6.51
  -6  14   1   33.51    5.79
  -6  14   0   60.20    7.46
  -7   0  16   -0.94    3.45
  -7   0  15   -0.23    3.16
  -7   0  14    0.26    3.72
  -7   0  13   -5.25    3.39
  -7   0  12   -5.67    3.91
  -7   0  11    7.24    4.08
  -7   0  10   16.87    4.77
  -7   0   9    2.36    3.20
  -7   0   8  155.44   11.46
  -7   0   7    3.57    3.59
  -7   0   6   25.88    5.29
  -7   0   5   -1.58    3.33
  -7   0   4  189.66   12.10
  -7   0   3    1.01    3.29
  -7   0   2  154.50   10.96
  -7   0   1   -4.61    3.60
  -7   0   0   24.18    5.12
  -7   0  -1    0.26    3.04
  -7   0  -2  128.91    9.86
  -7   0  -3    7.63    3.51
  -7   0  -4    6.69    3.89
  -7   0  -5    2.02    3.30
  -7   0  -6  189.44   12.17
  -7   0  -7   -1.11    3.14
  -7   0  -8   18.55    5.14
  -7   0  -9   -0.02    3.35
  -7   0 -10   10.00    4.02
  -7   0 -11    8.02    4.20
  -7   1  17   24.05    5.86
  -7   1  16   71.06    8.06
  -7  -1  16   70.69    7.92
  -7   1  15    7.14    3.91
  -7  -1  15    4.84    3.98
  -7   1  14   11.40    4.46
  -7  -1  14    7.70    3.63
  -7   1  14   15.61    4.05
  -7   1  13    8.44    4.13
  -7  -1  13    1.17    3.44
  -7   1  13    3.60    3.08
  -7  -1  12   96.61    8.95
  -7   1  12  103.44    9.12
  -7   1  12  106.09    7.80
  -7   1  11   -0.06    3.23
  -7  -1  11   -7.14    3.52
  -7   1  11    1.00    2.50
  -7   1  10   35.38    6.09
  -7  -1  10   33.82    6.12
  -7   1  10   40.32    4.89
  -7   1   9   30.79    5.67
  -7  -1   9   27.98    5.53
  -7   1   9   30.06    4.28
  -7   1   8   80.52    8.03
  -7  -1   8  106.82    8.40
  -7   1   8   80.27    6.25
  -7   1   7   12.57    4.39
  -7  -1   7   11.98    4.16
  -7   1   7   11.67    3.23
  -7  -1   6  131.70   10.54
  -7   1   6  127.21   10.15
  -7   1   6  126.50    7.29
  -7   1   5   -1.60    3.77
  -7  -1   5   -4.79    3.96
  -7   1   5   -1.61    2.25
  -7  -1   4  104.95    9.17
  -7   1   4  114.78    9.52
  -7   1   4  116.02    6.87
  -7   1   3   54.10    6.96
  -7  -1   3   45.28    6.43
  -7   1   3   42.63    4.23
  -7   1   2   10.31    4.12
  -7  -1   2   11.44    4.20
  -7   1   1    1.17    3.51
  -7  -1   1   -1.32    3.36
  -7   1   0   85.37    8.44
  -7  -1   0   68.16    7.44
  -7   1  -1    4.58    3.74
  -7  -1  -1   -3.26    3.42
  -7   1  -2   -1.55    2.92
  -7  -1  -2   -1.15    2.87
  -7  -1  -3    4.68    3.41
  -7   1  -3    7.87    3.63
  -7  -1  -4  124.10    9.84
  -7   1  -4  131.43   10.06
  -7   1  -5    1.44    3.36
  -7  -1  -5    6.94    3.62
  -7   1  -6  255.22   13.89
  -7  -1  -6  260.05   14.17
  -7   1  -7   11.18    4.56
  -7  -1  -7   23.62    5.65
  -7   1  -8   12.47    4.69
  -7  -1  -8    8.91    4.38
  -7  -1  -9   18.88    4.85
  -7   1  -9   19.21    5.10
  -7  -1 -10  257.19   13.97
  -7   1 -10  249.63   14.01
  -7  -1 -11   24.26    5.41
  -7   2  17   36.98    6.18
  -7   2  16   13.20    4.67
  -7   2  16   10.16    4.00
  -7  -2  15   62.98    7.52
  -7   2  15   53.93    7.15
  -7   2  15   65.64    6.85
  -7  -2  14    1.61    3.66
  -7   2  14    2.23    3.44
  -7   2  14    0.23    3.23
  -7  -2  13    7.06    3.76
  -7   2  13   -4.64    4.00
  -7   2  13    5.96    3.51
  -7  -2  12   74.29    8.02
  -7   2  12   65.09    7.41
  -7   2  12   63.99    6.46
  -7  -2  11    7.37    3.99
  -7   2  11   -0.42    3.19
  -7   2  11    6.71    3.19
  -7   2  10   -1.65    3.21
  -7  -2  10    4.57    3.69
  -7   2  10    2.42    2.98
  -7   2   9    2.95    3.55
  -7  -2   9    1.29    3.41
  -7   2   9    7.55    3.22
  -7  -2   8   89.07    8.54
  -7   2   8  119.67    9.83
  -7   2   8  118.83    7.71
  -7   2   7   -1.55    3.43
  -7  -2   7   -1.42    3.56
  -7   2   7    0.86    2.43
  -7   2   6   61.91    7.36
  -7  -2   6   58.84    7.09
  -7   2   6   60.24    5.43
  -7   2   5   38.04    6.00
  -7  -2   5   33.80    5.91
  -7   2   5   35.91    4.35
  -7  -2   4  173.82   11.53
  -7   2   4  173.59   11.51
  -7   2   4  177.80    8.67
  -7   2   3   20.98    5.27
  -7  -2   3   20.75    4.82
  -7   2   3   46.10    5.12
  -7  -2   2  232.59   13.14
  -7   2   2  216.28   12.96
  -7   2   2  240.59   10.07
  -7  -2   1    4.01    3.17
  -7   2   1    2.81    3.87
  -7   2   1    6.94    2.88
  -7  -2   0    7.37    3.17
  -7   2   0   17.33    4.95
  -7   2   0   11.68    2.68
  -7  -2  -1   -2.15    3.05
  -7   2  -1    6.78    3.65
  -7   2  -1   -3.32    2.32
  -7  -2  -2    7.23    4.42
  -7   2  -2   12.66    4.25
  -7   2  -3   17.19    4.47
  -7  -2  -3   11.60    3.72
  -7   2  -4    2.51    2.68
  -7  -2  -4    1.35    3.13
  -7   2  -5   56.20    6.72
  -7  -2  -5   45.48    6.47
  -7  -2  -6   27.38    5.40
  -7   2  -6   29.24    5.45
  -7  -2  -7    6.65    5.37
  -7   2  -7    0.02    3.48
  -7  -2  -8   25.69    5.60
  -7   2  -8   29.91    5.60
  -7  -2  -9   10.64    4.58
  -7  -2 -10   12.79    4.35
  -7  -2 -11    1.73    3.63
  -7   3  17   41.78    6.38
  -7   3  16  190.05   12.28
  -7   3  16  188.31   11.66
  -7   3  15    2.17    3.58
  -7   3  15   -0.47    3.32
  -7   3  14   10.79    4.16
  -7  -3  14   12.29    4.72
  -7   3  14   18.95    4.50
  -7   3  13   78.94    8.18
  -7  -3  13   61.18    7.43
  -7   3  13   72.57    6.95
  -7   3  12   66.11    7.93
  -7  -3  12   55.39    7.09
  -7   3  12   68.06    6.82
  -7  -3  11   42.50    6.39
  -7   3  11   48.26    6.87
  -7   3  11   36.34    5.20
  -7  -3  10   -2.44    3.48
  -7   3  10    4.35    3.38
  -7   3  10    3.03    3.26
  -7   3   9   29.63    5.28
  -7   3   9   26.80    4.57
  -7   3   8   17.89    4.83
  -7   3   8   10.25    3.09
  -7   3   7    2.34    3.42
  -7   3   7    7.92    2.96
  -7   3   6   14.36    4.55
  -7   3   6   16.12    3.51
  -7   3   5    7.97    3.73
  -7   3   5    2.20    2.46
  -7  -3   4    2.42    3.37
  -7   3   4   -2.03    3.38
  -7   3   4    3.98    2.82
  -7  -3   3   59.19    7.35
  -7   3   3   52.20    6.93
  -7   3   3   73.21    6.21
  -7  -3   2   21.82    5.21
  -7   3   2   23.50    5.23
  -7   3   2   33.75    4.62
  -7   3   1   47.80    6.58
  -7  -3   1   51.57    6.67
  -7   3   1   47.36    4.95
  -7   3   0   31.09    5.58
  -7  -3   0   15.92    4.33
  -7   3   0   18.13    3.28
  -7   3  -1   20.19    5.05
  -7  -3  -1   17.38    4.24
  -7   3  -1   13.33    2.74
  -7   3  -2  124.15   10.05
  -7  -3  -2  124.27    9.78
  -7   3  -2  103.68    6.84
  -7  -3  -3   10.97    3.72
  -7   3  -3   11.45    3.90
  -7   3  -3   -5.91    3.44
  -7   3  -4   21.83    4.89
  -7  -3  -4    5.29    3.39
  -7   3  -4   13.13    2.99
  -7   3  -5   -3.18    3.46
  -7  -3  -5   -0.19    3.53
  -7   3  -6  178.47   11.87
  -7  -3  -6  177.11   11.78
  -7  -3  -7   30.70    6.37
  -7  -3  -8    2.07    3.36
  -7  -3  -9   25.88    5.26
  -7  -3 -10   87.04    8.44
  -7   4  17   26.63    5.45
  -7   4  16    8.12    4.36
  -7   4  16    8.85    3.68
  -7   4  15    6.06    4.03
  -7   4  15   15.48    4.71
  -7   4  14   59.36    7.38
  -7   4  14   55.60    6.75
  -7   4  13   -3.01    3.26
  -7   4  13    4.40    3.28
  -7   4  12   38.24    6.21
  -7   4  12   29.96    5.15
  -7   4  11   43.60    6.51
  -7   4  11   43.96    5.70
  -7   4  10    9.93    4.09
  -7   4  10    5.99    3.13
  -7   4   9   15.00    4.38
  -7   4   9   22.12    4.29
  -7   4   8   -3.46    4.00
  -7   4   8    3.98    3.04
  -7   4   7    6.05    6.30
  -7   4   7   16.08    3.65
  -7   4   6   26.91    5.44
  -7   4   6   30.12    4.53
  -7   4   5   72.86    8.07
  -7   4   5   71.88    6.29
  -7   4   4   -1.28    3.54
  -7   4   4    1.64    2.50
  -7   4   3   31.55    5.82
  -7   4   3   24.48    4.08
  -7   4   2  195.19   12.50
  -7   4   2  180.49    9.43
  -7   4   1  131.88   10.29
  -7   4   1  126.72    7.99
  -7   4   0   60.67    7.57
  -7   4   0   41.92    4.10
  -7   4  -1   33.31    5.81
  -7  -4  -1   26.32    4.74
  -7   4  -1   21.44    3.32
  -7   4  -2   80.87    8.39
  -7  -4  -2   62.61    7.41
  -7   4  -2   66.61    7.19
  -7   4  -3   20.23    4.92
  -7  -4  -3   10.65    3.65
  -7   4  -3    1.22    3.03
  -7   4  -4    9.92    3.75
  -7  -4  -4   20.97    4.93
  -7   4  -4   18.48    3.78
  -7  -4  -5   46.83    6.24
  -7   4  -5   50.73    5.50
  -7  -4  -6   -1.46    3.15
  -7   4  -6    8.40    3.14
  -7  -4  -7    8.47    4.00
  -7  -4  -8   20.14    4.78
  -7  -4  -9    6.41    3.45
  -7  -4 -10    1.08    3.30
  -7   5  16   38.35    6.53
  -7   5  15   87.08    8.37
  -7   5  14    0.39    3.68
  -7   5  14    1.31    3.04
  -7   5  13   42.24    6.71
  -7   5  13   24.97    4.95
  -7   5  12   34.59    5.96
  -7   5  12   36.30    5.78
  -7   5  11   12.53    4.99
  -7   5  11    7.37    3.45
  -7   5  10   30.14    5.71
  -7   5  10   23.66    4.71
  -7   5   9    6.17    4.02
  -7   5   9    1.85    2.92
  -7   5   8   -0.28    3.51
  -7   5   8    0.87    2.85
  -7   5   7   95.71    9.24
  -7   5   7   87.96    7.15
  -7   5   6    0.04    3.38
  -7   5   6    0.34    2.65
  -7   5   5   19.57    5.12
  -7   5   5   18.84    4.00
  -7   5   4   62.35    7.60
  -7   5   4   53.20    5.92
  -7   5   3    9.53    4.50
  -7   5   3   11.69    3.54
  -7   5   2   -0.14    3.77
  -7   5   2    0.08    2.51
  -7   5   1    3.33    3.64
  -7   5   1    1.29    2.54
  -7   5   0    9.53    4.16
  -7   5   0    7.70    3.31
  -7   5  -1   44.70    6.56
  -7   5  -1   35.51    4.86
  -7   5  -2   28.41    4.49
  -7   5  -3   57.43    5.92
  -7  -5  -4   10.10    4.06
  -7   5  -4   23.66    4.57
  -7  -5  -5   21.44    4.82
  -7   5  -5   31.27    4.83
  -7  -5  -6    3.78    3.38
  -7   5  -6    8.42    3.22
  -7  -5  -7    3.12    3.54
  -7   5  -7    6.27    3.11
  -7  -5  -8   -5.24    3.76
  -7   5  -8   -1.51    2.29
  -7  -5  -9   -1.22    3.36
  -7  -5 -10   -3.13    3.42
  -7   6  15    8.09    4.13
  -7   6  14   61.44    7.22
  -7   6  13    3.39    3.72
  -7   6  12    9.07    4.00
  -7   6  11  174.37   10.82
  -7   6  10   96.46    8.20
  -7   6   9   16.83    4.85
  -7   6   9   12.05    4.43
  -7   6   8    7.30    4.46
  -7   6   8   -2.08    3.07
  -7   6   7    2.47    3.53
  -7   6   7   -1.09    3.16
  -7   6   6   44.33    6.95
  -7   6   6   32.07    5.01
  -7   6   5   49.57    7.12
  -7   6   5   53.65    5.98
  -7   6   4   10.84    4.60
  -7   6   4    0.20    4.20
  -7   6   3   57.81    5.25
  -7   6   2   17.66    6.67
  -7   6   1   83.42    7.16
  -7   6   0   36.45    5.26
  -7   6  -1    4.22    2.83
  -7   6  -2    2.72    2.77
  -7   6  -3    7.50    3.35
  -7   6  -4    8.42    3.95
  -7   6  -5  182.32   10.60
  -7  -6  -6   -3.93    3.55
  -7   6  -6    5.73    3.29
  -7  -6  -7  131.66   10.18
  -7   6  -7  134.62    9.39
  -7  -6  -8   95.51    8.87
  -7   6  -8  106.04    8.49
  -7   6  -9   79.02    7.53
  -7   7  14    3.77    3.68
  -7   7  13   66.84    7.67
  -7   7  12    0.57    3.24
  -7   7  11   15.84    4.22
  -7   7  10   21.82    4.96
  -7   7   9   44.63    5.91
  -7   7   8   68.73    7.14
  -7   7   7   38.15    5.57
  -7   7   6   86.02    7.63
  -7   7   5    5.36    3.43
  -7   7   4   82.75    7.36
  -7   7   3   68.13    6.79
  -7   7   2   10.82    3.62
  -7   7   1    2.88    2.98
  -7   7   0   34.70    5.16
  -7   7  -1    7.63    3.50
  -7   7  -2    1.70    2.77
  -7   7  -3   53.04    6.29
  -7   7  -4   15.84    3.95
  -7   7  -5    6.29    3.78
  -7   7  -6   14.35    4.14
  -7   7  -7   16.61    4.14
  -7   7  -8    6.93    3.55
  -7   7  -9   23.69    5.25
  -7   8  13   47.26    6.75
  -7   8  12   67.53    7.73
  -7   8  11   10.71    7.54
  -7   8  10   51.71    5.97
  -7   8   9    3.04    3.86
  -7   8   8   73.83    7.36
  -7   8   7   -3.77    3.41
  -7   8   6    6.70    3.09
  -7   8   5  116.33    9.03
  -7   8   4    8.41    3.78
  -7   8   3    0.38    3.26
  -7   8   2   32.81    5.41
  -7   8   1    6.26    3.70
  -7   8   0    0.85    2.97
  -7   8  -1    8.82    3.77
  -7   8  -2    2.76    2.97
  -7   8  -3    5.36    3.51
  -7   8  -4   48.69    6.36
  -7   8  -5   75.46    7.50
  -7   8  -6    2.84    3.03
  -7   8  -7    4.48    3.54
  -7   8  -8  150.58   10.63
  -7   9  11    6.23    3.76
  -7   9  10  126.26   10.01
  -7   9   9   48.22    6.63
  -7   9   8   17.16    4.55
  -7   9   7    7.09    3.75
  -7   9   6   66.24    7.32
  -7   9   5   32.86    5.66
  -7   9   4  132.75    9.82
  -7   9   3    4.62    3.70
  -7   9   2   80.82    7.71
  -7   9   1   -1.86    3.33
  -7   9   0  294.79   14.12
  -7   9  -1   12.68    4.17
  -7   9  -2   19.55    4.59
  -7   9  -3    1.85    3.02
  -7   9  -4   85.53    8.40
  -7   9  -5   11.74    4.57
  -7   9  -6   34.23    5.77
  -7   9  -7   23.91    5.36
  -7  10   9    5.26    3.49
  -7  10   8   39.77    6.15
  -7  10   7    0.09    3.28
  -7  10   6    8.07    3.98
  -7  10   5    8.04    4.71
  -7  10   4   51.12    6.62
  -7  10   3    5.18    4.08
  -7  10   2   -0.11    3.00
  -7  10   1   -0.71    3.24
  -7  10   0   76.71    7.72
  -7  10  -1    6.07    3.29
  -7  10  -2    2.96    3.02
  -7  10  -3    9.45    3.98
  -7  10  -4  150.57   11.10
  -7  10  -5    7.06    4.11
  -7  11   6   20.94    5.10
  -7  11   5    2.67    3.36
  -7  11   4   97.60    8.97
  -7  11   3    0.92    3.28
  -7  11   2   28.19    5.41
  -7  11   1    0.08    3.33
  -7  11   0  124.83    9.95
  -7  11  -1   48.02    6.69
   0   0   0    0.00    0.00


TITL pvl426 in P2(1)/c
REM P2(1)/c (#14 in standard setting)
CELL 0.71073   6.118580  18.201148  19.826246  90.0000  97.8858  90.0000
ZERR    4.00   0.000272   0.000854   0.001108   0.0000   0.0047   0.0000
LATT  1
SYMM -x, y+1/2,-z+1/2
SFAC C H N O S Zn
UNIT 80.00 80.00 16.00 32.00 8.00 4.00
TREF
HKLF 4
END
_computing_structure_solution     'SHELXT 2018/2 (Sheldrick, 2018)'
;
_shelx_hkl_checksum   45853

