 
data_pvl640_a
 
_audit_creation_method            'SHELXL-2018/3'
_shelx_SHELXL_version_number      '2018/3'
_chemical_name_systematic         ?
_chemical_name_common             ?
_chemical_melting_point           ?
_chemical_formula_moiety          ?
_chemical_formula_sum
 'C4 H3.67 N O0.67 S0.17 Zn0.17' 
_chemical_formula_weight          92.65

loop_
 _atom_type_symbol
 _atom_type_description
 _atom_type_scat_dispersion_real
 _atom_type_scat_dispersion_imag
 _atom_type_scat_source
 'C'  'C'   0.0033   0.0016
 'International Tables Vol C Tables 4.2.6.8 and 6.1.1.4'
 'H'  'H'   0.0000   0.0000
 'International Tables Vol C Tables 4.2.6.8 and 6.1.1.4'
 'N'  'N'   0.0061   0.0033
 'International Tables Vol C Tables 4.2.6.8 and 6.1.1.4'
 'O'  'O'   0.0106   0.0060
 'International Tables Vol C Tables 4.2.6.8 and 6.1.1.4'
 'S'  'S'   0.1246   0.1234
 'International Tables Vol C Tables 4.2.6.8 and 6.1.1.4'
 'Zn'  'Zn'   0.2839   1.4301
 'International Tables Vol C Tables 4.2.6.8 and 6.1.1.4'
 
_space_group_crystal_system       triclinic
_space_group_IT_number            2
_space_group_name_H-M_alt         'P -1'
_space_group_name_Hall            '-P 1'
 
_shelx_space_group_comment
;
The symmetry employed for this shelxl refinement is uniquely defined
by the following loop, which should always be used as a source of
symmetry information in preference to the above space-group names.
They are only intended as comments.
;
 
loop_
 _space_group_symop_operation_xyz
 'x, y, z'
 '-x, -y, -z'
 
_cell_length_a                    12.0467(13)
_cell_length_b                    12.7751(12)
_cell_length_c                    18.2561(18)
_cell_angle_alpha                 106.888(3)
_cell_angle_beta                  100.083(3)
_cell_angle_gamma                 95.076(3)
_cell_volume                      2617.8(5)
_cell_formula_units_Z             24
_cell_measurement_temperature     150(2)
_cell_measurement_reflns_used     ?
_cell_measurement_theta_min       ?
_cell_measurement_theta_max       ?
 
_exptl_crystal_description        ?
_exptl_crystal_colour             ?
_exptl_crystal_density_meas       ?
_exptl_crystal_density_method     ?
_exptl_crystal_density_diffrn     1.411          
_exptl_crystal_F_000              1144
_exptl_transmission_factor_min    ?
_exptl_transmission_factor_max    ?
_exptl_crystal_size_max           0.133
_exptl_crystal_size_mid           0.107
_exptl_crystal_size_min           0.098
_exptl_absorpt_coefficient_mu     1.059
_shelx_estimated_absorpt_T_min    0.872
_shelx_estimated_absorpt_T_max    0.903
_exptl_absorpt_correction_type    ?
_exptl_absorpt_correction_T_min   ?
_exptl_absorpt_correction_T_max   ?
_exptl_absorpt_process_details    ?
_exptl_absorpt_special_details    ?
_diffrn_ambient_temperature       150(2)
_diffrn_radiation_wavelength      0.71073
_diffrn_radiation_type            MoK\a
_diffrn_source                    ?
_diffrn_measurement_device_type   ?
_diffrn_measurement_method        ?
_diffrn_detector_area_resol_mean  ?
_diffrn_reflns_number             27840
_diffrn_reflns_av_unetI/netI      0.1143
_diffrn_reflns_av_R_equivalents   0.0851
_diffrn_reflns_limit_h_min        -14
_diffrn_reflns_limit_h_max        14
_diffrn_reflns_limit_k_min        -15
_diffrn_reflns_limit_k_max        14
_diffrn_reflns_limit_l_min        -21
_diffrn_reflns_limit_l_max        22
_diffrn_reflns_theta_min          1.684
_diffrn_reflns_theta_max          25.712
_diffrn_reflns_theta_full         25.242
_diffrn_measured_fraction_theta_max   0.996
_diffrn_measured_fraction_theta_full  0.998
_diffrn_reflns_Laue_measured_fraction_max    0.996
_diffrn_reflns_Laue_measured_fraction_full   0.998
_diffrn_reflns_point_group_measured_fraction_max   0.996
_diffrn_reflns_point_group_measured_fraction_full  0.998
_reflns_number_total              9946
_reflns_number_gt                 5699
_reflns_threshold_expression      'I > 2\s(I)'
_reflns_Friedel_coverage          0.000
_reflns_Friedel_fraction_max      .
_reflns_Friedel_fraction_full     .
 
_reflns_special_details
;
 Reflections were merged by SHELXL according to the crystal
 class for the calculation of statistics and refinement.
 
 _reflns_Friedel_fraction is defined as the number of unique
 Friedel pairs measured divided by the number that would be
 possible theoretically, ignoring centric projections and
 systematic absences.
;
 
_computing_data_collection        ?
_computing_cell_refinement        ?
_computing_data_reduction         ?
_computing_structure_solution     'SHELXT 2018/2 (Sheldrick, 2018)'
_computing_structure_refinement 'SHELXL-2018/3 (Sheldrick, 2018)'
_computing_molecular_graphics     ?
_computing_publication_material   ?
_refine_special_details           ?
_refine_ls_structure_factor_coef  Fsqd
_refine_ls_matrix_type            full
_refine_ls_weighting_scheme       calc
_refine_ls_weighting_details
'w=1/[\s^2^(Fo^2^)+(0.1942P)^2^+5.0131P] where P=(Fo^2^+2Fc^2^)/3'
_atom_sites_solution_primary      ?
_atom_sites_solution_secondary    ?
_atom_sites_solution_hydrogens    geom
_refine_ls_hydrogen_treatment     constr
_refine_ls_extinction_method      none
_refine_ls_extinction_coef        .
_refine_ls_number_reflns          9946
_refine_ls_number_parameters      649
_refine_ls_number_restraints      0
_refine_ls_R_factor_all           0.1614
_refine_ls_R_factor_gt            0.1012
_refine_ls_wR_factor_ref          0.3307
_refine_ls_wR_factor_gt           0.2836
_refine_ls_goodness_of_fit_ref    1.041
_refine_ls_restrained_S_all       1.041
_refine_ls_shift/su_max           0.000
_refine_ls_shift/su_mean          0.000
 
loop_
 _atom_site_label
 _atom_site_type_symbol
 _atom_site_fract_x
 _atom_site_fract_y
 _atom_site_fract_z
 _atom_site_U_iso_or_equiv
 _atom_site_adp_type
 _atom_site_occupancy
 _atom_site_site_symmetry_order  
 _atom_site_calc_flag
 _atom_site_refinement_flags_posn
 _atom_site_refinement_flags_adp
 _atom_site_refinement_flags_occupancy
 _atom_site_disorder_assembly
 _atom_site_disorder_group
Zn01 Zn 0.65241(8) 0.57864(7) 0.78988(5) 0.0199(3) Uani 1 1 d . . . . .
O1 O 1.1016(8) 0.9196(6) 1.1907(5) 0.061(2) Uani 1 1 d . . . . .
Zn02 Zn 0.13682(8) 0.05308(8) 0.28817(5) 0.0231(3) Uani 1 1 d . . . . .
S003 S -0.1580(2) 0.60697(19) 0.48655(13) 0.0293(6) Uani 1 1 d . . . . .
S004 S 0.3480(2) 1.1192(2) 0.98143(15) 0.0369(6) Uani 1 1 d . . . . .
O005 O 0.8119(5) 0.6499(5) 0.8270(3) 0.0272(14) Uani 1 1 d . . . . .
O006 O 0.6661(5) 0.4812(5) 0.6882(4) 0.0327(15) Uani 1 1 d . . . . .
O007 O 0.2348(5) 0.1978(5) 0.4336(3) 0.0294(15) Uani 1 1 d . . . . .
O008 O 0.7620(5) 0.7116(5) 0.9420(4) 0.0342(16) Uani 1 1 d . . . . .
O009 O 0.2975(5) 0.1202(5) 0.3268(3) 0.0314(15) Uani 1 1 d . . . . .
N00A N 0.4965(5) 0.8568(5) 0.8170(4) 0.0199(15) Uani 1 1 d . . . . .
O00B O 0.4801(6) 0.4430(6) 0.6739(4) 0.0384(17) Uani 1 1 d . . . . .
N00C N 0.5552(6) 1.3201(6) 0.8703(4) 0.0255(16) Uani 1 1 d . . . . .
N00D N 0.6088(6) 1.4769(5) 0.8495(4) 0.0239(16) Uani 1 1 d . . . . .
N00E N 0.0993(6) 0.9550(6) 0.3536(4) 0.0273(17) Uani 1 1 d . . . . .
N00F N 0.5503(6) 0.6943(5) 0.7959(4) 0.0226(15) Uani 1 1 d . . . . .
N00G N -0.0131(6) 0.3355(6) 0.3253(4) 0.0234(16) Uani 1 1 d . . . . .
N00H N 0.0585(6) 0.8001(6) 0.3788(4) 0.0243(16) Uani 1 1 d . . . . .
N00I N -0.0882(6) 0.6977(6) 0.4593(4) 0.0283(17) Uani 1 1 d . . . . .
N00J N 0.0320(6) 0.1677(6) 0.2965(4) 0.0251(16) Uani 1 1 d . . . . .
N00K N -0.1217(6) 0.4940(6) 0.4368(4) 0.0265(17) Uani 1 1 d . . . . .
N00L N 0.4121(6) 1.2135(6) 0.9531(4) 0.0291(18) Uani 1 1 d . . . . .
O00N O 1.1683(7) 1.0419(6) 1.1437(5) 0.061(2) Uani 1 1 d . . . . .
C00O C 0.5042(7) 0.9726(6) 0.8288(5) 0.0219(18) Uani 1 1 d . . . . .
N00P N 0.3873(7) 1.0088(6) 0.9292(4) 0.0319(18) Uani 1 1 d . . . . .
C00Q C -0.0004(7) 0.4510(7) 0.3371(5) 0.0248(19) Uani 1 1 d . . . . .
C00R C 0.5652(7) 1.0186(7) 0.7872(5) 0.0225(18) Uani 1 1 d . . . . .
H00R H 0.598416 0.972763 0.748505 0.027 Uiso 1 1 calc R U . . .
C00S C 0.5656(7) 0.3460(7) 0.5685(5) 0.0218(18) Uani 1 1 d . . . . .
C00T C 0.5858(7) 0.8012(6) 0.8124(5) 0.0203(17) Uani 1 1 d . . . . .
H00T H 0.662632 0.833642 0.819885 0.024 Uiso 1 1 calc R U . . .
C00U C 0.1012(8) 0.9782(7) 0.4331(5) 0.031(2) Uani 1 1 d . . . . .
H00U H 0.118086 1.050070 0.470388 0.037 Uiso 1 1 calc R U . . .
C00V C 0.3136(8) 0.1786(7) 0.4000(5) 0.0241(19) Uani 1 1 d . . . . .
C00W C -0.0539(7) 0.5225(6) 0.3926(5) 0.0192(17) Uani 1 1 d . . . . .
C00X C 0.4663(8) 1.1595(7) 0.8991(5) 0.0251(19) Uani 1 1 d . . . . .
C00Y C 0.5775(8) 1.3712(7) 0.8169(5) 0.027(2) Uani 1 1 d . . . . .
H00Y H 0.570784 1.333778 0.762753 0.033 Uiso 1 1 calc R U . . .
C00Z C 0.0652(7) 0.4977(7) 0.2966(5) 0.026(2) Uani 1 1 d . . . . .
H00Z H 0.098652 0.451431 0.258284 0.032 Uiso 1 1 calc R U . . .
C010 C 0.5799(8) 1.1352(6) 0.8011(5) 0.0248(19) Uani 1 1 d . . . . .
H010 H 0.623287 1.165463 0.771444 0.030 Uiso 1 1 calc R U . . .
C011 C 0.4439(7) 0.3052(6) 0.5233(5) 0.0221(18) Uani 1 1 d . . . . .
H01A H 0.407021 0.369106 0.516696 0.026 Uiso 1 1 calc R U . . .
H01B H 0.401110 0.269942 0.553677 0.026 Uiso 1 1 calc R U . . .
C012 C 0.5336(7) 1.2046(7) 0.8558(5) 0.0224(18) Uani 1 1 d . . . . .
C013 C 0.4382(7) 0.2228(6) 0.4435(5) 0.0202(18) Uani 1 1 d . . . . .
C014 C 0.6317(8) 0.3999(6) 0.5207(5) 0.025(2) Uani 1 1 d . . . . .
H01C H 0.597940 0.465357 0.514194 0.030 Uiso 1 1 calc R U . . .
H01D H 0.712032 0.424955 0.549048 0.030 Uiso 1 1 calc R U . . .
C015 C 0.4513(7) 1.0400(7) 0.8844(5) 0.0233(19) Uani 1 1 d . . . . .
C016 C 0.6068(8) 1.4997(7) 0.9279(5) 0.030(2) Uani 1 1 d . . . . .
H016 H 0.625292 1.571011 0.965864 0.037 Uiso 1 1 calc R U . . .
C017 C 0.8355(8) 0.6987(7) 0.9029(5) 0.0252(19) Uani 1 1 d . . . . .
C018 C 0.9619(8) 0.7346(7) 0.9421(5) 0.026(2) Uani 1 1 d . . . . .
C019 C 0.5691(8) 0.4301(7) 0.6486(5) 0.028(2) Uani 1 1 d . . . . .
C01A C 0.5743(8) 1.4042(7) 0.9424(5) 0.033(2) Uani 1 1 d . . . . .
H01E H 0.566244 1.396100 0.991358 0.040 Uiso 1 1 calc R U . . .
C01B C 0.0755(8) 0.8842(7) 0.4494(5) 0.030(2) Uani 1 1 d . . . . .
H01F H 0.070193 0.876842 0.499048 0.035 Uiso 1 1 calc R U . . .
C01C C 0.0736(8) 0.8481(7) 0.3233(5) 0.027(2) Uani 1 1 d . . . . .
H01G H 0.066337 0.808862 0.269458 0.032 Uiso 1 1 calc R U . . .
C01D C 0.0378(7) 0.6849(7) 0.3642(5) 0.0242(19) Uani 1 1 d . . . . .
C01E C 0.0688(7) 0.2709(7) 0.3067(5) 0.0250(19) Uani 1 1 d . . . . .
H01H H 0.142372 0.297698 0.301847 0.030 Uiso 1 1 calc R U . . .
C01F C -0.0323(7) 0.6400(7) 0.4074(5) 0.0251(19) Uani 1 1 d . . . . .
C01G C 0.6207(8) 0.2481(7) 0.5802(5) 0.029(2) Uani 1 1 d . . . . .
H01I H 0.579131 0.213218 0.611351 0.035 Uiso 1 1 calc R U . . .
H01J H 0.700472 0.273934 0.609563 0.035 Uiso 1 1 calc R U . . .
C01H C 0.0833(7) 0.6137(7) 0.3114(5) 0.027(2) Uani 1 1 d . . . . .
H01K H 0.129768 0.642727 0.282801 0.032 Uiso 1 1 calc R U . . .
C01I C 0.4967(7) 0.1228(6) 0.4541(5) 0.0258(19) Uani 1 1 d . . . . .
H01L H 0.453861 0.084118 0.482585 0.031 Uiso 1 1 calc R U . . .
H01M H 0.495826 0.069933 0.402101 0.031 Uiso 1 1 calc R U . . .
C01J C 0.6274(7) 0.3166(7) 0.4398(5) 0.028(2) Uani 1 1 d . . . . .
H01N H 0.670570 0.352081 0.408983 0.033 Uiso 1 1 calc R U . . .
C01K C 0.6188(8) 0.1615(7) 0.4994(5) 0.029(2) Uani 1 1 d . . . . .
H01O H 0.654978 0.097019 0.507339 0.035 Uiso 1 1 calc R U . . .
C01L C 0.5054(7) 0.2776(7) 0.3962(5) 0.027(2) Uani 1 1 d . . . . .
H01P H 0.503109 0.223664 0.344389 0.032 Uiso 1 1 calc R U . . .
H01Q H 0.469653 0.341147 0.387795 0.032 Uiso 1 1 calc R U . . .
C01M C 0.4354(7) 0.6830(7) 0.7886(6) 0.032(2) Uani 1 1 d . . . . .
H01R H 0.386990 0.614379 0.775137 0.038 Uiso 1 1 calc R U . . .
C01N C 0.3993(8) 0.7826(7) 0.8030(6) 0.032(2) Uani 1 1 d . . . . .
H01S H 0.323693 0.798067 0.803448 0.038 Uiso 1 1 calc R U . . .
C01O C -0.1069(7) 0.2659(8) 0.3273(6) 0.035(2) Uani 1 1 d . . . . .
H01T H -0.177255 0.286195 0.339084 0.042 Uiso 1 1 calc R U . . .
C01P C 0.9799(8) 0.8260(7) 1.0193(5) 0.031(2) Uani 1 1 d . . . . .
H01U H 0.937152 0.802032 1.054668 0.038 Uiso 1 1 calc R U . . .
H01V H 0.951324 0.892565 1.010443 0.038 Uiso 1 1 calc R U . . .
C01Q C -0.0774(8) 0.1634(8) 0.3091(6) 0.039(3) Uani 1 1 d . . . . .
H01W H -0.125176 0.097991 0.305455 0.047 Uiso 1 1 calc R U . . .
C01R C 1.0069(8) 0.6288(7) 0.9544(6) 0.032(2) Uani 1 1 d . . . . .
H01X H 0.963384 0.600119 0.987459 0.039 Uiso 1 1 calc R U . . .
H01Y H 0.996652 0.570622 0.903197 0.039 Uiso 1 1 calc R U . . .
C01S C 0.6833(8) 0.2162(8) 0.4529(6) 0.034(2) Uani 1 1 d . . . . .
H01Z H 0.683151 0.161880 0.401654 0.041 Uiso 1 1 calc R U . . .
H011 H 0.763418 0.241796 0.481490 0.041 Uiso 1 1 calc R U . . .
C01T C 1.1330(8) 0.6577(8) 0.9939(6) 0.040(3) Uani 1 1 d . . . . .
H012 H 1.161725 0.590313 1.002715 0.048 Uiso 1 1 calc R U . . .
C01U C 1.1115(9) 0.8544(8) 1.0581(6) 0.037(2) Uani 1 1 d . . . . .
C01V C 1.1771(10) 0.8907(9) 1.0044(6) 0.046(3) Uani 1 1 d . . . . .
H013 H 1.153910 0.960290 0.997502 0.055 Uiso 1 1 calc R U . . .
H014 H 1.259733 0.904950 1.027847 0.055 Uiso 1 1 calc R U . . .
C01W C 1.0320(8) 0.7740(8) 0.8891(5) 0.036(2) Uani 1 1 d . . . . .
H015 H 1.021725 0.714713 0.838436 0.043 Uiso 1 1 calc R U . . .
H017 H 1.003407 0.839546 0.878320 0.043 Uiso 1 1 calc R U . . .
C01X C 1.1317(10) 0.9476(9) 1.1388(7) 0.049(3) Uani 1 1 d . . . . .
C01Y C 1.1462(11) 0.7471(9) 1.0724(6) 0.052(3) Uani 1 1 d . . . . .
H018 H 1.226321 0.761224 1.101475 0.063 Uiso 1 1 calc R U . . .
H019 H 1.097201 0.722261 1.104231 0.063 Uiso 1 1 calc R U . . .
C01Z C 1.1545(9) 0.8028(9) 0.9264(6) 0.046(3) Uani 1 1 d . . . . .
H020 H 1.197262 0.828115 0.890908 0.055 Uiso 1 1 calc R U . . .
C020 C 1.1983(8) 0.6969(9) 0.9398(7) 0.050(3) Uani 1 1 d . . . . .
H02A H 1.187091 0.637803 0.889042 0.061 Uiso 1 1 calc R U . . .
H02B H 1.280807 0.713769 0.963707 0.061 Uiso 1 1 calc R U . . .
 
loop_
 _atom_site_aniso_label
 _atom_site_aniso_U_11
 _atom_site_aniso_U_22
 _atom_site_aniso_U_33
 _atom_site_aniso_U_23
 _atom_site_aniso_U_13
 _atom_site_aniso_U_12
Zn01 0.0213(5) 0.0172(5) 0.0212(5) 0.0033(4) 0.0080(4) 0.0055(4)
O1 0.097(7) 0.037(4) 0.051(5) 0.008(4) 0.029(5) 0.012(4)
Zn02 0.0225(6) 0.0264(6) 0.0218(6) 0.0064(4) 0.0084(4) 0.0081(4)
S003 0.0325(13) 0.0294(12) 0.0322(13) 0.0088(10) 0.0208(10) 0.0111(10)
S004 0.0483(15) 0.0277(12) 0.0421(15) 0.0073(11) 0.0304(13) 0.0152(11)
O005 0.022(3) 0.034(3) 0.017(3) -0.004(3) 0.005(2) -0.002(3)
O006 0.022(3) 0.035(4) 0.029(4) -0.006(3) 0.004(3) 0.000(3)
O007 0.021(3) 0.032(3) 0.028(3) -0.005(3) 0.012(3) 0.002(3)
O008 0.032(4) 0.038(4) 0.026(3) -0.005(3) 0.015(3) 0.007(3)
O009 0.025(3) 0.041(4) 0.020(3) -0.002(3) 0.005(3) 0.006(3)
N00A 0.016(3) 0.017(3) 0.024(4) 0.003(3) 0.005(3) 0.002(3)
O00B 0.032(4) 0.047(4) 0.033(4) 0.002(3) 0.013(3) 0.010(3)
N00C 0.035(4) 0.016(3) 0.029(4) 0.005(3) 0.015(3) 0.010(3)
N00D 0.029(4) 0.018(4) 0.021(4) 0.001(3) 0.005(3) 0.003(3)
N00E 0.030(4) 0.024(4) 0.029(4) 0.005(3) 0.014(3) 0.006(3)
N00F 0.026(4) 0.018(4) 0.025(4) 0.006(3) 0.010(3) 0.004(3)
N00G 0.022(4) 0.021(4) 0.028(4) 0.004(3) 0.014(3) 0.008(3)
N00H 0.029(4) 0.021(4) 0.023(4) 0.003(3) 0.013(3) 0.002(3)
N00I 0.033(4) 0.028(4) 0.029(4) 0.008(3) 0.017(3) 0.016(3)
N00J 0.028(4) 0.026(4) 0.023(4) 0.008(3) 0.006(3) 0.013(3)
N00K 0.023(4) 0.025(4) 0.032(4) 0.005(3) 0.014(3) 0.007(3)
N00L 0.034(4) 0.023(4) 0.035(4) 0.006(3) 0.021(4) 0.012(3)
O00N 0.064(5) 0.036(4) 0.067(6) -0.002(4) 0.011(4) -0.012(4)
C00O 0.029(5) 0.013(4) 0.021(4) 0.001(3) 0.004(4) 0.008(4)
N00P 0.042(5) 0.027(4) 0.036(5) 0.013(3) 0.022(4) 0.013(4)
C00Q 0.022(4) 0.029(5) 0.023(5) 0.008(4) 0.004(4) 0.009(4)
C00R 0.027(5) 0.021(4) 0.022(4) 0.006(3) 0.011(4) 0.011(4)
C00S 0.025(4) 0.018(4) 0.019(4) 0.001(3) 0.010(4) -0.005(4)
C00T 0.021(4) 0.021(4) 0.021(4) 0.005(3) 0.007(3) 0.007(3)
C00U 0.037(5) 0.025(5) 0.030(5) 0.006(4) 0.006(4) 0.010(4)
C00V 0.035(5) 0.016(4) 0.020(4) 0.003(3) 0.009(4) 0.004(4)
C00W 0.016(4) 0.020(4) 0.021(4) 0.004(3) 0.005(3) 0.004(3)
C00X 0.033(5) 0.015(4) 0.027(5) 0.000(3) 0.014(4) 0.012(4)
C00Y 0.040(5) 0.021(4) 0.021(5) 0.004(4) 0.006(4) 0.013(4)
C00Z 0.028(5) 0.020(4) 0.029(5) 0.000(4) 0.012(4) 0.005(4)
C010 0.036(5) 0.016(4) 0.023(5) 0.003(3) 0.012(4) 0.008(4)
C011 0.023(4) 0.018(4) 0.030(5) 0.011(4) 0.011(4) 0.005(4)
C012 0.022(4) 0.024(4) 0.026(5) 0.009(4) 0.015(4) 0.007(4)
C013 0.022(4) 0.020(4) 0.020(4) 0.001(3) 0.012(3) 0.008(3)
C014 0.034(5) 0.011(4) 0.030(5) 0.001(3) 0.016(4) 0.000(4)
C015 0.028(5) 0.016(4) 0.029(5) 0.005(3) 0.015(4) 0.007(4)
C016 0.034(5) 0.022(5) 0.034(5) 0.005(4) 0.010(4) 0.009(4)
C017 0.029(5) 0.023(4) 0.022(5) 0.001(4) 0.008(4) 0.011(4)
C018 0.032(5) 0.023(4) 0.019(4) 0.000(3) 0.000(4) 0.008(4)
C019 0.038(5) 0.028(5) 0.020(5) 0.013(4) 0.002(4) 0.002(4)
C01A 0.046(6) 0.026(5) 0.026(5) -0.001(4) 0.016(4) 0.015(4)
C01B 0.032(5) 0.027(5) 0.026(5) 0.001(4) 0.013(4) 0.003(4)
C01C 0.032(5) 0.023(4) 0.021(5) 0.002(4) 0.006(4) 0.001(4)
C01D 0.028(5) 0.025(4) 0.022(4) 0.008(4) 0.009(4) 0.011(4)
C01E 0.024(5) 0.032(5) 0.021(4) 0.011(4) 0.007(4) 0.005(4)
C01F 0.029(5) 0.034(5) 0.020(4) 0.013(4) 0.015(4) 0.015(4)
C01G 0.027(5) 0.027(5) 0.027(5) 0.005(4) -0.002(4) 0.002(4)
C01H 0.025(5) 0.028(5) 0.031(5) 0.012(4) 0.013(4) 0.005(4)
C01I 0.029(5) 0.012(4) 0.037(5) 0.005(4) 0.010(4) 0.004(4)
C01J 0.021(4) 0.033(5) 0.030(5) 0.008(4) 0.011(4) 0.000(4)
C01K 0.032(5) 0.023(4) 0.028(5) 0.000(4) 0.001(4) 0.009(4)
C01L 0.027(5) 0.031(5) 0.020(4) 0.004(4) 0.008(4) 0.002(4)
C01M 0.018(4) 0.018(4) 0.055(6) 0.003(4) 0.013(4) -0.002(4)
C01N 0.022(5) 0.020(4) 0.052(6) 0.006(4) 0.014(4) 0.001(4)
C01O 0.014(4) 0.032(5) 0.055(7) 0.004(5) 0.011(4) 0.003(4)
C01P 0.040(6) 0.024(5) 0.026(5) 0.003(4) 0.004(4) 0.009(4)
C01Q 0.024(5) 0.035(6) 0.059(7) 0.007(5) 0.018(5) 0.007(4)
C01R 0.031(5) 0.026(5) 0.034(5) 0.002(4) 0.003(4) 0.010(4)
C01S 0.021(5) 0.031(5) 0.041(6) -0.005(4) 0.009(4) 0.003(4)
C01T 0.031(5) 0.029(5) 0.051(7) 0.006(5) -0.007(5) 0.012(4)
C01U 0.038(6) 0.030(5) 0.029(5) -0.004(4) -0.005(4) 0.005(4)
C01V 0.049(7) 0.040(6) 0.042(6) 0.014(5) -0.002(5) -0.010(5)
C01W 0.039(6) 0.038(6) 0.028(5) 0.007(4) 0.009(4) -0.001(5)
C01X 0.054(7) 0.031(6) 0.076(9) 0.032(6) 0.026(6) 0.006(5)
C01Y 0.060(8) 0.045(6) 0.047(7) 0.019(5) -0.016(6) 0.017(6)
C01Z 0.038(6) 0.055(7) 0.043(6) 0.023(5) 0.000(5) -0.013(5)
C020 0.022(5) 0.056(7) 0.063(8) 0.005(6) 0.006(5) 0.002(5)
 
_geom_special_details
;
 All esds (except the esd in the dihedral angle between two l.s. planes)
 are estimated using the full covariance matrix.  The cell esds are taken
 into account individually in the estimation of esds in distances, angles
 and torsion angles; correlations between esds in cell parameters are only
 used when they are defined by crystal symmetry.  An approximate (isotropic)
 treatment of cell esds is used for estimating esds involving l.s. planes.
;
 
loop_
 _geom_bond_atom_site_label_1
 _geom_bond_atom_site_label_2
 _geom_bond_distance
 _geom_bond_site_symmetry_2
 _geom_bond_publ_flag
Zn01 O006 1.955(6) . ?
Zn01 O005 1.964(6) . ?
Zn01 N00F 1.995(7) . ?
Zn01 N00D 2.012(7) 1_545 ?
O1 C01X 1.205(13) . ?
O1 Zn02 2.024(7) 1_666 ?
Zn02 O009 1.964(6) . ?
Zn02 N00J 2.006(7) . ?
Zn02 N00E 2.040(7) 1_545 ?
S003 N00K 1.609(7) . ?
S003 N00I 1.614(8) . ?
S004 N00P 1.618(7) . ?
S004 N00L 1.629(8) . ?
O005 C017 1.310(10) . ?
O006 C019 1.269(11) . ?
O007 C00V 1.223(10) . ?
O008 C017 1.225(10) . ?
O009 C00V 1.298(10) . ?
N00A C00T 1.341(10) . ?
N00A C01N 1.376(10) . ?
N00A C00O 1.424(10) . ?
O00B C019 1.246(11) . ?
N00C C00Y 1.371(11) . ?
N00C C01A 1.402(11) . ?
N00C C012 1.413(10) . ?
N00D C00Y 1.298(10) . ?
N00D C016 1.381(11) . ?
N00E C01C 1.301(11) . ?
N00E C00U 1.389(11) . ?
N00F C00T 1.324(10) . ?
N00F C01M 1.359(11) . ?
N00G C01E 1.366(11) . ?
N00G C01O 1.387(11) . ?
N00G C00Q 1.418(11) . ?
N00H C01C 1.357(11) . ?
N00H C01B 1.386(10) . ?
N00H C01D 1.408(11) . ?
N00I C01F 1.343(10) . ?
N00J C01E 1.302(11) . ?
N00J C01Q 1.377(11) . ?
N00K C00W 1.343(10) . ?
N00L C00X 1.336(10) . ?
O00N C01X 1.217(12) . ?
C00O C00R 1.357(11) . ?
C00O C015 1.411(11) . ?
N00P C015 1.334(11) . ?
C00Q C00Z 1.379(12) . ?
C00Q C00W 1.439(11) . ?
C00R C010 1.425(11) . ?
C00S C011 1.514(11) . ?
C00S C01G 1.517(12) . ?
C00S C019 1.534(11) . ?
C00S C014 1.539(11) . ?
C00U C01B 1.342(13) . ?
C00V C013 1.541(12) . ?
C00W C01F 1.437(11) . ?
C00X C012 1.420(11) . ?
C00X C015 1.460(11) . ?
C00Z C01H 1.416(12) . ?
C010 C012 1.365(11) . ?
C011 C013 1.517(10) . ?
C013 C01L 1.543(11) . ?
C013 C01I 1.556(11) . ?
C014 C01J 1.538(11) . ?
C016 C01A 1.360(13) . ?
C017 C018 1.531(12) . ?
C018 C01P 1.513(11) . ?
C018 C01W 1.549(12) . ?
C018 C01R 1.560(12) . ?
C01D C01H 1.349(11) . ?
C01D C01F 1.441(11) . ?
C01G C01K 1.562(12) . ?
C01I C01K 1.516(12) . ?
C01J C01L 1.507(12) . ?
C01J C01S 1.559(13) . ?
C01K C01S 1.514(13) . ?
C01M C01N 1.349(12) . ?
C01O C01Q 1.350(13) . ?
C01P C01U 1.581(13) . ?
C01R C01T 1.524(13) . ?
C01T C01Y 1.524(14) . ?
C01T C020 1.527(15) . ?
C01U C01V 1.508(14) . ?
C01U C01Y 1.547(14) . ?
C01U C01X 1.566(15) . ?
C01V C01Z 1.498(14) . ?
C01W C01Z 1.478(14) . ?
C01Z C020 1.562(16) . ?
 
loop_
 _geom_angle_atom_site_label_1
 _geom_angle_atom_site_label_2
 _geom_angle_atom_site_label_3
 _geom_angle
 _geom_angle_site_symmetry_1
 _geom_angle_site_symmetry_3
 _geom_angle_publ_flag
O006 Zn01 O005 98.0(2) . . ?
O006 Zn01 N00F 120.3(3) . . ?
O005 Zn01 N00F 109.5(3) . . ?
O006 Zn01 N00D 105.3(3) . 1_545 ?
O005 Zn01 N00D 112.7(3) . 1_545 ?
N00F Zn01 N00D 110.5(3) . 1_545 ?
C01X O1 Zn02 107.8(8) . 1_666 ?
O009 Zn02 N00J 111.9(3) . . ?
O009 Zn02 O1 116.4(3) . 1_444 ?
N00J Zn02 O1 118.1(3) . 1_444 ?
O009 Zn02 N00E 108.2(3) . 1_545 ?
N00J Zn02 N00E 109.1(3) . 1_545 ?
O1 Zn02 N00E 90.3(3) 1_444 1_545 ?
N00K S003 N00I 101.6(4) . . ?
N00P S004 N00L 100.9(4) . . ?
C017 O005 Zn01 111.3(5) . . ?
C019 O006 Zn01 110.6(6) . . ?
C00V O009 Zn02 109.5(5) . . ?
C00T N00A C01N 108.7(7) . . ?
C00T N00A C00O 123.8(7) . . ?
C01N N00A C00O 127.3(7) . . ?
C00Y N00C C01A 105.9(7) . . ?
C00Y N00C C012 125.4(7) . . ?
C01A N00C C012 128.1(7) . . ?
C00Y N00D C016 107.0(7) . . ?
C00Y N00D Zn01 122.9(6) . 1_565 ?
C016 N00D Zn01 130.0(6) . 1_565 ?
C01C N00E C00U 106.0(7) . . ?
C01C N00E Zn02 121.7(6) . 1_565 ?
C00U N00E Zn02 132.1(6) . 1_565 ?
C00T N00F C01M 106.4(7) . . ?
C00T N00F Zn01 124.7(6) . . ?
C01M N00F Zn01 128.9(6) . . ?
C01E N00G C01O 106.9(7) . . ?
C01E N00G C00Q 124.2(7) . . ?
C01O N00G C00Q 128.9(7) . . ?
C01C N00H C01B 107.2(7) . . ?
C01C N00H C01D 123.7(7) . . ?
C01B N00H C01D 129.0(7) . . ?
C01F N00I S003 105.5(6) . . ?
C01E N00J C01Q 106.7(7) . . ?
C01E N00J Zn02 122.0(6) . . ?
C01Q N00J Zn02 130.0(6) . . ?
C00W N00K S003 106.2(6) . . ?
C00X N00L S004 105.9(6) . . ?
C00R C00O C015 119.9(7) . . ?
C00R C00O N00A 119.3(7) . . ?
C015 C00O N00A 120.8(7) . . ?
C015 N00P S004 107.1(6) . . ?
C00Z C00Q N00G 120.8(7) . . ?
C00Z C00Q C00W 118.4(8) . . ?
N00G C00Q C00W 120.8(7) . . ?
C00O C00R C010 120.5(7) . . ?
C011 C00S C01G 109.0(7) . . ?
C011 C00S C019 110.8(7) . . ?
C01G C00S C019 109.3(7) . . ?
C011 C00S C014 108.9(7) . . ?
C01G C00S C014 109.0(7) . . ?
C019 C00S C014 109.8(6) . . ?
N00F C00T N00A 109.6(7) . . ?
C01B C00U N00E 110.0(8) . . ?
O007 C00V O009 122.4(8) . . ?
O007 C00V C013 121.1(7) . . ?
O009 C00V C013 116.5(7) . . ?
N00K C00W C01F 112.7(7) . . ?
N00K C00W C00Q 127.9(7) . . ?
C01F C00W C00Q 119.3(7) . . ?
N00L C00X C012 127.8(8) . . ?
N00L C00X C015 113.7(7) . . ?
C012 C00X C015 118.4(7) . . ?
N00D C00Y N00C 111.6(7) . . ?
C00Q C00Z C01H 120.9(8) . . ?
C012 C010 C00R 122.1(8) . . ?
C00S C011 C013 111.8(7) . . ?
C010 C012 N00C 120.0(7) . . ?
C010 C012 C00X 119.2(8) . . ?
N00C C012 C00X 120.7(7) . . ?
C011 C013 C00V 111.0(6) . . ?
C011 C013 C01L 109.3(7) . . ?
C00V C013 C01L 111.9(7) . . ?
C011 C013 C01I 109.1(7) . . ?
C00V C013 C01I 108.0(7) . . ?
C01L C013 C01I 107.5(7) . . ?
C01J C014 C00S 110.2(6) . . ?
N00P C015 C00O 127.8(8) . . ?
N00P C015 C00X 112.3(7) . . ?
C00O C015 C00X 119.8(7) . . ?
C01A C016 N00D 109.4(8) . . ?
O008 C017 O005 122.7(8) . . ?
O008 C017 C018 120.6(8) . . ?
O005 C017 C018 116.6(7) . . ?
C01P C018 C017 112.2(7) . . ?
C01P C018 C01W 108.4(7) . . ?
C017 C018 C01W 112.2(7) . . ?
C01P C018 C01R 110.9(7) . . ?
C017 C018 C01R 105.8(7) . . ?
C01W C018 C01R 107.3(8) . . ?
O00B C019 O006 122.4(8) . . ?
O00B C019 C00S 120.4(8) . . ?
O006 C019 C00S 117.1(8) . . ?
C016 C01A N00C 106.1(8) . . ?
C00U C01B N00H 105.7(8) . . ?
N00E C01C N00H 111.1(8) . . ?
C01H C01D N00H 122.3(8) . . ?
C01H C01D C01F 117.9(8) . . ?
N00H C01D C01F 119.8(7) . . ?
N00J C01E N00G 110.7(7) . . ?
N00I C01F C00W 113.8(7) . . ?
N00I C01F C01D 126.0(8) . . ?
C00W C01F C01D 120.1(7) . . ?
C00S C01G C01K 110.3(7) . . ?
C01D C01H C00Z 123.2(8) . . ?
C01K C01I C013 110.6(7) . . ?
C01L C01J C014 110.0(7) . . ?
C01L C01J C01S 109.5(7) . . ?
C014 C01J C01S 107.7(7) . . ?
C01S C01K C01I 108.3(8) . . ?
C01S C01K C01G 108.8(7) . . ?
C01I C01K C01G 109.6(7) . . ?
C01J C01L C013 110.1(7) . . ?
C01N C01M N00F 110.7(8) . . ?
C01M C01N N00A 104.6(8) . . ?
C01Q C01O N00G 105.7(8) . . ?
C018 C01P C01U 109.3(7) . . ?
C01O C01Q N00J 109.9(9) . . ?
C01T C01R C018 109.2(7) . . ?
C01K C01S C01J 110.6(7) . . ?
C01Y C01T C01R 108.7(9) . . ?
C01Y C01T C020 111.5(9) . . ?
C01R C01T C020 108.5(9) . . ?
C01V C01U C01Y 112.0(9) . . ?
C01V C01U C01X 110.2(8) . . ?
C01Y C01U C01X 108.9(8) . . ?
C01V C01U C01P 110.1(8) . . ?
C01Y C01U C01P 105.6(8) . . ?
C01X C01U C01P 110.0(8) . . ?
C01Z C01V C01U 109.9(8) . . ?
C01Z C01W C018 111.3(8) . . ?
O1 C01X O00N 125.1(12) . . ?
O1 C01X C01U 115.3(9) . . ?
O00N C01X C01U 119.4(10) . . ?
C01T C01Y C01U 109.2(8) . . ?
C01W C01Z C01V 112.8(10) . . ?
C01W C01Z C020 108.3(8) . . ?
C01V C01Z C020 107.7(9) . . ?
C01T C020 C01Z 109.6(8) . . ?
 
_refine_diff_density_max    3.430
_refine_diff_density_min   -0.925
_refine_diff_density_rms    0.222

_shelx_res_file
;
TITL pvl640_a.res in P-1
    pvl640_a.res
    created by SHELXL-2018/3 at 14:01:46 on 15-Jun-2022
REM Old TITL pvl640 in P-1
REM SHELXT solution in P-1: R1 0.180, Rweak 0.013, Alpha 0.071
REM <I/s>   0.000 for    0 systematic absences,  Orientation as input
REM Formula found by SHELXT:  C53 N12 O7 S2 Zn2
CELL  0.71073  12.0467  12.7751  18.2561  106.888  100.083   95.076
ZERR   24.000   0.0013   0.0012   0.0018    0.003    0.003    0.003
LATT  1
SFAC C H N O S ZN
UNIT 96 88 24 16 4 4
ACTA
TEMP -123.150
SIZE 0.098 0.107 0.133
L.S. 10
BOND
LIST 6
FMAP 2
PLAN 20
WGHT    0.194200    5.013100
FVAR       0.26919
ZN01  6    0.652411    0.578641    0.789881    11.00000    0.02132    0.01722 =
         0.02125    0.00331    0.00798    0.00553
O1    4    1.101585    0.919602    1.190728    11.00000    0.09745    0.03655 =
         0.05134    0.00824    0.02888    0.01152
ZN02  6    0.136823    0.053079    0.288172    11.00000    0.02251    0.02643 =
         0.02179    0.00639    0.00838    0.00807
S003  5   -0.157975    0.606972    0.486545    11.00000    0.03248    0.02942 =
         0.03215    0.00877    0.02080    0.01109
S004  5    0.347969    1.119176    0.981429    11.00000    0.04835    0.02770 =
         0.04213    0.00733    0.03039    0.01518
O005  4    0.811907    0.649865    0.827025    11.00000    0.02196    0.03432 =
         0.01696   -0.00386    0.00525   -0.00180
O006  4    0.666063    0.481233    0.688208    11.00000    0.02222    0.03472 =
         0.02931   -0.00620    0.00447    0.00006
O007  4    0.234755    0.197832    0.433616    11.00000    0.02075    0.03247 =
         0.02796   -0.00470    0.01176    0.00234
O008  4    0.761999    0.711639    0.942002    11.00000    0.03200    0.03797 =
         0.02623   -0.00523    0.01506    0.00653
O009  4    0.297517    0.120156    0.326800    11.00000    0.02536    0.04094 =
         0.02039   -0.00212    0.00510    0.00589
N00A  3    0.496523    0.856784    0.816980    11.00000    0.01584    0.01707 =
         0.02439    0.00254    0.00454    0.00203
O00B  4    0.480055    0.443030    0.673949    11.00000    0.03174    0.04710 =
         0.03269    0.00178    0.01348    0.01004
N00C  3    0.555175    1.320142    0.870346    11.00000    0.03465    0.01618 =
         0.02872    0.00506    0.01483    0.01018
N00D  3    0.608809    1.476880    0.849463    11.00000    0.02940    0.01775 =
         0.02104    0.00079    0.00541    0.00307
N00E  3    0.099258    0.955011    0.353634    11.00000    0.03009    0.02384 =
         0.02936    0.00543    0.01403    0.00613
N00F  3    0.550333    0.694269    0.795895    11.00000    0.02633    0.01798 =
         0.02518    0.00639    0.00981    0.00392
N00G  3   -0.013115    0.335473    0.325278    11.00000    0.02242    0.02127 =
         0.02846    0.00441    0.01355    0.00767
N00H  3    0.058505    0.800111    0.378840    11.00000    0.02855    0.02115 =
         0.02314    0.00300    0.01286    0.00178
N00I  3   -0.088225    0.697737    0.459338    11.00000    0.03335    0.02790 =
         0.02914    0.00815    0.01682    0.01592
N00J  3    0.032043    0.167654    0.296473    11.00000    0.02793    0.02642 =
         0.02330    0.00830    0.00611    0.01282
N00K  3   -0.121723    0.493980    0.436817    11.00000    0.02329    0.02508 =
         0.03189    0.00461    0.01379    0.00672
N00L  3    0.412088    1.213518    0.953102    11.00000    0.03356    0.02332 =
         0.03532    0.00649    0.02104    0.01178
O00N  4    1.168326    1.041875    1.143703    11.00000    0.06375    0.03577 =
         0.06743   -0.00185    0.01099   -0.01189
C00O  1    0.504158    0.972607    0.828806    11.00000    0.02914    0.01256 =
         0.02134    0.00077    0.00379    0.00841
N00P  3    0.387347    1.008772    0.929201    11.00000    0.04189    0.02694 =
         0.03584    0.01318    0.02207    0.01300
C00Q  1   -0.000435    0.450990    0.337060    11.00000    0.02232    0.02880 =
         0.02343    0.00756    0.00372    0.00861
C00R  1    0.565210    1.018614    0.787215    11.00000    0.02741    0.02144 =
         0.02155    0.00560    0.01081    0.01109
AFIX  43
H00R  2    0.598416    0.972763    0.748505    11.00000   -1.20000
AFIX   0
C00S  1    0.565552    0.345950    0.568510    11.00000    0.02536    0.01766 =
         0.01925    0.00060    0.00965   -0.00485
C00T  1    0.585775    0.801220    0.812413    11.00000    0.02053    0.02091 =
         0.02055    0.00546    0.00684    0.00725
AFIX  43
H00T  2    0.662632    0.833642    0.819885    11.00000   -1.20000
AFIX   0
C00U  1    0.101154    0.978232    0.433103    11.00000    0.03684    0.02466 =
         0.02970    0.00596    0.00570    0.01010
AFIX  43
H00U  2    0.118086    1.050070    0.470388    11.00000   -1.20000
AFIX   0
C00V  1    0.313586    0.178638    0.400008    11.00000    0.03537    0.01622 =
         0.01998    0.00283    0.00888    0.00368
C00W  1   -0.053856    0.522478    0.392574    11.00000    0.01580    0.02004 =
         0.02087    0.00407    0.00509    0.00367
C00X  1    0.466322    1.159539    0.899097    11.00000    0.03304    0.01528 =
         0.02698   -0.00042    0.01389    0.01168
C00Y  1    0.577457    1.371151    0.816892    11.00000    0.03980    0.02065 =
         0.02109    0.00417    0.00644    0.01322
AFIX  43
H00Y  2    0.570784    1.333778    0.762753    11.00000   -1.20000
AFIX   0
C00Z  1    0.065168    0.497709    0.296612    11.00000    0.02765    0.02049 =
         0.02865   -0.00038    0.01216    0.00498
AFIX  43
H00Z  2    0.098652    0.451431    0.258284    11.00000   -1.20000
AFIX   0
C010  1    0.579905    1.135151    0.801145    11.00000    0.03593    0.01620 =
         0.02315    0.00268    0.01223    0.00836
AFIX  43
H010  2    0.623287    1.165463    0.771444    11.00000   -1.20000
AFIX   0
C011  1    0.443891    0.305248    0.523326    11.00000    0.02329    0.01797 =
         0.02996    0.01144    0.01105    0.00471
AFIX  23
H01A  2    0.407021    0.369106    0.516696    11.00000   -1.20000
H01B  2    0.401110    0.269942    0.553677    11.00000   -1.20000
AFIX   0
C012  1    0.533584    1.204617    0.855847    11.00000    0.02176    0.02443 =
         0.02633    0.00920    0.01470    0.00700
C013  1    0.438205    0.222814    0.443450    11.00000    0.02188    0.01958 =
         0.01975    0.00115    0.01249    0.00760
C014  1    0.631720    0.399889    0.520689    11.00000    0.03381    0.01133 =
         0.02995    0.00129    0.01646   -0.00030
AFIX  23
H01C  2    0.597940    0.465357    0.514194    11.00000   -1.20000
H01D  2    0.712032    0.424955    0.549048    11.00000   -1.20000
AFIX   0
C015  1    0.451284    1.040033    0.884357    11.00000    0.02825    0.01582 =
         0.02899    0.00522    0.01495    0.00744
C016  1    0.606833    1.499721    0.927914    11.00000    0.03448    0.02218 =
         0.03406    0.00478    0.01008    0.00850
AFIX  43
H016  2    0.625292    1.571011    0.965864    11.00000   -1.20000
AFIX   0
C017  1    0.835533    0.698695    0.902879    11.00000    0.02858    0.02307 =
         0.02237    0.00104    0.00784    0.01079
C018  1    0.961902    0.734575    0.942128    11.00000    0.03173    0.02256 =
         0.01944   -0.00031   -0.00012    0.00849
C019  1    0.569075    0.430110    0.648593    11.00000    0.03762    0.02771 =
         0.01968    0.01265    0.00161    0.00237
C01A  1    0.574326    1.404196    0.942369    11.00000    0.04616    0.02642 =
         0.02563   -0.00115    0.01573    0.01499
AFIX  43
H01E  2    0.566244    1.396100    0.991358    11.00000   -1.20000
AFIX   0
C01B  1    0.075538    0.884214    0.449429    11.00000    0.03191    0.02748 =
         0.02645    0.00091    0.01267    0.00282
AFIX  43
H01F  2    0.070193    0.876842    0.499048    11.00000   -1.20000
AFIX   0
C01C  1    0.073581    0.848131    0.323344    11.00000    0.03201    0.02316 =
         0.02111    0.00185    0.00582    0.00081
AFIX  43
H01G  2    0.066337    0.808862    0.269458    11.00000   -1.20000
AFIX   0
C01D  1    0.037842    0.684911    0.364153    11.00000    0.02808    0.02533 =
         0.02238    0.00826    0.00879    0.01064
C01E  1    0.068756    0.270921    0.306676    11.00000    0.02431    0.03239 =
         0.02090    0.01092    0.00678    0.00488
AFIX  43
H01H  2    0.142372    0.297698    0.301847    11.00000   -1.20000
AFIX   0
C01F  1   -0.032280    0.639980    0.407400    11.00000    0.02881    0.03435 =
         0.02048    0.01258    0.01483    0.01476
C01G  1    0.620702    0.248141    0.580226    11.00000    0.02733    0.02748 =
         0.02707    0.00463   -0.00159    0.00236
AFIX  23
H01I  2    0.579131    0.213218    0.611351    11.00000   -1.20000
H01J  2    0.700472    0.273934    0.609563    11.00000   -1.20000
AFIX   0
C01H  1    0.083296    0.613676    0.311422    11.00000    0.02547    0.02817 =
         0.03124    0.01154    0.01293    0.00519
AFIX  43
H01K  2    0.129768    0.642727    0.282801    11.00000   -1.20000
AFIX   0
C01I  1    0.496741    0.122824    0.454097    11.00000    0.02866    0.01154 =
         0.03673    0.00471    0.00996    0.00448
AFIX  23
H01L  2    0.453861    0.084118    0.482585    11.00000   -1.20000
H01M  2    0.495826    0.069933    0.402101    11.00000   -1.20000
AFIX   0
C01J  1    0.627364    0.316647    0.439760    11.00000    0.02094    0.03284 =
         0.02952    0.00804    0.01117   -0.00025
AFIX  13
H01N  2    0.670570    0.352081    0.408983    11.00000   -1.20000
AFIX   0
C01K  1    0.618781    0.161466    0.499375    11.00000    0.03166    0.02273 =
         0.02771    0.00010    0.00068    0.00897
AFIX  13
H01O  2    0.654978    0.097019    0.507339    11.00000   -1.20000
AFIX   0
C01L  1    0.505360    0.277562    0.396247    11.00000    0.02739    0.03135 =
         0.02017    0.00417    0.00772    0.00233
AFIX  23
H01P  2    0.503109    0.223664    0.344389    11.00000   -1.20000
H01Q  2    0.469653    0.341147    0.387795    11.00000   -1.20000
AFIX   0
C01M  1    0.435361    0.682982    0.788576    11.00000    0.01769    0.01841 =
         0.05540    0.00338    0.01344   -0.00219
AFIX  43
H01R  2    0.386990    0.614379    0.775137    11.00000   -1.20000
AFIX   0
C01N  1    0.399316    0.782599    0.803017    11.00000    0.02186    0.02015 =
         0.05179    0.00603    0.01354    0.00132
AFIX  43
H01S  2    0.323693    0.798067    0.803448    11.00000   -1.20000
AFIX   0
C01O  1   -0.106882    0.265903    0.327303    11.00000    0.01397    0.03208 =
         0.05504    0.00396    0.01111    0.00262
AFIX  43
H01T  2   -0.177255    0.286195    0.339084    11.00000   -1.20000
AFIX   0
C01P  1    0.979940    0.826008    1.019294    11.00000    0.04038    0.02442 =
         0.02608    0.00343    0.00420    0.00887
AFIX  23
H01U  2    0.937152    0.802032    1.054668    11.00000   -1.20000
H01V  2    0.951324    0.892565    1.010443    11.00000   -1.20000
AFIX   0
C01Q  1   -0.077447    0.163380    0.309066    11.00000    0.02366    0.03462 =
         0.05917    0.00695    0.01774    0.00717
AFIX  43
H01W  2   -0.125176    0.097991    0.305455    11.00000   -1.20000
AFIX   0
C01R  1    1.006946    0.628793    0.954368    11.00000    0.03146    0.02620 =
         0.03386    0.00201    0.00349    0.00951
AFIX  23
H01X  2    0.963384    0.600119    0.987459    11.00000   -1.20000
H01Y  2    0.996652    0.570622    0.903197    11.00000   -1.20000
AFIX   0
C01S  1    0.683254    0.216233    0.452926    11.00000    0.02142    0.03107 =
         0.04086   -0.00488    0.00925    0.00341
AFIX  23
H01Z  2    0.683151    0.161880    0.401654    11.00000   -1.20000
H011  2    0.763418    0.241796    0.481490    11.00000   -1.20000
AFIX   0
C01T  1    1.132977    0.657651    0.993860    11.00000    0.03074    0.02942 =
         0.05102    0.00609   -0.00736    0.01182
AFIX  13
H012  2    1.161725    0.590313    1.002715    11.00000   -1.20000
AFIX   0
C01U  1    1.111471    0.854392    1.058105    11.00000    0.03766    0.03002 =
         0.02948   -0.00443   -0.00462    0.00487
C01V  1    1.177142    0.890732    1.004367    11.00000    0.04892    0.04020 =
         0.04219    0.01394   -0.00169   -0.01023
AFIX  23
H013  2    1.153910    0.960290    0.997502    11.00000   -1.20000
H014  2    1.259733    0.904950    1.027847    11.00000   -1.20000
AFIX   0
C01W  1    1.031976    0.774029    0.889057    11.00000    0.03927    0.03786 =
         0.02849    0.00733    0.00866   -0.00105
AFIX  23
H015  2    1.021725    0.714713    0.838436    11.00000   -1.20000
H017  2    1.003407    0.839546    0.878320    11.00000   -1.20000
AFIX   0
C01X  1    1.131663    0.947649    1.138815    11.00000    0.05431    0.03120 =
         0.07645    0.03175    0.02561    0.00608
C01Y  1    1.146187    0.747090    1.072417    11.00000    0.05974    0.04504 =
         0.04677    0.01871   -0.01623    0.01672
AFIX  23
H018  2    1.226321    0.761224    1.101475    11.00000   -1.20000
H019  2    1.097201    0.722261    1.104231    11.00000   -1.20000
AFIX   0
C01Z  1    1.154459    0.802766    0.926402    11.00000    0.03784    0.05538 =
         0.04307    0.02330    0.00034   -0.01314
AFIX  13
H020  2    1.197262    0.828115    0.890908    11.00000   -1.20000
AFIX   0
C020  1    1.198299    0.696936    0.939844    11.00000    0.02158    0.05582 =
         0.06306    0.00489    0.00588    0.00221
AFIX  23
H02A  2    1.187091    0.637803    0.889042    11.00000   -1.20000
H02B  2    1.280807    0.713769    0.963707    11.00000   -1.20000
AFIX   0
HKLF 4




REM  pvl640_a.res in P-1
REM wR2 = 0.3307, GooF = S = 1.041, Restrained GooF = 1.041 for all data
REM R1 = 0.1012 for 5699 Fo > 4sig(Fo) and 0.1614 for all 9946 data
REM 649 parameters refined using 0 restraints

END

WGHT      0.1943      5.0131

REM Highest difference peak  3.430,  deepest hole -0.925,  1-sigma level  0.222
Q1    1  -0.2327  0.7278  0.2266  11.00000  0.05    3.43
Q2    1  -0.2276 -0.0919  0.2608  11.00000  0.05    2.96
Q3    1   0.6204  0.5206  0.7957  11.00000  0.05    2.62
Q4    1   0.2514  1.2021  0.7277  11.00000  0.05    2.53
Q5    1   0.1742  0.1191  0.2892  11.00000  0.05    2.52
Q6    1   0.2660  0.3775  0.7584  11.00000  0.05    2.52
Q7    1   0.8189  0.7206  1.1694  11.00000  0.05    1.82
Q8    1   0.9705  0.9296  1.1770  11.00000  0.05    1.61
Q9    1  -0.2041  0.8222  0.2073  11.00000  0.05    1.33
Q10   1   1.1641  0.9854  1.1934  11.00000  0.05    1.29
Q11   1   0.3186  1.0782  0.9956  11.00000  0.05    1.14
Q12   1   0.7953  1.6424  1.1506  11.00000  0.05    1.07
Q13   1   1.0407  0.8277  1.0673  11.00000  0.05    0.94
Q14   1   1.0462  0.9074  1.1404  11.00000  0.05    0.92
Q15   1  -0.1306  0.6562  0.4776  11.00000  0.05    0.81
Q16   1   0.7844  0.5822  0.8297  11.00000  0.05    0.77
Q17   1   0.5787  1.4356  0.9463  11.00000  0.05    0.75
Q18   1   0.6286  0.4340  0.6941  11.00000  0.05    0.74
Q19   1   0.9155  0.7853  1.0265  11.00000  0.05    0.74
Q20   1   0.9610  0.7372  0.9221  11.00000  0.05    0.74
;
_shelx_res_checksum    1689

_shelx_hkl_file
;
  -2   0   0 1861.31   70.79
  -2   0   0 1814.32   70.99
   2   0   0 1822.92   70.69
   2   0   0 1849.02   71.19
  -3   0   0   84.39    8.80
  -3   0   0   85.09    8.40
   3   0   0  102.19    9.50
   3   0   0   92.09    8.20
  -4   0   0 1354.76   57.49
  -4   0   0 1431.96   58.39
   4   0   0 1435.06   57.69
   4   0   0 1402.36   58.59
  -5   0   0    9.70    5.50
  -5   0   0    2.20    4.40
   5   0   0   16.60    6.90
   5   0   0   10.40    4.80
  -6   0   0  145.89   14.00
  -6   0   0  130.49   12.30
   6   0   0  143.29   12.30
   6   0   0  130.39   13.90
  -7   0   0    2.00    6.10
  -7   0   0   12.00    6.50
   7   0   0   -0.30    6.80
   7   0   0   -2.60    4.40
  -8   0   0   23.80    9.30
  -8   0   0   33.10    8.80
   8   0   0   28.90    8.20
   8   0   0   28.70   11.40
  -9   0   0   39.20   10.30
  -9   0   0   47.10   12.10
   9   0   0   40.20   12.50
   9   0   0   45.20   10.20
 -10   0   0  156.48   19.30
 -10   0   0  156.38   18.00
  10   0   0  158.58   17.00
 -11   0   0   16.10   10.50
 -11   0   0    4.20    9.80
  11   0   0   26.10   10.40
 -12   0   0   10.60   12.70
  12   0   0   20.20   10.20
 -13   0   0   16.30   12.40
  13   0   0    9.60   11.90
 -14   0   0   45.30   16.90
  14   0   0   72.69   17.60
  14  -1   0   -6.50    9.10
 -14   1   0   -8.40   10.60
  13  -1   0    3.90   11.90
 -13   1   0    5.30   11.50
  12  -1   0   12.10    8.90
 -12   1   0   24.30   13.30
  11  -1   0  212.28   20.60
 -11   1   0  202.78   23.00
  10  -1   0   68.99   13.40
 -10   1   0   65.49   15.80
 -10   1   0   79.39   15.90
   9  -1   0   22.70   11.00
   9  -1   0   45.30   10.80
  -9   1   0   32.70   10.30
  -9   1   0   51.09   12.90
   8  -1   0   30.10    9.50
   8  -1   0    5.90    6.70
  -8   1   0   12.80    7.40
  -8   1   0   17.20    8.40
   7  -1   0  317.17   22.50
   7  -1   0  331.27   21.60
  -7   1   0  354.66   22.90
  -7   1   0  320.57   21.40
   6  -1   0    3.60    4.90
   6  -1   0    5.80    6.40
  -6   1   0    1.80    5.50
  -6   1   0   15.00    7.20
   5  -1   0  443.56   24.80
   5  -1   0  487.75   24.90
  -5   1   0  469.05   25.30
  -5   1   0  493.85   25.10
   4  -1   0   44.80    7.60
   4  -1   0   53.39    8.40
  -4   1   0   53.99    9.10
  -4   1   0   30.40    6.70
   3  -1   0 4066.69  156.08
   3  -1   0 4094.09  156.28
  -3   1   0 4160.68  156.28
  -3   1   0 4068.29  156.48
   2  -1   0   31.10    5.20
   2  -1   0   39.00    5.90
  -2   1   0   33.60    5.40
  -2   1   0   37.80    5.90
   1  -1   0 1176.88   46.70
   1  -1   0 1189.28   45.30
  -1   1   0 1137.99   45.80
  -1   1   0 1163.38   45.20
   0   1   0   -1.80    1.90
  -1  -1   0   29.00    4.60
   1   1   0   24.70    4.20
   1   1   0   21.00    2.20
  -2  -1   0    9.00    4.70
   2   1   0    4.50    2.70
   2   1   0    6.90    4.80
  -3  -1   0   12.10    3.90
  -3  -1   0    0.70    4.70
   3   1   0    4.10    3.20
   3   1   0   12.40    6.20
  -4  -1   0   -0.90    3.40
  -4  -1   0    6.10    5.70
   4   1   0   -0.80    3.90
   4   1   0   -1.20    5.70
  -5  -1   0  378.46   19.40
  -5  -1   0  329.87   20.30
   5   1   0  326.17   21.20
   5   1   0  317.47   18.30
  -6  -1   0   38.70    8.90
  -6  -1   0   44.30    8.30
   6   1   0   40.40    7.90
   6   1   0   41.40   10.10
  -7  -1   0    5.30    7.00
  -7  -1   0    8.50    5.50
   7   1   0    2.30    7.40
   7   1   0   -3.60    3.60
  -8  -1   0   92.89   14.00
  -8  -1   0   74.19   12.20
   8   1   0   71.29   11.00
   8   1   0   70.39   15.00
  -9  -1   0  119.79   15.20
  -9  -1   0  131.49   17.00
   9   1   0  146.49   14.70
   9   1   0  113.39   18.00
 -10  -1   0   14.60    9.90
  10   1   0   -3.10    6.00
 -11  -1   0    4.00   10.00
 -11  -1   0    6.00    9.40
  11   1   0   -3.20    6.60
 -12  -1   0    5.50   11.20
  12   1   0   28.50   11.00
 -13  -1   0   28.50   15.40
  13   1   0    3.30    9.60
 -14  -1   0    4.70   13.00
  14   1   0    7.10    9.80
  14  -2   0   36.10   14.70
 -14   2   0   98.29   24.90
  13  -2   0   34.50   12.60
 -13   2   0   22.80   14.70
  12  -2   0   14.60    9.70
 -12   2   0    7.00   10.90
  11  -2   0   24.30   10.00
 -11   2   0   19.80   11.40
 -10   2   0   68.39   16.30
 -10   2   0   78.39   15.50
   9  -2   0   25.30    9.20
   9  -2   0   34.70   11.40
  -9   2   0   19.00   10.40
  -9   2   0   16.40   10.50
   8  -2   0  566.24   30.60
   8  -2   0  449.66   29.10
  -8   2   0  497.55   29.70
  -8   2   0  461.15   30.60
   7  -2   0   -1.90    5.50
   7  -2   0    2.90    6.00
  -7   2   0   -3.90    5.50
  -7   2   0   -1.80    4.80
   6  -2   0   54.49   10.20
   6  -2   0   62.29    9.90
  -6   2   0   69.99   11.40
  -6   2   0   61.59   11.90
   5  -2   0   38.30    8.30
   5  -2   0   46.80    9.10
  -5   2   0   55.19   10.40
  -5   2   0   33.50    7.50
   4  -2   0 2063.99   83.39
   4  -2   0 2086.09   83.09
  -4   2   0 2059.79   83.19
  -4   2   0 2047.20   83.99
   3  -2   0   16.10    5.60
   3  -2   0   -4.00    4.20
  -3   2   0   12.10    6.60
  -3   2   0    2.50    4.30
   2  -2   0 1113.39   45.20
   2  -2   0 1089.49   45.70
  -2   2   0 1095.09   45.10
  -2   2   0 1111.39   46.60
   1  -2   0    5.40    3.00
   1  -2   0   -2.50    5.00
  -1   2   0    4.60    2.60
  -1   2   0    3.70    5.80
   0  -2   0  236.28   13.70
   0  -2   0  215.68   10.10
   0   2   0  214.18   13.40
   0   2   0  224.18   10.10
  -1  -2   0   -1.30    4.70
  -1  -2   0   -1.00    1.80
   1   2   0    4.20    1.90
   1   2   0    8.20    5.20
  -2  -2   0  299.97   13.30
  -2  -2   0  281.27   16.70
   2   2   0  301.67   17.60
   2   2   0  286.37   13.00
  -3  -2   0   -1.80    2.90
  -3  -2   0   -2.60    5.00
   3   2   0    0.00    3.10
   3   2   0    5.30    6.50
  -4  -2   0  358.06   20.40
  -4  -2   0  351.86   17.70
   4   2   0  333.07   17.20
  -5  -2   0  316.37   18.70
  -5  -2   0  380.86   21.90
   5   2   0  365.56   23.00
   5   2   0  341.87   18.50
  -6  -2   0  402.46   24.30
  -6  -2   0  504.65   27.30
   6   2   0  476.35   24.00
   6   2   0  496.95   29.20
  -7  -2   0   18.10    6.80
  -7  -2   0   13.90    8.30
   7   2   0   18.80    9.30
   7   2   0   12.60    5.60
  -8  -2   0   12.60    9.20
  -8  -2   0    9.40    6.10
   8   2   0    1.30    5.00
   8   2   0   11.60   13.30
  -9  -2   0  -11.60    8.60
  -9  -2   0    6.80    7.60
   9   2   0    2.60   10.40
   9   2   0   -5.20    5.10
 -10  -2   0  157.78   20.10
 -10  -2   0  170.58   19.00
  10   2   0  204.78   18.00
 -11  -2   0   42.80   13.30
 -11  -2   0   31.20   13.20
  11   2   0   38.70   10.90
 -12  -2   0   -9.30    9.40
  12   2   0   -5.10    7.80
 -13  -2   0   16.70   12.40
  13   2   0    5.10    9.20
  14  -3   0    1.50   10.70
 -14   3   0   10.70   14.30
  13  -3   0    2.00    9.00
 -13   3   0    6.20   12.20
  12  -3   0   24.90   10.00
 -12   3   0   21.10   14.00
  11  -3   0    6.90    8.20
 -11   3   0   -2.30    8.50
  10  -3   0   34.80   12.00
 -10   3   0    9.90   11.20
   9  -3   0  664.43   38.10
   9  -3   0  687.83   38.50
  -9   3   0  706.03   41.30
  -9   3   0  627.84   37.70
   8  -3   0   -0.90    5.30
   8  -3   0    0.70    5.00
  -8   3   0    7.50    8.50
  -8   3   0    4.30    5.90
   7  -3   0 1310.07   58.09
   7  -3   0 1222.98   56.99
  -7   3   0 1198.18   59.19
  -7   3   0 1262.47   57.69
   6  -3   0   -1.40    5.60
   6  -3   0   -2.60    3.80
  -6   3   0    1.80    4.60
  -6   3   0   12.80    7.40
   5  -3   0  743.33   36.20
   5  -3   0  773.12   37.10
  -5   3   0  783.02   36.80
  -5   3   0  736.33   38.20
   4  -3   0    2.10    4.70
  -4   3   0    7.30    6.40
  -4   3   0   -2.10    4.10
   3  -3   0 1940.71   76.89
   3  -3   0 1908.51   77.29
   3  -3   0 1944.21   77.79
  -3   3   0 1864.41   79.29
   2  -3   0   25.60    6.10
   2  -3   0   25.90    5.90
   2  -3   0   29.50    8.50
  -2   3   0   26.60    9.00
   1  -3   0 1512.45   61.39
   1  -3   0 1426.06   56.99
  -1   3   0 1405.76   61.59
  -1   3   0 1433.36   57.19
   0  -3   0    4.70    3.10
   0  -3   0    5.60    7.10
   0   3   0    4.20    3.20
   0   3   0   -0.30    7.50
  -1  -3   0  149.69   13.00
  -1  -3   0  140.89    7.70
   1   3   0  153.98    7.90
   1   3   0  185.18   14.50
  -2  -3   0    8.30    2.80
  -2  -3   0    8.70    6.20
   2   3   0   12.70    7.10
   2   3   0    2.80    2.50
  -3  -3   0  634.74   27.10
  -3  -3   0  623.24   31.10
   3   3   0  654.23   26.70
   3   3   0  661.73   33.00
  -4  -3   0  118.49   12.70
  -4  -3   0   97.89    8.30
   4   3   0  104.09   12.80
   4   3   0   98.49    7.70
  -5  -3   0 1481.15   59.99
  -5  -3   0 1402.36   63.19
   5   3   0 1517.55   66.59
   5   3   0 1461.45   59.19
  -6  -3   0   -1.50    3.70
   6   3   0   -2.80    7.90
   6   3   0   12.20    4.70
  -7  -3   0    0.70    5.60
  -7  -3   0   14.00    8.90
   7   3   0    5.10    4.80
   7   3   0   -6.30    8.30
  -8  -3   0   12.40    9.50
  -8  -3   0    6.70    7.00
   8   3   0    9.30    6.00
   8   3   0   -4.90    9.90
  -9  -3   0  143.99   16.20
  -9  -3   0  176.18   20.10
   9   3   0  154.68   14.60
   9   3   0  137.19   22.60
 -10  -3   0   -3.90    9.10
 -10  -3   0   11.00    8.70
  10   3   0   13.10    7.50
 -11  -3   0   80.49   22.60
 -11  -3   0   38.20   12.10
  11   3   0   24.10    9.60
 -12  -3   0  -10.90    9.80
 -12  -3   0   15.80   14.20
  12   3   0   -2.00    8.10
 -13  -3   0    4.60   12.70
  13   3   0    6.20    9.50
  14  -4   0    2.90    9.90
 -14   4   0    9.10   15.40
  13  -4   0    1.30    9.10
 -13   4   0  -15.50    8.70
  12  -4   0  235.88   24.20
 -12   4   0  231.48   28.30
  11  -4   0    8.00    9.30
 -11   4   0   49.60   17.30
  10  -4   0   -1.80    6.20
 -10   4   0   -0.60    9.40
   9  -4   0   14.20    8.60
   9  -4   0   13.00    8.10
   9  -4   0    7.30    6.70
  -9   4   0   -0.90    8.60
   8  -4   0  193.08   31.60
   8  -4   0  160.38   16.70
  -8   4   0  173.98   20.20
   7  -4   0   -0.10    4.60
   7  -4   0   -1.00    5.00
   7  -4   0    0.60    5.30
  -7   4   0    6.80    7.90
   6  -4   0  629.94   35.10
   6  -4   0  644.04   33.20
   6  -4   0  640.44   33.50
   5  -4   0   12.90    6.00
   5  -4   0    5.20    5.20
   5  -4   0   -2.70    5.40
  -5   4   0    1.30    7.40
   4  -4   0  201.88   15.80
   4  -4   0  205.88   15.60
   4  -4   0  232.28   15.60
  -4   4   0  204.58   18.00
   3  -4   0   27.10    6.80
   3  -4   0   11.90    5.50
   3  -4   0   26.20    8.10
  -3   4   0   49.40   11.50
   2  -4   0  620.34   28.70
   2  -4   0  627.14   32.30
   2  -4   0  599.44   28.90
  -2   4   0  650.43   34.10
   1  -4   0   26.50    5.10
   1  -4   0   66.59   12.00
   1  -4   0   49.90   11.40
  -1   4   0   24.10    5.10
   0  -4   0   73.69    6.40
   0  -4   0   73.29   11.90
   0   4   0   81.09   13.00
   0   4   0   76.29    6.70
  -1  -4   0   -0.10    2.20
  -1  -4   0    0.20    6.00
   1   4   0   -0.90    6.70
   1   4   0    0.70    2.70
  -2  -4   0  248.18   12.10
  -2  -4   0  242.68   17.80
   2   4   0  256.37   19.00
   2   4   0  259.07   12.10
  -3  -4   0   80.19    6.70
  -3  -4   0   86.49   11.80
   3   4   0   71.69    5.80
  -4  -4   0   68.39   12.20
  -4  -4   0   52.79    6.50
   4   4   0   61.49    6.00
   4   4   0   45.70   11.20
  -5  -4   0  -14.30    5.70
  -5  -4   0   -7.60    3.20
   5   4   0   -2.00    3.10
   5   4   0    0.40    8.80
  -6  -4   0   26.10    6.10
  -6  -4   0   25.90   10.20
   6   4   0   18.80    5.90
   6   4   0   11.70    9.70
  -7  -4   0   31.10    7.00
  -7  -4   0   42.20   11.30
   7   4   0   41.10    7.70
   7   4   0   52.69   14.20
  -8  -4   0    3.00    5.80
  -8  -4   0   27.70   12.70
   8   4   0   25.50    7.10
   8   4   0   15.70   12.40
  -9  -4   0    6.00    7.60
  -9  -4   0   -3.80    9.60
   9   4   0   15.20    9.20
 -10  -4   0   -3.10   12.20
 -10  -4   0    2.70    9.10
  10   4   0    0.20    6.60
 -11  -4   0   59.49   16.30
 -11  -4   0   62.59   17.80
  11   4   0   37.40   10.70
 -12  -4   0   24.60   13.60
 -12  -4   0   29.70   12.70
  12   4   0   17.90    9.50
 -13  -4   0   15.50   13.30
  13   4   0   17.30   11.30
  14  -5   0   10.50   10.40
 -14   5   0    3.60   15.50
  13  -5   0   66.59   16.30
 -13   5   0   31.70   17.60
  12  -5   0    6.50    9.10
 -12   5   0   -6.10   11.10
  11  -5   0   61.99   15.00
 -11   5   0   61.59   21.40
  10  -5   0    8.30    8.30
 -10   5   0    6.80   11.00
   9  -5   0   80.49   17.50
   9  -5   0   96.59   17.30
   9  -5   0  112.59   21.90
  -9   5   0  102.19   21.30
   8  -5   0    6.30    7.90
   8  -5   0    1.20    6.50
   8  -5   0   -1.50    4.90
  -8   5   0   -0.70    8.30
   7  -5   0   -3.60    5.10
   7  -5   0    4.20    6.60
   7  -5   0    8.10    6.60
  -7   5   0   -4.40    6.90
   6  -5   0   -6.10    3.60
   6  -5   0    9.00    6.50
   6  -5   0    8.10    6.90
  -6   5   0   -3.20    7.60
   5  -5   0   49.10   10.50
   5  -5   0   55.99   11.60
   5  -5   0   62.09   10.30
  -5   5   0   50.19   13.90
   4  -5   0   92.59   11.40
   4  -5   0   98.29   11.70
   4  -5   0  127.19   13.70
  -4   5   0  111.39   16.10
   3  -5   0  736.13   35.00
   3  -5   0  672.33   36.80
   3  -5   0  777.22   34.80
  -3   5   0  714.53   40.00
   2  -5   0   35.10   11.50
   2  -5   0   26.10    6.30
   2  -5   0   18.90    5.50
  -2   5   0   27.60   11.80
   1  -5   0   -7.80    6.70
   1  -5   0    1.00    7.60
   1  -5   0   -2.00    3.10
  -1   5   0   -2.10    3.70
   0  -5   0    1.00    7.00
   0  -5   0   11.50    3.80
   0   5   0   12.60    4.30
   0   5   0   15.50    9.90
  -1  -5   0  410.66   18.00
  -1  -5   0  378.96   24.70
   1   5   0  387.66   18.20
   1   5   0  380.96   25.30
  -2  -5   0   24.90    8.50
  -2  -5   0   40.40    4.80
   2   5   0   38.70    5.20
   2   5   0   28.10   11.50
  -3  -5   0   44.50   11.00
  -3  -5   0   32.50    5.00
   3   5   0   39.40   12.60
   3   5   0   29.80    4.60
  -4  -5   0    0.50    6.60
  -4  -5   0   -0.60    3.10
   4   5   0   -1.60    8.30
   4   5   0   -0.20    2.60
  -5  -5   0   95.19    9.00
   5   5   0   93.79   17.40
   5   5   0   97.19    8.10
  -6  -5   0   56.39    8.40
  -6  -5   0   54.09   13.10
   6   5   0   50.89   15.70
   6   5   0   55.09    7.20
  -7  -5   0    1.80    5.40
  -7  -5   0   -9.00    7.90
   7   5   0    7.40    5.20
  -8  -5   0    9.70   11.00
  -8  -5   0   -1.80    6.20
   8   5   0   -0.30   14.30
   8   5   0   -2.50    5.50
  -9  -5   0   36.00   13.70
  -9  -5   0   57.29   11.40
   9   5   0   30.70    8.20
 -10  -5   0   56.39   12.90
 -10  -5   0   28.90   14.10
  10   5   0   27.20    8.90
 -11  -5   0   50.59   14.20
 -11  -5   0   36.80   16.90
  11   5   0   23.50    9.50
 -12  -5   0   10.40   12.40
 -12  -5   0   36.30   13.60
  12   5   0   16.70    9.70
  13  -6   0   -7.70    8.00
 -13   6   0    9.30   14.80
  12  -6   0   73.19   17.60
 -12   6   0   50.99   19.60
  11  -6   0    0.30    9.00
  10  -6   0  223.28   22.00
 -10   6   0  177.78   25.40
   9  -6   0   -0.20    7.80
  -9   6   0   -6.90    9.60
   8  -6   0   62.99   13.00
   8  -6   0   82.49   17.10
   8  -6   0   52.19   12.40
  -8   6   0   64.09   17.30
   7  -6   0   -1.80    5.60
   7  -6   0    5.70    7.20
   7  -6   0    2.70    5.70
  -7   6   0   -4.00    8.30
   6  -6   0  342.97   23.80
   6  -6   0  319.57   22.30
   6  -6   0  331.67   23.30
  -6   6   0  354.96   28.70
   5  -6   0    0.30    5.50
   5  -6   0    7.00    6.30
   5  -6   0    9.70    7.10
   4  -6   0   34.90   10.50
   4  -6   0    6.00    5.40
   4  -6   0    6.00    5.80
  -4   6   0   13.50   10.70
   3  -6   0    5.70    5.40
   3  -6   0   -1.30    5.80
   3  -6   0    5.40    5.10
  -3   6   0   22.90   11.90
   2  -6   0 1043.20   46.00
   2  -6   0 1085.99   53.59
   2  -6   0 1085.39   52.79
   2  -6   0 1027.70   46.70
   1  -6   0   34.50    6.20
   1  -6   0   33.50   11.50
   1  -6   0   13.80    9.10
  -1   6   0   17.40    5.40
   0  -6   0    7.90    3.80
   0  -6   0    8.50    9.30
   0   6   0    2.90    9.10
   0   6   0   11.60    4.80
  -1  -6   0    2.40    2.90
  -1  -6   0   18.90    9.30
   1   6   0   -7.60    8.20
   1   6   0   10.00    3.90
  -2  -6   0   12.40    8.10
  -2  -6   0   22.50    4.50
   2   6   0   25.70    4.70
   2   6   0   17.80    9.90
  -3  -6   0   20.20    4.30
  -3  -6   0   16.40    8.90
   3   6   0   21.20    4.30
   3   6   0   13.20    9.50
  -4  -6   0  661.43   36.00
  -4  -6   0  611.54   27.60
   4   6   0  593.54   38.10
   4   6   0  622.84   26.80
  -5  -6   0  196.38   12.60
  -5  -6   0  195.88   19.50
   5   6   0  162.78   10.90
   5   6   0  185.18   21.90
  -6  -6   0   22.80   11.50
  -6  -6   0   36.40    7.50
   6   6   0   28.30    5.80
   6   6   0   24.50   15.50
  -7  -6   0   49.99   14.40
  -7  -6   0   66.49   13.80
   7   6   0   22.50   16.60
   7   6   0   52.99    8.30
  -8  -6   0  201.78   16.70
  -8  -6   0  237.18   23.50
   8   6   0  213.78   15.10
  -9  -6   0   22.00   12.80
  -9  -6   0   26.70    9.60
   9   6   0   31.60    7.90
 -10  -6   0    2.20    9.40
  10   6   0    4.20    7.70
 -11  -6   0   13.40   14.90
 -11  -6   0    5.70   10.30
  11   6   0   -4.80    7.20
 -12  -6   0    2.40   14.00
  12   6   0    7.50    9.00
  13  -7   0   24.40   12.10
 -13   7   0   27.90   19.20
  12  -7   0   13.40   11.70
 -12   7   0   -1.90   14.20
  11  -7   0  203.88   23.40
 -11   7   0  213.68   29.80
  10  -7   0   -3.70    6.10
 -10   7   0   13.80   13.80
   9  -7   0   21.20   10.00
  -9   7   0    9.30   13.30
   8  -7   0   26.50   10.00
   8  -7   0    7.90    9.80
  -8   7   0   30.00   14.40
   7  -7   0  547.05   34.40
   7  -7   0  582.34   33.80
   7  -7   0  607.44   35.80
  -7   7   0  570.24   41.40
   6  -7   0   -2.10    5.10
   6  -7   0    6.50    7.80
   6  -7   0   17.20    8.20
  -6   7   0   -6.60    7.70
   5  -7   0   -3.80    4.30
   5  -7   0    8.40    7.60
   5  -7   0    1.00    4.90
  -5   7   0    9.50   11.10
   4  -7   0   21.50    8.20
   4  -7   0   21.50    6.90
   4  -7   0   14.20    9.20
   3  -7   0  171.28   14.20
   3  -7   0  156.18   14.20
   3  -7   0  182.58   18.90
  -3   7   0  172.58   21.40
   2  -7   0  104.39   11.30
   2  -7   0  143.79   18.40
   2  -7   0  149.19   12.10
   2  -7   0  137.59   17.40
   1  -7   0  371.46   28.40
   1  -7   0  372.66   29.00
   1  -7   0  407.16   21.20
  -1   7   0  417.86   21.90
   0  -7   0   17.90    4.90
   0  -7   0   31.40   11.10
   0  -7   0   17.80   11.70
   0   7   0   24.60    6.10
  -1  -7   0  224.28   21.00
  -1  -7   0  213.28   12.70
   1   7   0  228.48   22.00
   1   7   0  238.18   13.80
  -2  -7   0   79.89    7.40
  -2  -7   0   97.49   15.40
   2   7   0   88.79   16.90
   2   7   0   84.89    7.90
  -3  -7   0   79.49   17.90
  -3  -7   0   80.49    7.50
   3   7   0   69.29   16.80
   3   7   0   61.09    6.70
  -4  -7   0  115.69   16.80
  -4  -7   0   97.49    8.70
   4   7   0  103.09    8.20
   4   7   0   82.19   18.00
  -5  -7   0   57.49    7.80
  -5  -7   0   52.59   13.90
   5   7   0   47.40   17.80
   5   7   0   61.79    7.00
  -6  -7   0  118.69   11.30
  -6  -7   0  164.78   19.70
   6   7   0  135.19   24.30
   6   7   0  126.89   10.10
  -7  -7   0  105.69   13.50
  -7  -7   0  143.79   20.30
   7   7   0  119.69   10.60
   7   7   0  103.49   25.60
  -8  -7   0    4.10   12.20
  -8  -7   0    8.20    7.40
   8   7   0   11.20    5.90
  -9  -7   0   -1.50    7.90
  -9  -7   0   -7.00   11.40
   9   7   0    4.60    6.30
 -10  -7   0   20.70   14.90
 -10  -7   0   21.50   10.40
  10   7   0   10.80    7.50
 -11  -7   0   -3.60   14.00
 -11  -7   0    5.50   10.70
  11   7   0   10.00    8.50
  13  -8   0    2.10    9.20
 -13   8   0  -16.90   15.30
  12  -8   0    7.80    8.90
 -12   8   0    6.10   19.40
  11  -8   0   26.60   13.50
 -11   8   0   11.40   15.80
  10  -8   0  127.79   22.30
 -10   8   0  156.18   39.40
   9  -8   0   13.70    8.70
  -9   8   0    7.60   14.50
   8  -8   0   13.80   10.20
  -8   8   0   28.90   15.40
   7  -8   0   26.00   10.30
   7  -8   0    8.80    7.60
   7  -8   0   12.00    9.20
  -7   8   0   33.30   16.30
   6  -8   0   46.10   15.60
   6  -8   0   23.70    8.70
   6  -8   0   36.30   10.20
  -6   8   0   36.50   15.90
   5  -8   0   83.69   13.60
   5  -8   0   78.19   12.60
   5  -8   0  100.09   15.60
  -5   8   0   81.29   21.20
   4  -8   0   35.10    9.60
   4  -8   0   11.20    6.30
   4  -8   0   11.60    9.10
  -4   8   0   14.20   13.80
   3  -8   0   94.49   19.50
   3  -8   0   61.69   10.00
   3  -8   0   89.39   17.50
   3  -8   0   99.89   21.00
   2  -8   0    3.90    5.10
   2  -8   0    8.70    6.00
   2  -8   0   23.30   11.80
   2  -8   0   14.80   14.30
   1  -8   0  116.99   11.00
   1  -8   0  134.39   19.70
   1  -8   0  133.79   19.30
   0  -8   0  122.99   22.00
   0  -8   0  133.59   10.50
   0  -8   0  134.89   18.70
   0   8   0  125.09   11.50
  -1  -8   0  168.28   11.50
  -1  -8   0  157.48   21.80
   1   8   0  174.48   22.10
   1   8   0  183.08   12.60
  -2  -8   0   -4.20    8.40
  -2  -8   0   -1.10    3.50
   2   8   0    1.30    3.90
   2   8   0    7.30   10.60
  -3  -8   0   -6.40    8.20
  -3  -8   0   -1.10    3.60
   3   8   0   -3.70    3.70
   3   8   0    2.20   12.40
  -4  -8   0    7.20    5.30
  -4  -8   0   -2.80    9.80
   4   8   0   -5.60   12.50
   4   8   0   -1.10    3.40
  -5  -8   0   92.19    9.70
  -5  -8   0  113.49   18.70
   5   8   0  111.89   26.00
   5   8   0   85.09    8.30
  -6  -8   0    0.20   12.10
  -6  -8   0   10.30    6.20
   6   8   0   -2.30    3.90
   6   8   0  -21.40   13.80
  -7  -8   0  203.78   23.40
  -7  -8   0  139.39   12.70
   7   8   0  124.89   10.80
  -8  -8   0   42.40   17.20
  -8  -8   0   14.30   10.60
   8   8   0    8.30    5.90
  -9  -8   0  260.17   19.30
   9   8   0  268.67   17.10
 -10  -8   0   18.70   17.10
 -10  -8   0    7.30    9.40
  10   8   0   16.40    7.50
  12  -9   0   10.70   11.70
 -12   9   0   13.80   19.10
  11  -9   0  127.49   20.70
 -11   9   0  216.28   40.00
  10  -9   0   -2.20    9.00
 -10   9   0   13.80   16.80
   9  -9   0   14.30   16.80
  -9   9   0    7.60   16.00
   8  -9   0   -2.00    7.80
  -8   9   0  -13.80   11.70
   7  -9   0   14.20    9.50
  -7   9   0   -1.80   11.70
   6  -9   0  -10.60    6.00
   6  -9   0    5.50    8.80
   6  -9   0   -4.60    5.50
  -6   9   0   -9.00   12.20
   5  -9   0  171.38   17.70
   5  -9   0  196.28   19.30
   5  -9   0  231.08   26.00
  -5   9   0  227.18   28.50
   4  -9   0  105.79   17.80
   4  -9   0   80.59   12.60
   4  -9   0   49.99   12.30
   4  -9   0   37.30   16.50
   3  -9   0  102.49   12.50
   3  -9   0  112.49   21.80
   3  -9   0  151.38   26.10
   3  -9   0   82.99   12.50
   2  -9   0   64.69   17.90
   2  -9   0   99.09   11.30
   2  -9   0   75.59   18.70
   2  -9   0  120.79   20.40
   1  -9   0  868.21   51.39
   1  -9   0  820.42   50.69
   1  -9   0  869.31   40.00
   1  -9   0  876.01   41.70
   0  -9   0   91.49    9.60
   0  -9   0   70.89   19.00
   0  -9   0   72.09   17.30
  -1  -9   0   44.30    7.10
  -1  -9   0   68.89   17.40
   1   9   0   65.09    9.20
   1   9   0   57.39   19.30
  -2  -9   0   48.80   16.30
  -2  -9   0   34.10    6.50
   2   9   0   47.60    7.80
   2   9   0   36.10   17.20
  -3  -9   0  187.48   13.10
  -3  -9   0  227.48   24.70
   3   9   0  218.98   13.70
   3   9   0  241.28   28.40
  -4  -9   0  114.19   10.60
   4   9   0  116.19   10.00
   4   9   0  108.79   26.30
  -5  -9   0   12.30   12.30
  -5  -9   0   13.40    6.10
   5   9   0   30.20   20.30
   5   9   0    1.10    4.50
  -6  -9   0   10.40    6.40
  -6  -9   0    5.80   13.00
   6   9   0    7.20    5.00
  -7  -9   0   37.60   16.00
  -7  -9   0   44.90    8.70
   7   9   0   38.80    6.60
  -8  -9   0  128.99   23.20
  -8  -9   0  116.89   12.80
   8   9   0  107.99   10.30
  -9  -9   0   13.80   15.40
  -9  -9   0    4.70   12.00
   9   9   0    9.60    6.30
 -10  -9   0   46.90   19.90
  10   9   0   35.70    8.30
  12 -10   0   87.69   19.80
 -12  10   0   93.79   31.30
  11 -10   0    2.00    8.70
 -11  10   0  -22.20   14.20
  10 -10   0   56.59   15.60
 -10  10   0   27.70   19.70
   9 -10   0    1.40    8.40
  -9  10   0    3.00   25.60
   8 -10   0  430.06   32.30
  -8  10   0  367.16   40.60
   7 -10   0   86.69   17.70
  -7  10   0  115.89   29.20
   6 -10   0    3.70    8.50
  -6  10   0    7.20   14.50
   5 -10   0   77.99   19.10
   5 -10   0   73.39   14.70
   5 -10   0  108.29   25.30
   5 -10   0   61.39   12.60
   4 -10   0   34.70   10.00
   4 -10   0   20.20   15.10
   4 -10   0   62.09   20.00
   4 -10   0   63.69   13.00
   3 -10   0   66.89   13.10
   3 -10   0   37.20   17.30
   3 -10   0   45.90    9.70
   2 -10   0  394.36   25.80
   2 -10   0  437.66   36.00
   2 -10   0  391.16   24.30
   2 -10   0  407.86   34.20
   1 -10   0   37.60   16.30
   1 -10   0   19.70   15.10
   1 -10   0   28.80    7.60
   1 -10   0   27.60   10.90
   0 -10   0    5.00    5.40
   0 -10   0    7.60   14.20
   0 -10   0   11.50    7.30
   0 -10   0    6.70   11.50
  -1 -10   0  175.98   26.70
  -1 -10   0  202.68   24.90
  -1 -10   0  167.98   13.20
  -2 -10   0   53.29    8.70
  -2 -10   0   64.99   18.80
   2  10   0   59.09    9.00
   2  10   0   17.40   34.30
  -3 -10   0   34.50    7.20
  -3 -10   0   56.99   16.20
   3  10   0   33.50   22.50
   3  10   0   40.00    7.60
  -4 -10   0   26.00   14.70
  -4 -10   0   32.10    7.30
   4  10   0   30.30    6.60
   4  10   0   63.69   23.20
  -5 -10   0  251.37   27.50
  -5 -10   0  210.78   14.70
   5  10   0  250.17   14.40
  -6 -10   0   12.70    6.00
  -6 -10   0   16.20   15.70
   6  10   0   12.40    5.70
  -7 -10   0   24.50   16.20
  -7 -10   0   23.30    6.70
   7  10   0   20.90    5.80
  -8 -10   0   10.00   15.60
  -8 -10   0   10.30    6.00
   8  10   0    6.00    4.80
  -9 -10   0    2.80   16.20
   9  10   0   12.80    5.50
  11 -11   0   17.50   12.40
 -11  11   0    5.50   19.90
  10 -11   0   36.70   14.30
 -10  11   0   35.30   20.40
   9 -11   0   58.19   16.40
  -9  11   0   25.00   20.40
   8 -11   0    1.70    9.10
   7 -11   0   70.59   16.30
  -7  11   0   56.89   23.50
   6 -11   0   35.30   19.90
   6 -11   0   31.40   12.30
   5 -11   0   43.70   12.50
   5 -11   0   64.99   23.90
   4 -11   0   96.49   20.60
   4 -11   0  152.58   17.60
   4 -11   0   89.59   14.40
   4 -11   0  127.49   27.10
   3 -11   0    3.30   12.30
   3 -11   0    5.80    8.70
   3 -11   0   22.20    9.60
   3 -11   0   37.80   17.90
   2 -11   0   -2.50   11.60
   2 -11   0   -1.20   13.40
   2 -11   0    2.70    6.60
   2 -11   0   10.30    7.30
   1 -11   0   20.60    8.70
   1 -11   0    6.10   15.10
   1 -11   0   44.80    9.90
   1 -11   0   27.90   16.10
   0 -11   0  202.08   29.10
   0 -11   0  269.57   29.00
   0 -11   0  175.98   20.90
   0 -11   0  216.48   15.90
  -1 -11   0   36.60    8.10
  -1 -11   0   51.19   17.60
  -1 -11   0   46.70    9.60
  -1 -11   0   13.40   18.70
  -2 -11   0   10.80    6.40
  -2 -11   0   11.20   13.70
   2  11   0   12.90   20.90
  -3 -11   0   29.60   16.10
  -3 -11   0   27.00   11.30
   3  11   0   18.70   24.40
  -4 -11   0  225.68   15.80
  -4 -11   0  318.27   30.40
  -5 -11   0    3.80   13.60
  -5 -11   0    7.60    6.10
  -6 -11   0   10.70   16.40
  -6 -11   0   17.70    5.90
  -7 -11   0  -14.20   14.80
  -8 -11   0   33.00   20.80
  10 -12   0    2.90   11.10
 -10  12   0   19.90   23.20
   9 -12   0   -2.00    8.80
  -9  12   0   11.30   22.00
   8 -12   0   29.10   13.50
  -8  12   0   23.20   21.30
   7 -12   0   59.99   30.90
   7 -12   0   59.29   16.30
   6 -12   0  209.78   23.20
   6 -12   0  138.99   30.70
   5 -12   0   28.60   11.20
   5 -12   0   32.00   19.50
   4 -12   0   23.00   17.20
   4 -12   0   55.69   14.20
   3 -12   0   89.89   24.00
   3 -12   0   99.19   14.80
   3 -12   0  102.39   17.00
   2 -12   0  198.98   19.70
   2 -12   0  145.09   28.60
   2 -12   0  128.59   21.50
   1 -12   0    7.50    6.90
   1 -12   0   10.90    9.30
   1 -12   0    1.20   13.90
   0 -12   0    9.30    8.00
   0 -12   0   15.50    7.60
   0 -12   0   -7.80   12.80
  -1 -12   0   21.00    8.00
  -1 -12   0   27.60   17.20
  -1 -12   0   15.80    8.90
  -2 -12   0   79.89   12.90
  -2 -12   0  107.69   24.50
  -2 -12   0   57.89   10.10
  -3 -12   0  125.29   13.80
  -3 -12   0  125.49   13.40
  -3 -12   0  175.58   27.20
  -4 -12   0   45.30    8.80
  -4 -12   0   61.49   10.00
  -4 -12   0   60.39   19.70
  -5 -12   0  -12.60   14.90
  -5 -12   0    4.70    6.00
  -6 -12   0   41.80   20.70
   8 -13   0   -4.40   19.60
   8 -13   0   19.00   13.70
   7 -13   0   99.99   30.50
   7 -13   0  151.28   25.00
   6 -13   0    5.50   11.10
   6 -13   0   36.30   22.90
   5 -13   0   71.09   16.40
   5 -13   0   13.90   17.80
   4 -13   0   67.79   15.20
   4 -13   0   65.39   22.70
   3 -13   0   78.49   24.90
   3 -13   0   41.50   12.80
   2 -13   0   27.30   20.70
   2 -13   0   22.20   11.10
   2 -13   0    6.30    8.20
   1 -13   0    3.00   16.20
   1 -13   0    8.30    9.70
   0 -13   0   74.09   12.30
   0 -13   0   52.39   20.70
   0 -13   0   94.49   15.10
  -1 -13   0   27.70    8.70
  -1 -13   0   54.69   22.50
  -1 -13   0   19.20    9.70
  -2 -13   0    1.20   16.00
  -2 -13   0   20.50    8.60
  -2 -13   0    8.80    8.80
  -3 -13   0    7.70    7.80
  -3 -13   0   11.20    8.30
  -3 -13   0   12.90   16.80
  -4 -13   0    0.20    6.90
  -4 -13   0    8.80    7.60
  -4 -13   0   -9.00   17.10
  -5 -13   0  -14.80   17.10
   6 -14   0   18.40   12.10
   6 -14   0    4.00   18.40
   5 -14   0   50.09   23.80
   5 -14   0   31.70   13.80
   4 -14   0   47.60   14.90
   4 -14   0    7.90   17.80
   3 -14   0   11.60   26.50
   3 -14   0    2.80    9.30
   2 -14   0   16.60   33.40
   2 -14   0    8.60   10.70
   1 -14   0  115.09   32.80
   1 -14   0   67.99   13.60
   1 -14   0  130.99   18.60
   0 -14   0    5.90    8.70
   0 -14   0  -13.10   21.30
   0 -14   0    6.70    9.20
  -1 -14   0    0.50   10.00
  -1 -14   0   -1.00    8.50
  -2 -14   0   -2.40   17.10
  -2 -14   0    2.70   12.20
  -2 -14   0   -4.60    7.90
   1 -15   1   -5.50   10.70
   1 -15   1    1.60    9.30
   1 -15   1   16.30   19.80
   2 -15   1   -8.60    9.60
   2 -15   1   -6.00   16.30
   3 -15   1   24.90   13.70
   3 -15   1   13.70   20.30
  -3 -14   1   57.39   25.80
  -3 -14   1   14.70    7.50
  -3 -14   1    8.10    6.90
  -2 -14   1   29.40    9.80
  -2 -14   1   36.10    9.80
  -2 -14   1   35.50   21.30
  -1 -14   1   -8.10   16.20
  -1 -14   1    1.70    7.60
  -1 -14   1   13.70   11.50
   0 -14   1    5.50    7.50
   0 -14   1   46.70   13.20
   0 -14   1   18.60   28.50
   1 -14   1   50.09   13.70
   1 -14   1   10.60    9.10
   2 -14   1   24.40   10.70
   2 -14   1   58.79   14.60
   2 -14   1   40.20   25.20
   3 -14   1   -1.50   16.60
   3 -14   1    8.00   11.30
   4 -14   1   -3.70   15.70
   4 -14   1    6.90   10.10
   5 -14   1   21.80   20.50
   5 -14   1   25.60   20.60
   6 -14   1    8.60   18.40
   6 -14   1   34.80   13.00
   7 -14   1   34.80   15.10
   7 -14   1   33.00   28.40
  -5 -13   1   30.50   21.00
  -4 -13   1    6.00   16.40
  -3 -13   1    9.60   18.50
  -3 -13   1   16.20    7.00
  -3 -13   1   10.90    7.80
  -2 -13   1   45.30    9.90
  -2 -13   1   33.40   19.90
  -2 -13   1   30.00    8.50
  -1 -13   1   52.69    9.80
  -1 -13   1   56.89   11.50
  -1 -13   1   35.80   18.90
   0 -13   1   54.69   10.40
   0 -13   1   38.40   20.20
   0 -13   1   54.29   12.60
   1 -13   1   30.30   10.70
   1 -13   1   39.20   20.40
   1 -13   1   33.70    9.80
   2 -13   1  -13.10    8.10
   2 -13   1   -0.10    7.40
   2 -13   1   15.30   18.60
   3 -13   1   49.40   12.50
   3 -13   1   41.20   11.50
   3 -13   1   50.89   22.50
   4 -13   1  147.29   20.00
   4 -13   1  213.28   37.50
   5 -13   1   90.09   17.70
   6 -13   1   51.09   24.40
   6 -13   1   27.60   15.80
   7 -13   1    1.00   20.00
   7 -13   1    6.40    9.80
   8 -13   1   40.40   15.20
   8 -13   1   40.50   25.30
  -9  13  -1   25.20   23.20
   9 -13   1   57.19   17.70
  -7 -12   1    2.30   18.80
  -6 -12   1   63.79   21.90
  -5 -12   1   85.79   38.10
  -4 -12   1   55.29   20.50
  -4 -12   1   69.19    8.40
  -4 -12   1   96.79    9.50
  -3 -12   1   -0.60    5.80
  -3 -12   1   28.90   17.40
  -3 -12   1    3.00    6.30
  -2 -12   1  149.59   14.00
  -2 -12   1   89.09   10.90
  -2 -12   1  169.48   27.80
  -1 -12   1   10.40   16.20
  -1 -12   1   -0.90    5.30
  -1 -12   1    7.70    7.60
   0 -12   1   10.50   15.40
   0 -12   1    1.40    6.10
   0 -12   1   11.20   17.50
   1 -12   1   18.30    9.90
   1 -12   1   -1.30   14.40
   1 -12   1   24.80    8.50
   2 -12   1  201.08   19.40
   2 -12   1  138.29   27.70
   2 -12   1  202.98   17.80
   3 -12   1   75.39   14.20
   3 -12   1  107.09   27.50
   3 -12   1  120.49   16.40
   4 -12   1   49.99   12.70
   4 -12   1   55.79   23.20
   4 -12   1   49.99   12.00
   5 -12   1    1.20   16.70
   5 -12   1   -6.90    8.00
   6 -12   1   34.70   21.80
   6 -12   1   84.19   16.70
   7 -12   1  106.09   30.30
   7 -12   1  102.99   20.70
  -8  12  -1   30.50   23.40
   8 -12   1    9.20   10.30
  -9  12  -1   -7.00   18.70
   9 -12   1   11.30   11.60
 -10  12  -1   25.30   23.50
  10 -12   1    0.60    9.50
  -8 -11   1    1.40   17.10
  -7 -11   1   65.89   20.50
  -6 -11   1    0.50   14.60
  -5 -11   1  117.49   23.80
  -4 -11   1    3.40    5.10
  -4 -11   1   23.80   16.80
  -4 -11   1    2.80    4.90
  -3 -11   1   71.69    9.30
  -3 -11   1   71.89   21.60
  -3 -11   1  112.69   11.00
   2  11  -1   10.40   19.20
  -2 -11   1   14.20   14.30
  -2 -11   1   15.20    6.40
  -1 -11   1   35.90    7.10
  -1 -11   1   36.30    8.40
  -1 -11   1   38.00   18.60
  -1 -11   1   65.09   21.00
   0 -11   1   57.09   21.40
   0 -11   1   54.69    9.30
   0 -11   1   46.00   19.80
   0 -11   1   57.39   11.00
   1 -11   1  135.19   15.80
   1 -11   1  154.18   14.40
   1 -11   1  190.48   27.20
   1 -11   1  160.08   26.50
   2 -11   1   24.50    8.50
   2 -11   1   19.30    7.80
   2 -11   1    4.70   13.70
   2 -11   1    6.90   14.20
   3 -11   1    6.30    6.80
   3 -11   1   -2.00   12.30
   3 -11   1   15.60   15.90
   3 -11   1   22.90    9.60
   4 -11   1  149.69   30.30
   4 -11   1  177.18   19.10
   4 -11   1  150.08   16.90
   5 -11   1  141.29   28.90
   5 -11   1   57.49   16.00
   5 -11   1  117.79   17.00
   6 -11   1   77.89   15.80
  -7  11  -1  -15.50   12.60
   7 -11   1   20.50   10.90
  -8  11  -1    2.10   20.70
   8 -11   1   11.30   10.90
  -9  11  -1  -22.80   15.20
   9 -11   1    2.90    9.60
 -10  11  -1  102.89   29.90
  10 -11   1   74.19   17.10
 -11  11  -1    1.40   20.90
  11 -11   1   -1.40    9.60
  -9 -10   1    3.00   17.00
  -8 -10   1   11.90   15.50
  -7 -10   1    6.40   15.00
  -6 -10   1   -1.80   14.70
  -5 -10   1  293.87   30.40
   4  10  -1   18.90   19.00
  -4 -10   1   16.90   15.00
  -4 -10   1   46.80    7.40
   3  10  -1   64.69   22.60
  -3 -10   1   39.60   18.10
  -3 -10   1   48.80    7.40
   2  10  -1   86.29   21.90
  -2 -10   1   62.49    8.30
  -2 -10   1   77.69   18.10
  -2 -10   1   87.29   10.30
  -1 -10   1  478.35   36.80
  -1 -10   1  473.35   24.90
  -1 -10   1  425.96   22.80
   0 -10   1  110.49   12.60
   0 -10   1   86.19   20.40
   0 -10   1  152.38   25.10
   0 -10   1  108.89   10.80
   1 -10   1    4.10    5.90
   1 -10   1  -10.70    9.90
   1 -10   1    2.00    5.40
   1 -10   1   -0.30   13.10
   2 -10   1   31.70    7.70
   2 -10   1   23.20    8.50
   2 -10   1   61.39   18.50
   3 -10   1  301.77   21.80
   3 -10   1  352.66   31.50
   3 -10   1  320.57   32.30
   3 -10   1  328.77   23.40
   4 -10   1   13.80    8.10
   4 -10   1   14.00   14.50
   4 -10   1    2.80   11.90
   4 -10   1   16.40   10.80
   5 -10   1  111.59   16.80
   5 -10   1  105.99   14.80
   5 -10   1  120.79   24.10
  -6  10  -1   11.00   13.20
   6 -10   1   33.50   11.40
  -7  10  -1   71.89   23.80
   7 -10   1  144.89   22.60
  -8  10  -1   84.59   24.70
   8 -10   1   79.79   16.50
  -9  10  -1   82.99   28.90
   9 -10   1   31.70   12.90
 -10  10  -1   21.10   19.50
  10 -10   1   23.70   11.00
 -11  10  -1   20.60   19.30
  11 -10   1   -2.70    8.60
 -12  10  -1   10.50   19.90
  12 -10   1   12.60   12.80
  10   9  -1    2.60    5.00
  10   9  -1    7.00    5.40
 -10  -9   1    1.80   15.70
   9   9  -1   80.79    7.90
  -9  -9   1   93.49   20.80
   8   9  -1    1.10    3.90
  -8  -9   1  -11.50   14.20
   7   9  -1   14.10    4.30
  -7  -9   1   16.80    4.90
  -7  -9   1   20.40   14.30
   6   9  -1   48.10    5.90
  -6  -9   1   57.09    6.90
  -6  -9   1   54.39   18.10
   5   9  -1    4.00    3.70
   5   9  -1    7.40   17.20
  -5  -9   1   -7.30   11.70
   4   9  -1    8.40   16.10
   4   9  -1    2.80    3.80
  -4  -9   1    5.40    4.30
  -4  -9   1    0.70   11.20
   3   9  -1  234.98   29.60
  -3  -9   1  302.67   15.80
  -3  -9   1  316.37   28.50
   2   9  -1  138.89   23.60
  -2  -9   1  128.49    9.80
  -2  -9   1  138.29   20.70
   1   9  -1    1.70   12.00
  -1  -9   1   36.90   14.40
  -1  -9   1   24.10    6.70
  -1  -9   1   13.40    4.90
   0  -9   1   44.90   17.10
   0  -9   1   29.50    6.50
   0  -9   1   23.10    6.90
   0  -9   1   16.40   14.40
   1  -9   1  410.96   24.00
   1  -9   1  358.06   32.10
   1  -9   1  371.56   32.70
   1  -9   1  433.36   22.70
   2  -9   1   90.69   12.40
   2  -9   1   69.59   18.80
   2  -9   1  118.99   12.00
   2  -9   1  134.49   20.70
   3  -9   1   16.40    6.50
   3  -9   1   40.50    9.80
   3  -9   1   48.60   19.70
   3  -9   1   38.70   14.60
   4  -9   1   19.30    7.80
   4  -9   1   17.90    8.50
   4  -9   1   50.99   18.80
   4  -9   1   34.30   15.60
  -5   9  -1  128.49   28.20
   5  -9   1  106.79   17.60
   5  -9   1   95.09   15.10
   5  -9   1   92.89   14.10
  -6   9  -1   -6.00   12.70
   6  -9   1   -0.50    6.00
   6  -9   1    8.20   10.10
   6  -9   1    1.70    7.00
  -7   9  -1   -5.00   12.70
   7  -9   1   26.00   10.60
  -8   9  -1   45.50   19.90
   8  -9   1   17.80    9.80
  -9   9  -1   41.50   21.00
   9  -9   1   10.40   11.00
 -10   9  -1   50.69   24.00
  10  -9   1   31.20   12.40
 -11   9  -1   44.70   24.30
 -12   9  -1   46.50   25.20
  12  -9   1   65.59   17.30
  11   8  -1   18.30    7.80
  11   8  -1   12.00    8.70
 -11  -8   1    6.00   16.50
  10   8  -1   77.19   10.20
 -10  -8   1   81.49   20.00
   9   8  -1   77.59    9.20
  -9  -8   1  104.69   31.20
   8   8  -1   79.39    8.60
  -8  -8   1  112.79   21.10
  -8  -8   1   89.99   10.40
   7   8  -1   47.40    6.50
  -7  -8   1   48.30   15.40
  -7  -8   1   17.40    5.50
   6   8  -1   70.89   22.70
   6   8  -1   53.19    6.20
  -6  -8   1   55.39    7.30
  -6  -8   1   55.29   17.00
   5   8  -1   34.60   17.30
   5   8  -1    4.40    3.70
  -5  -8   1    8.50   12.10
   4   8  -1   86.29   20.30
   4   8  -1   71.89    6.80
  -4  -8   1   66.79    7.20
  -4  -8   1   99.79   19.20
   3   8  -1    2.50    3.70
   3   8  -1   10.90   13.70
  -3  -8   1   12.30    3.90
  -3  -8   1    8.40   11.20
   2   8  -1   11.60    4.30
   2   8  -1   30.30   14.00
  -2  -8   1    4.60    9.40
  -2  -8   1    6.10    3.20
   1   8  -1  224.28   24.00
  -1  -8   1  214.28   12.70
  -1  -8   1  215.68   26.80
   0  -8   1  202.18   14.80
   0  -8   1  240.08   25.00
   0  -8   1  234.58   14.10
   1  -8   1   64.39    9.20
   1  -8   1   73.99   17.60
   1  -8   1   54.79    8.20
   2  -8   1    9.60   10.90
   2  -8   1    8.00   10.50
   2  -8   1    7.00    4.60
   2  -8   1   27.80    6.90
   3  -8   1  263.67   19.60
   3  -8   1  255.87   24.50
   3  -8   1  271.37   27.10
   3  -8   1  271.47   18.70
  -4   8  -1   17.00   13.00
   4  -8   1   19.90    7.30
   4  -8   1   11.70    7.00
   4  -8   1    1.50    8.20
  -5   8  -1  165.68   28.50
   5  -8   1  134.99   15.40
   5  -8   1  135.79   17.90
   5  -8   1   92.59   13.10
  -6   8  -1   64.49   18.00
   6  -8   1   38.20   10.40
   6  -8   1   42.40   10.00
   6  -8   1   24.00   11.50
  -7   8  -1   89.29   22.70
   7  -8   1  118.69   15.90
   7  -8   1  101.29   16.30
   7  -8   1   83.69   17.20
  -8   8  -1    0.20   13.50
   8  -8   1    9.90    8.40
  -9   8  -1  322.97   35.60
   9  -8   1  334.57   27.60
  10  -8   1    4.10    8.40
 -11   8  -1    9.20   17.20
  11  -8   1   12.30   10.20
 -12   8  -1    6.60   18.50
  12  -8   1    5.70    9.50
 -13   8  -1   86.69   28.60
  13  -8   1   49.50   16.70
  11   7  -1   67.59   12.10
  11   7  -1   57.79   11.60
 -11  -7   1  105.59   22.00
  10   7  -1    9.10    6.80
 -10  -7   1    6.20   13.50
   9   7  -1   22.10    7.00
  -9  -7   1   29.10    8.70
  -9  -7   1   78.79   18.90
   8   7  -1   18.00    5.90
  -8  -7   1   10.60   12.60
  -8  -7   1   41.80    8.50
   7   7  -1   56.89   21.00
   7   7  -1   61.19    7.50
  -7  -7   1   68.49   16.30
  -7  -7   1   59.99    9.10
   6   7  -1  164.18   10.40
   6   7  -1  155.68   25.00
  -6  -7   1  174.08   11.60
  -6  -7   1  187.38   21.70
   5   7  -1   37.40   16.00
   5   7  -1   41.30    5.30
  -5  -7   1   26.80   11.50
   4   7  -1  143.19   20.40
   4   7  -1  148.09    8.90
  -4  -7   1  155.48    9.50
  -4  -7   1  155.68   18.60
   3   7  -1   66.39   16.40
   3   7  -1   71.09    6.30
  -3  -7   1   77.29    6.50
   2   7  -1  960.70   37.80
   2   7  -1  907.61   49.90
  -2  -7   1  885.51   48.10
  -2  -7   1  886.41   37.10
   1   7  -1   88.39    8.50
   1   7  -1  118.89   17.50
  -1  -7   1   97.79    7.70
  -1  -7   1  130.39   17.20
   0  -7   1  143.59   19.80
   0  -7   1  167.58   12.10
   0  -7   1  212.38   21.20
   0  -7   1  182.18   11.60
   1  -7   1   61.09    9.80
   1  -7   1   66.29    8.80
   1  -7   1   56.89   14.70
   1  -7   1   54.79   14.70
   2  -7   1  159.38   13.60
   2  -7   1  152.48   19.10
   2  -7   1  163.68   13.00
   2  -7   1  183.58   20.70
  -3   7  -1    5.60   11.50
   3  -7   1   -2.40    4.40
   3  -7   1   12.20    6.30
   3  -7   1   13.00   10.00
  -4   7  -1  488.95   36.80
   4  -7   1  526.25   33.30
   4  -7   1  539.65   29.10
  -5   7  -1   15.20   11.60
   5  -7   1   29.70    8.80
   5  -7   1   21.40   10.50
   5  -7   1   26.20    8.60
  -6   7  -1   48.40   16.00
   6  -7   1   51.69   11.40
   6  -7   1   20.20    7.90
   6  -7   1   20.60   10.40
  -7   7  -1    7.30   12.00
   7  -7   1   22.90    9.40
   7  -7   1   26.30    9.50
   7  -7   1    6.00    8.00
  -8   7  -1  320.17   32.10
   8  -7   1  297.77   24.20
   8  -7   1  279.47   30.00
  -9   7  -1  -13.20   10.20
   9  -7   1    5.40    8.00
 -10   7  -1  142.29   31.20
  10  -7   1  143.39   19.10
 -11   7  -1   11.30   15.30
  11  -7   1   -6.20    6.50
 -12   7  -1   68.79   23.90
  12  -7   1   74.19   18.40
 -13   7  -1    7.70   16.60
  13  -7   1   -0.80    9.00
  12   6  -1   27.80    9.50
  12   6  -1   19.60   10.60
 -12  -6   1   41.20   18.20
  11   6  -1   24.60    8.80
 -11  -6   1   44.00   16.80
  10   6  -1    9.70    7.00
 -10  -6   1    8.50    8.30
   9   6  -1    3.50    5.60
  -9  -6   1    6.90   12.80
  -9  -6   1    4.90    6.80
   8   6  -1  167.78   12.70
  -8  -6   1  200.68   22.10
  -8  -6   1  172.88   15.80
   7   6  -1  113.69   10.00
   7   6  -1  144.89   26.20
  -7  -6   1  111.89   18.10
  -7  -6   1  127.99   11.30
   6   6  -1   76.69   18.00
   6   6  -1   61.69    6.60
  -6  -6   1   64.49    7.80
  -6  -6   1   43.00   12.50
   5   6  -1  138.89    8.50
   5   6  -1  109.29   18.70
  -5  -6   1  123.29   16.60
  -5  -6   1  132.79    9.40
   4   6  -1  244.88   23.40
   4   6  -1  242.08   12.00
  -4  -6   1  272.77   31.80
  -4  -6   1  256.27   12.80
   3   6  -1  644.54   39.90
   3   6  -1  714.83   28.60
  -3  -6   1  713.63   28.80
  -3  -6   1  689.73   38.70
   2   6  -1   -3.60    2.30
   2   6  -1    2.50    8.00
  -2  -6   1    2.10    2.60
  -2  -6   1    2.30    7.70
   1   6  -1   12.50    3.90
   1   6  -1   16.50   10.30
  -1  -6   1    9.30    3.30
  -1  -6   1   28.80   10.90
   0   6  -1   24.10   11.20
   0  -6   1    5.70    3.70
   0  -6   1    8.80    8.40
   1  -6   1   61.09   14.20
   1  -6   1   59.09    7.70
   1  -6   1   45.50    7.10
   1  -6   1   79.69   16.00
   2  -6   1   91.49   10.60
   2  -6   1  132.09   16.40
   2  -6   1   94.99   16.20
   2  -6   1   99.89   10.20
  -3   6  -1  172.28   20.70
   3  -6   1  174.68   18.10
   3  -6   1  161.78   13.30
   3  -6   1  127.39   13.10
  -4   6  -1  -13.70    7.40
   4  -6   1    8.70    5.30
   4  -6   1   -1.10    7.60
   4  -6   1   -0.40    4.30
  -5   6  -1    2.30    8.90
   5  -6   1    3.70    6.40
   5  -6   1    5.30    5.80
   5  -6   1   -2.40    7.00
  -6   6  -1   37.90   13.90
   6  -6   1   25.80    9.80
   6  -6   1   35.20    9.60
   6  -6   1   23.80    7.50
  -7   6  -1   56.19   17.20
   7  -6   1   59.99   12.40
   7  -6   1   63.19   13.20
  -8   6  -1   -2.80    8.80
   8  -6   1    5.70    6.60
   8  -6   1    0.80    6.80
   8  -6   1    2.20    5.90
  -9   6  -1  102.89   25.40
   9  -6   1   89.99   17.90
 -10   6  -1   -3.40   11.00
  10  -6   1   -1.50    6.20
 -11   6  -1   49.20   18.80
  11  -6   1   66.99   16.80
 -12   6  -1   22.70   17.50
  12  -6   1    6.30   10.20
 -13   6  -1   -4.30   13.30
  13  -6   1    4.00    9.90
  12   5  -1   16.80    9.40
  12   5  -1   20.00   11.40
 -12  -5   1   -5.30   13.50
  11   5  -1   73.49   12.60
 -11  -5   1   51.29   15.20
 -10  -5   1    3.50   12.00
 -10  -5   1   10.40    9.00
   9   5  -1   30.50    8.10
  -9  -5   1   84.19   17.70
  -9  -5   1   58.09   10.20
   8   5  -1   11.40   14.60
   8   5  -1    9.30    5.80
  -8  -5   1    6.00   11.40
  -8  -5   1    7.50    6.20
   7   5  -1   36.70    6.80
  -7  -5   1   72.49   14.00
  -7  -5   1   28.60    6.90
   6   5  -1   71.79    7.20
   6   5  -1   56.39   17.00
  -6  -5   1   66.39    8.20
  -6  -5   1   95.49   14.70
   5   5  -1  100.69    7.30
   5   5  -1   76.79   16.30
  -5  -5   1  100.59   16.60
  -5  -5   1   85.79    7.90
   4   5  -1  154.18    8.70
   4   5  -1  167.08   17.90
  -4  -5   1  167.08    9.60
  -4  -5   1  160.48   16.80
   3   5  -1   44.00   11.10
   3   5  -1   46.90    4.40
  -3  -5   1   40.50    4.60
  -3  -5   1   25.50    9.50
   2   5  -1  152.58    7.90
   2   5  -1  138.29   16.50
  -2  -5   1  151.88   16.00
  -2  -5   1  132.69    7.50
   1   5  -1   22.60    4.20
   1   5  -1   32.60   10.60
  -1  -5   1   33.90    4.30
  -1  -5   1   25.90   10.20
   0   5  -1   61.29   14.00
   0  -5   1   71.09    6.60
   0  -5   1   82.09   13.20
   1  -5   1    0.60    8.40
   1  -5   1   11.30    8.80
   1  -5   1    3.40    3.40
   1  -5   1    4.70    3.70
  -2   5  -1  626.24   36.20
   2  -5   1  584.74   28.80
   2  -5   1  595.74   28.40
  -3   5  -1    8.90    9.80
   3  -5   1    4.90    7.80
   3  -5   1   -2.30    4.20
   3  -5   1   11.80    5.70
  -4   5  -1  175.78   20.00
   4  -5   1  202.18   15.10
   4  -5   1  209.78   17.60
   4  -5   1  200.48   15.80
  -5   5  -1   -0.10    4.80
  -5   5  -1   26.50   11.00
   5  -5   1    3.50    7.20
   5  -5   1   -5.70    4.40
  -6   5  -1   24.80    9.40
  -6   5  -1   36.50   12.10
   6  -5   1   17.90    7.40
   6  -5   1   39.60   10.40
  -7   5  -1   -1.60    7.80
  -7   5  -1    1.10    5.70
   7  -5   1    3.80    7.20
   7  -5   1   11.80    6.70
  -8   5  -1  357.16   25.00
  -8   5  -1  333.47   28.70
   8  -5   1  306.97   23.80
   8  -5   1  338.57   24.80
  -9   5  -1   16.10   13.30
   9  -5   1   -4.20    5.90
 -10   5  -1   33.20   16.30
  10  -5   1   56.79   13.80
 -11   5  -1    2.20   13.30
  11  -5   1   -3.40    6.50
 -12   5  -1   36.60   17.70
  12  -5   1   35.20   13.00
 -13   5  -1   -1.10   13.00
  13  -5   1   -3.10    9.00
 -14   5  -1   51.39   21.80
  14  -5   1  105.09   20.70
  13   4  -1   28.80   11.50
 -13  -4   1   16.40   15.40
  12   4  -1   18.90   10.20
  12   4  -1   52.99   11.90
 -12  -4   1   46.80   16.60
  11   4  -1   34.20   10.40
 -11  -4   1   31.50   16.30
 -11  -4   1   37.90   11.70
  10   4  -1   -9.60    5.70
 -10  -4   1    8.90   10.90
 -10  -4   1   11.50    8.90
   9   4  -1  220.58   15.70
  -9  -4   1  175.08   20.40
  -9  -4   1  143.99   15.70
   8   4  -1    7.10    5.90
   8   4  -1   -6.40   10.90
  -8  -4   1   11.80    6.60
  -8  -4   1    7.90    9.20
   7   4  -1  160.68   20.40
   7   4  -1  189.88   12.90
  -7  -4   1  162.08   17.40
   6   4  -1   14.80   11.20
   6   4  -1   18.40    5.30
  -6  -4   1   12.20    5.20
  -6  -4   1   21.40    9.40
   5   4  -1   15.00    9.80
   5   4  -1    6.70    3.50
  -5  -4   1    2.70    3.80
  -5  -4   1    1.00    7.40
   4   4  -1   42.40   11.10
   4   4  -1   46.40    4.70
  -4  -4   1   21.50    9.20
  -4  -4   1   34.20    5.30
   3   4  -1  507.05   20.70
   3   4  -1  504.35   29.70
  -3  -4   1  485.55   27.90
  -3  -4   1  517.65   21.20
   2   4  -1   27.00   10.80
   2   4  -1   28.20    3.40
  -2  -4   1   35.80    9.40
  -2  -4   1   27.60    3.30
   1   4  -1    3.30    7.00
   1   4  -1   -1.20    2.20
  -1  -4   1    1.60    7.60
  -1  -4   1    0.90    1.90
   0   4  -1   -9.90    7.10
   0  -4   1   -2.10    7.10
   0  -4   1    7.00    3.50
   1  -4   1   46.20   11.80
   1  -4   1   33.00   11.80
   1  -4   1   31.10    5.50
   1  -4   1   33.00    5.80
  -2   4  -1   -0.60    8.20
   2  -4   1   -1.30    4.30
   2  -4   1   -7.60    6.60
   2  -4   1    0.20    3.90
  -3   4  -1 1825.22   83.69
  -3   4  -1 2050.79   79.89
   3  -4   1 1969.70   85.49
   3  -4   1 1981.50   79.79
  -4   4  -1   12.40    8.80
  -4   4  -1   -3.40    3.80
   4  -4   1    2.90    5.90
   4  -4   1    4.80    4.90
  -5   4  -1   93.89   14.10
  -5   4  -1   77.19   10.70
   5  -4   1   88.59   11.70
   5  -4   1   94.99   11.30
  -6   4  -1    7.70    9.80
  -6   4  -1    5.40    5.40
   6  -4   1    2.00    5.60
   6  -4   1    5.80    6.70
  -7   4  -1  382.36   26.20
  -7   4  -1  483.55   31.50
   7  -4   1  421.66   26.40
   7  -4   1  442.76   27.10
  -8   4  -1  -13.00    5.80
  -8   4  -1   -1.30    5.70
   8  -4   1   13.80    7.10
   8  -4   1    9.60    7.40
  -9   4  -1  460.95   34.20
  -9   4  -1  444.16   30.80
   9  -4   1  509.85   31.80
   9  -4   1  452.05   30.20
 -10   4  -1  -10.00    8.30
  10  -4   1   -0.90    7.50
 -11   4  -1   78.89   20.40
  11  -4   1   62.49   15.60
 -12   4  -1   10.60   13.90
  12  -4   1   11.20   10.20
 -13   4  -1  160.48   27.20
  13  -4   1  210.08   24.00
 -14   4  -1   -8.70   12.00
  14  -4   1   10.50   11.40
  13   3  -1   -4.50    8.90
 -13  -3   1   -5.20    9.80
  12   3  -1   43.10   11.30
  12   3  -1   36.20   11.20
 -12  -3   1   51.29   17.10
  11   3  -1    6.70    8.30
 -11  -3   1   -7.80    8.80
 -11  -3   1   27.30   15.70
  10   3  -1   31.50    9.60
 -10  -3   1   51.99   14.80
 -10  -3   1   35.50   11.10
   9   3  -1   41.30    9.70
   9   3  -1   31.60   15.80
  -9  -3   1   45.30   13.00
  -9  -3   1   39.30    9.40
   8   3  -1  230.48   24.90
   8   3  -1  271.47   17.80
  -8  -3   1  272.27   21.80
  -8  -3   1  267.27   18.60
   7   3  -1    0.10    8.30
   7   3  -1   12.30    5.70
  -7  -3   1   17.00    6.00
  -7  -3   1   16.40    8.80
   6   3  -1   16.30    5.20
   6   3  -1   37.80   12.40
  -6  -3   1   18.90    5.40
   5   3  -1   61.79    7.20
   5   3  -1   83.89   13.30
  -5  -3   1   96.09   12.80
  -5  -3   1   73.99    8.20
   4   3  -1  580.24   24.50
   4   3  -1  576.24   31.80
  -4  -3   1  552.34   29.70
  -4  -3   1  561.24   24.90
   3   3  -1   16.60    3.10
   3   3  -1   14.80    7.40
  -3  -3   1   27.60    8.50
  -3  -3   1   14.50    3.10
   2   3  -1   70.79   11.00
  -2  -3   1   63.09   10.60
  -2  -3   1   62.79    4.30
   1   3  -1   40.70    9.30
  -1  -3   1   47.70    3.50
  -1  -3   1   44.10    9.20
   0   3  -1    2.40    8.80
   0  -3   1    7.60    3.00
   0  -3   1   -5.30    7.10
   0  -3   1    3.20    2.90
  -1   3  -1    5.80    9.40
   1  -3   1   -3.20    3.00
   1  -3   1   19.70    9.30
  -2   3  -1 4242.48  162.38
  -2   3  -1 4249.67  166.18
   2  -3   1 4234.28  162.38
   2  -3   1 4309.07  165.08
  -3   3  -1    0.80    7.10
  -3   3  -1    5.70    4.80
   3  -3   1    0.60    5.80
   3  -3   1    3.60    4.70
  -4   3  -1  569.64   30.20
  -4   3  -1  527.95   27.30
   4  -3   1  541.25   27.40
   4  -3   1  519.05   27.50
  -5   3  -1   -3.90    5.70
  -5   3  -1    5.00    5.10
   5  -3   1    3.00    5.40
   5  -3   1   -1.00    3.90
  -6   3  -1 1508.25   69.19
  -6   3  -1 1540.25   67.09
   6  -3   1 1498.05   66.49
   6  -3   1 1590.84   67.39
  -7   3  -1    7.20    7.80
  -7   3  -1   -0.30    5.20
   7  -3   1    1.10    5.20
   7  -3   1    0.40    5.20
  -8   3  -1   79.49   15.80
  -8   3  -1   63.69   13.00
   8  -3   1   66.69   16.30
   8  -3   1   46.00   10.60
  -9   3  -1   -1.90    5.90
  -9   3  -1   -5.10    8.80
   9  -3   1    0.80    5.40
   9  -3   1   11.70    8.80
 -10   3  -1  106.39   20.20
  10  -3   1  110.39   15.60
 -11   3  -1   15.30   12.30
  11  -3   1   37.10   12.10
 -12   3  -1   29.10   15.90
  12  -3   1   27.60   14.90
 -13   3  -1   -9.50   10.40
  13  -3   1    8.70   10.20
 -14   3  -1   72.79   22.50
  14  -3   1   97.19   19.30
  14   2  -1   -2.70   11.30
 -14  -2   1    3.60   11.40
  13   2  -1   -0.70    8.90
 -13  -2   1    4.10   12.30
  12   2  -1    8.50    8.70
 -12  -2   1   -4.10    9.60
  11   2  -1   74.89   14.10
 -11  -2   1   31.10   13.20
 -11  -2   1   61.99   14.10
  10   2  -1  152.38   15.90
 -10  -2   1  135.69   16.90
 -10  -2   1  156.08   19.70
   9   2  -1   61.89   17.20
   9   2  -1   24.10    8.30
  -9  -2   1   13.00    8.10
  -9  -2   1   37.40   13.30
   8   2  -1    5.00    5.70
   8   2  -1   -1.90   10.60
  -8  -2   1    2.60    5.60
  -8  -2   1    5.40    7.40
   7   2  -1   -3.10    4.10
   7   2  -1   14.00    9.40
  -7  -2   1    0.90    6.40
  -7  -2   1    3.10    4.80
   6   2  -1  104.09   10.20
   6   2  -1  142.29   15.70
  -6  -2   1  120.79   13.90
  -6  -2   1  106.59   10.70
   5   2  -1 1049.30   43.40
   5   2  -1 1039.90   48.60
  -5  -2   1 1005.60   43.50
  -5  -2   1 1021.10   46.60
   4   2  -1   17.40    4.30
  -4  -2   1   25.70    5.20
  -4  -2   1   22.80    7.20
   3   2  -1   15.80    3.40
   3   2  -1    8.50    6.90
  -3  -2   1   24.60    7.80
  -3  -2   1   14.50    3.30
   2   2  -1   79.29   10.20
  -2  -2   1   49.99    4.30
  -2  -2   1   66.59    9.50
   1   2  -1    7.30    6.30
  -1  -2   1   10.00    6.10
   0   2  -1   12.10    5.90
   0   2  -1    4.20    1.90
   0  -2   1    9.30    2.20
   0  -2   1   10.30    5.80
  -1   2  -1 3177.68  124.09
  -1   2  -1 3167.78  120.99
   1  -2   1 3249.38  123.89
   1  -2   1 3189.08  120.99
  -2   2  -1    4.80    6.20
  -2   2  -1    0.80    3.50
   2  -2   1   -0.60    3.60
   2  -2   1   -1.60    5.70
  -3   2  -1   99.69    9.30
  -3   2  -1   85.69   10.60
   3  -2   1   78.69    8.70
   3  -2   1   82.59    9.60
  -4   2  -1   -1.00    5.50
  -4   2  -1   -0.20    5.00
   4  -2   1   -3.60    4.00
   4  -2   1   14.30    5.80
  -5   2  -1  308.27   20.60
  -5   2  -1  316.57   19.70
   5  -2   1  313.87   19.50
   5  -2   1  326.37   19.70
  -6   2  -1   -2.30    6.40
  -6   2  -1    5.80    5.30
   6  -2   1   -2.30    4.70
   6  -2   1    0.00    5.30
  -7   2  -1  286.57   21.20
  -7   2  -1  247.28   19.30
   7  -2   1  253.37   19.40
   7  -2   1  257.67   19.30
  -8   2  -1    4.50    7.00
  -8   2  -1   10.60    8.30
   8  -2   1   -4.30    5.70
   8  -2   1    5.60    7.00
  -9   2  -1  305.07   23.20
  -9   2  -1  282.87   24.10
   9  -2   1  257.87   22.80
   9  -2   1  274.97   21.90
 -10   2  -1   24.20   10.80
 -10   2  -1   11.40   10.70
  10  -2   1   17.70    8.90
 -11   2  -1   56.79   16.80
  11  -2   1   83.79   15.70
 -12   2  -1   19.40   12.70
  12  -2   1   10.10   10.10
 -13   2  -1   52.59   19.30
  13  -2   1   21.70   11.90
 -14   2  -1   23.10   16.60
  14  -2   1   12.10   11.50
  14   1  -1   13.40   12.40
 -14  -1   1    8.90   11.60
  13   1  -1   52.89   14.10
 -13  -1   1   42.50   16.00
  12   1  -1   41.30   11.80
 -12  -1   1   35.80   13.80
  11   1  -1   41.40   10.70
 -11  -1   1   35.70   12.30
 -11  -1   1   11.40   11.50
  10   1  -1    6.30    6.50
 -10  -1   1   17.50    9.30
 -10  -1   1   12.60   11.40
   9   1  -1   17.50   10.80
   9   1  -1   -0.80    5.00
  -9  -1   1   -5.90    7.20
  -9  -1   1    3.40    6.70
   8   1  -1  478.35   27.30
   8   1  -1  469.05   31.60
  -8  -1   1  486.25   29.80
  -8  -1   1  499.95   28.00
   7   1  -1   -1.20    6.90
   7   1  -1   -1.50    4.70
  -7  -1   1    0.20    5.90
  -7  -1   1    2.70    4.90
   6   1  -1  169.48   15.80
   6   1  -1  150.98   12.30
  -6  -1   1  151.78   14.40
  -6  -1   1  149.59   12.50
   5   1  -1   29.80    6.00
   5   1  -1   17.30    8.60
  -5  -1   1   20.80    5.70
  -5  -1   1   23.70    7.50
   4   1  -1  864.01   38.50
   4   1  -1  816.52   35.20
  -4  -1   1  805.52   37.10
  -4  -1   1  809.22   35.10
   3   1  -1   12.90    4.00
   3   1  -1    3.70    6.00
  -3  -1   1   20.80    6.90
  -3  -1   1    6.50    3.60
   2   1  -1 6491.45  237.18
  -2  -1   1 6127.09  234.38
  -2  -1   1 6276.77  236.58
   1   1  -1   -0.90    3.10
   1   1  -1    0.20    0.80
  -1  -1   1    3.70    3.20
   0   1  -1   27.10    2.30
  -1   1  -1   -2.60    2.80
  -1   1  -1   -3.20    1.60
   1  -1   1    0.20    1.80
   1  -1   1   -3.40    2.80
  -2   1  -1 3156.58  120.09
  -2   1  -1 3128.69  120.59
   2  -1   1 3121.89  120.09
   2  -1   1 3192.08  120.29
  -3   1  -1    4.70    5.40
  -3   1  -1   -3.60    3.50
   3  -1   1    2.10    4.00
   3  -1   1   12.60    5.70
  -4   1  -1  270.07   16.90
  -4   1  -1  270.17   16.50
   4  -1   1  263.77   16.40
   4  -1   1  278.57   16.30
  -5   1  -1   -0.80    4.40
  -5   1  -1   -1.60    4.70
   5  -1   1    1.70    4.40
   5  -1   1    6.10    5.20
  -6   1  -1 3817.42  152.08
  -6   1  -1 3845.92  153.08
   6  -1   1 3789.02  152.38
   6  -1   1 4015.90  152.48
  -7   1  -1   34.00    9.10
  -7   1  -1   42.90   10.40
   7  -1   1   15.00    6.90
   7  -1   1   17.30    8.40
  -8   1  -1  256.37   20.20
  -8   1  -1  268.87   21.80
   8  -1   1  291.87   20.40
   8  -1   1  217.38   20.30
  -9   1  -1   18.70   10.90
  -9   1  -1    5.40    8.50
   9  -1   1   21.40    9.60
   9  -1   1   14.40    7.30
 -10   1  -1  132.99   17.30
 -10   1  -1  116.89   18.10
  10  -1   1  109.09   15.10
 -11   1  -1   25.00   12.50
  11  -1   1   35.10   11.60
 -12   1  -1  139.59   21.70
  12  -1   1  142.19   18.80
 -13   1  -1    2.00   11.10
  13  -1   1    3.00    9.20
 -14   1  -1   13.80   14.50
  14  -1   1    4.70   11.40
  14   0  -1   36.40   13.50
 -14   0   1   -5.30   10.90
  13   0  -1  163.28   20.30
 -13   0   1  135.39   22.60
  12   0  -1   -3.00    8.70
 -12   0   1    6.80   12.30
  11   0  -1   61.49   12.60
  11   0  -1   31.70   10.60
 -11   0   1   55.39   15.80
  10   0  -1   26.80    9.10
 -10   0   1   20.80   10.10
 -10   0   1   20.20   10.00
   9   0  -1  101.29   12.70
   9   0  -1   84.59   17.00
  -9   0   1   83.69   14.40
  -9   0   1   89.49   13.10
   8   0  -1    8.80    8.00
   8   0  -1    8.30    7.70
  -8   0   1   12.90    8.60
  -8   0   1   -0.60    5.80
   7   0  -1   57.99   12.70
   7   0  -1   60.39   10.40
  -7   0   1   65.69    9.60
  -7   0   1   42.60   10.50
   6   0  -1   12.10    7.30
   6   0  -1   -3.00    3.70
  -6   0   1    3.80    4.60
  -6   0   1    4.90    6.50
   5   0  -1   24.80    6.30
   5   0  -1   57.19    9.90
  -5   0   1   40.40    7.30
  -5   0   1   45.80    8.80
   4   0  -1   50.79    8.70
   4   0  -1   41.20    6.70
  -4   0   1   37.80    8.00
  -4   0   1   37.30    6.80
   3   0  -1 1621.34   65.09
  -3   0   1 1611.44   64.09
  -3   0   1 1644.94   64.89
   2   0  -1   50.19    6.00
   2   0  -1   31.60    4.60
   2   0  -1   27.90    4.50
  -2   0   1   57.09    5.90
  -2   0  -1   37.10    5.50
  -2   0  -1   53.89    6.40
   2   0   1   60.29    6.50
   2   0   1   45.20    5.60
  -3   0  -1 2618.34  100.29
   3   0   1 2604.04  100.09
   3   0   1 2533.35  100.29
  -4   0  -1   19.00    5.40
  -4   0  -1   18.80    6.30
   4   0   1   20.20    5.90
   4   0   1   29.50    7.10
  -5   0  -1 1736.33   76.89
  -5   0  -1 1784.52   74.19
   5   0   1 1808.02   74.69
   5   0   1 1832.42   73.59
  -6   0  -1  200.78   15.40
  -6   0  -1  206.58   16.30
   6   0   1  228.38   17.30
   6   0   1  195.38   14.90
  -7   0  -1    7.20    6.60
  -7   0  -1   14.60    7.10
   7   0   1    7.20    7.40
   7   0   1   -0.50    4.70
  -8   0  -1   -0.50    7.00
  -8   0  -1    9.00    7.20
   8   0   1   11.10    9.40
   8   0   1    9.50    6.20
  -9   0  -1   -2.20    6.80
  -9   0  -1    0.80    8.10
   9   0   1   11.60   10.10
   9   0   1   15.40    8.10
 -10   0  -1   46.50   13.20
 -10   0  -1   40.80   12.10
  10   0   1   53.59   11.50
 -11   0  -1  172.28   21.50
  11   0   1  135.99   17.70
 -12   0  -1   -1.30    9.80
  12   0   1   -5.00    7.20
 -13   0  -1   -7.60   10.20
 -14   0  -1   -7.30   10.50
  14   0   1   25.60   13.00
  14  -1  -1   25.00   12.50
 -14   1   1   18.50   14.30
  13  -1  -1   13.70   11.60
 -13   1   1   -5.60   10.70
  12  -1  -1   35.50   12.50
 -12   1   1   42.00   15.20
  11  -1  -1  103.19   15.70
 -11   1   1  114.89   18.40
  10  -1  -1    1.30    6.10
  10  -1  -1    4.50    7.20
 -10   1   1   15.50    9.70
   9  -1  -1    9.20    6.90
   9  -1  -1    7.80    8.80
  -9   1   1   -2.00    6.50
  -9   1   1   -6.60    4.90
   8  -1  -1   33.70    9.40
   8  -1  -1   28.00    9.50
  -8   1   1   25.20   10.60
  -8   1   1   15.10    8.50
   7  -1  -1   24.20    7.80
   7  -1  -1   56.39   11.90
  -7   1   1   47.40   10.80
  -7   1   1   61.19   10.50
   6  -1  -1  229.18   16.90
   6  -1  -1  196.88   15.50
  -6   1   1  189.08   15.80
  -6   1   1  218.18   15.60
   5  -1  -1    2.40    4.40
   5  -1  -1    2.20    5.20
  -5   1   1   -6.40    4.10
  -5   1   1   -1.60    4.30
   4  -1  -1  147.19   12.00
   4  -1  -1  153.98   11.60
  -4   1   1  167.38   12.30
  -4   1   1  146.69   11.50
   3  -1  -1   -1.70    3.40
   3  -1  -1    1.70    3.60
   3  -1  -1   -7.00    3.60
  -3   1   1   -0.30    4.70
   2  -1  -1  896.71   36.20
   2  -1  -1  869.61   36.30
  -2   1   1  890.21   36.30
  -2   1   1  896.51   36.30
   1  -1  -1    1.90    2.60
   1  -1  -1    1.40    1.90
  -1   1   1   -1.30    2.10
  -1   1   1    1.80    1.90
   0  -1  -1    5.60    2.30
   0   1   1   10.90    2.80
   0   1   1    5.80    1.70
  -1  -1  -1   15.90    2.80
  -1  -1  -1   15.90    3.50
   1   1   1    9.30    3.50
   1   1   1   11.50    2.40
  -2  -1  -1  158.78   10.40
  -2  -1  -1  184.78    9.80
   2   1   1  180.08   11.30
   2   1   1  145.99    9.10
  -3  -1  -1  253.17   14.80
  -3  -1  -1  246.38   13.90
   3   1   1  237.88   13.50
   3   1   1  272.07   15.70
  -4  -1  -1   83.29    9.70
  -4  -1  -1   80.29    8.50
   4   1   1   92.19    8.40
   4   1   1   82.89   10.60
  -5  -1  -1    7.50    6.80
  -5  -1  -1   12.60    5.20
   5   1   1    5.50    6.70
   5   1   1   10.00    4.90
  -6  -1  -1   15.30    6.20
  -6  -1  -1    9.70    6.70
   6   1   1    5.70    7.50
   6   1   1    9.40    5.00
  -7  -1  -1   54.79   11.70
  -7  -1  -1   76.19   12.00
   7   1   1   65.59    9.70
   7   1   1   44.40   11.20
  -8  -1  -1  154.38   15.30
  -8  -1  -1  206.58   18.20
   8   1   1  150.98   14.10
   8   1   1   98.39   16.50
  -9  -1  -1   42.00   11.30
  -9  -1  -1   31.00   11.00
   9   1   1   76.49   11.90
   9   1   1   50.09   14.30
 -10  -1  -1   10.40   10.00
 -10  -1  -1   11.90    9.90
  10   1   1   44.40   11.20
 -11  -1  -1    0.90   10.50
 -11  -1  -1   22.10   11.90
  11   1   1   20.70   10.00
 -12  -1  -1    4.80   11.60
  12   1   1   -0.10    9.00
 -13  -1  -1   28.50   15.10
  13   1   1   24.60   11.30
  14  -2  -1   -6.80    8.10
 -14   2   1   -5.40   12.30
  13  -2  -1    4.20    8.90
 -13   2   1   -4.40   10.00
  12  -2  -1   16.60   10.10
 -12   2   1    6.70    9.60
  11  -2  -1   62.29   14.30
 -11   2   1   41.30   14.70
  10  -2  -1    0.70    5.50
  10  -2  -1    8.90    7.30
 -10   2   1   13.10   10.30
   9  -2  -1  119.09   14.90
   9  -2  -1  132.19   16.40
  -9   2   1  133.19   16.80
   8  -2  -1    2.60    6.30
   8  -2  -1   -3.20    4.20
   8  -2  -1   10.30    6.30
  -8   2   1   13.80    8.30
   7  -2  -1  688.93   35.60
  -7   2   1  667.33   35.20
  -7   2   1  686.43   36.70
   6  -2  -1   30.20    7.20
   6  -2  -1   31.50    8.60
   6  -2  -1   22.70    7.30
  -6   2   1   14.80    7.50
   5  -2  -1  142.49   12.00
   5  -2  -1  145.19   12.70
   5  -2  -1  143.59   12.50
  -5   2   1  156.68   13.60
   4  -2  -1    4.10    5.00
   4  -2  -1   14.70    5.80
   4  -2  -1    8.30    4.70
  -4   2   1    9.60    6.50
   3  -2  -1 4253.07  161.88
   3  -2  -1 4249.08  162.18
   3  -2  -1 4225.48  162.58
  -3   2   1 4254.17  162.88
   2  -2  -1    5.50    4.20
   2  -2  -1    8.90    4.90
  -2   2   1    8.80    5.60
  -2   2   1    4.00    4.00
   1  -2  -1    8.80    3.50
   1  -2  -1   20.00    6.00
  -1   2   1   21.20    6.40
  -1   2   1    6.90    3.20
   0  -2  -1    3.10    2.60
   0  -2  -1    5.80    4.80
   0   2   1    9.70    5.40
   0   2   1    7.00    2.80
  -1  -2  -1 2372.96   86.59
  -1  -2  -1 2219.08   88.29
   1   2   1 2299.07   86.49
   1   2   1 2232.38   88.69
  -2  -2  -1   45.70    5.60
  -2  -2  -1   62.99    8.70
   2   2   1   55.99    8.40
   2   2   1   51.09    5.20
  -3  -2  -1    8.40    5.60
  -3  -2  -1    5.10    3.70
   3   2   1    0.00    5.70
   3   2   1    7.50    3.40
  -4  -2  -1  134.69   11.70
  -4  -2  -1   93.89    9.10
   4   2   1  105.69    8.90
   4   2   1  125.99   14.10
  -5  -2  -1  902.01   42.60
  -5  -2  -1  959.50   41.30
   5   2   1  935.91   44.60
   5   2   1  920.91   40.30
  -6  -2  -1   12.80    6.80
  -6  -2  -1    3.10    5.10
   6   2   1   12.50    5.30
   6   2   1   21.90    9.10
  -7  -2  -1  307.77   21.90
  -7  -2  -1  314.07   20.20
   7   2   1  319.77   24.40
   7   2   1  293.27   19.10
  -8  -2  -1   -2.10    8.10
  -8  -2  -1    3.70    6.70
   8   2   1    0.70    7.40
  -9  -2  -1    8.00    8.50
  -9  -2  -1   17.90   10.40
   9   2   1   14.70    7.90
   9   2   1    8.60   12.90
 -10  -2  -1   38.10   16.90
 -10  -2  -1    0.50    9.80
  10   2   1   12.10    8.10
 -11  -2  -1  232.88   23.50
 -11  -2  -1  239.18   24.00
  11   2   1  211.78   19.60
 -12  -2  -1   -2.30   10.10
  12   2   1   16.90   10.40
 -13  -2  -1   -5.80   12.90
  13   2   1   -3.20    8.40
  14  -3  -1   45.10   16.20
 -14   3   1   42.80   18.10
  13  -3  -1   -8.00    7.20
 -13   3   1   -5.00   11.00
  12  -3  -1   34.60   13.00
 -12   3   1   27.50   15.40
  11  -3  -1    6.30    8.10
 -11   3   1   27.00   13.10
  10  -3  -1  104.79   19.40
  10  -3  -1  109.59   15.80
 -10   3   1  130.39   23.00
   9  -3  -1   -4.10    5.10
   9  -3  -1   -5.80    4.60
   9  -3  -1    5.00    7.10
  -9   3   1    8.20    8.70
   8  -3  -1  868.71   44.30
   8  -3  -1  893.91   44.10
   8  -3  -1  888.11   45.10
  -8   3   1  841.02   46.10
   7  -3  -1    0.00    5.70
   7  -3  -1   -2.70    4.20
   7  -3  -1    4.10    5.70
  -7   3   1   -1.00    7.20
   6  -3  -1 1356.76   60.69
   6  -3  -1 1358.76   59.89
   6  -3  -1 1382.26   60.19
  -6   3   1 1360.96   62.09
   5  -3  -1   10.40    6.30
   5  -3  -1   25.00    7.20
   5  -3  -1    7.10    5.10
  -5   3   1    9.10    7.90
   4  -3  -1  306.17   18.20
   4  -3  -1  301.37   19.40
   4  -3  -1  273.87   17.30
  -4   3   1  280.67   19.20
   3  -3  -1    7.20    5.30
   3  -3  -1   14.50    6.40
   3  -3  -1   13.10    5.60
  -3   3   1   22.50    7.80
   2  -3  -1  155.48   12.10
   2  -3  -1  133.29   10.30
  -2   3   1  147.29   13.60
  -2   3   1  139.09   10.50
   1  -3  -1    0.60    6.60
   1  -3  -1   -2.20    3.20
  -1   3   1   -2.50    7.40
  -1   3   1   -0.20    3.50
   0  -3  -1   67.79   10.00
   0  -3  -1   58.39    5.90
   0   3   1   82.99   12.10
   0   3   1   63.29    6.30
  -1  -3  -1    6.50    5.70
  -1  -3  -1    1.10    2.70
   1   3   1   -5.40    5.20
   1   3   1    1.00    2.80
  -2  -3  -1   10.90    6.10
  -2  -3  -1    4.80    3.20
   2   3   1   11.10    3.30
   2   3   1   16.20    6.90
  -3  -3  -1  153.28   13.10
  -3  -3  -1  167.48   10.40
   3   3   1  192.18   15.20
   3   3   1  154.88    9.70
  -4  -3  -1  719.93   35.20
  -4  -3  -1  726.73   32.50
   4   3   1  765.92   32.20
   4   3   1  746.03   37.40
  -5  -3  -1   30.30    8.70
  -5  -3  -1   30.00    6.40
   5   3   1   40.60   10.60
   5   3   1   35.40    6.30
  -6  -3  -1  233.48   16.10
   6   3   1  234.38   15.20
   6   3   1  251.27   21.60
  -7  -3  -1  -13.90    6.90
  -7  -3  -1    3.80    5.30
   7   3   1    6.20   10.00
   7   3   1   -1.80    4.80
  -8  -3  -1    4.70    9.00
  -8  -3  -1    0.70    6.10
   8   3   1   13.50   13.00
   8   3   1   -1.50    5.20
  -9  -3  -1   24.60   11.20
  -9  -3  -1   17.70    9.10
   9   3   1    7.10   13.70
   9   3   1   22.80    8.10
 -10  -3  -1   78.69   17.50
 -10  -3  -1   60.69   13.70
  10   3   1   68.29   12.60
 -11  -3  -1   18.40   10.80
  11   3   1   13.20    8.90
 -12  -3  -1   -9.90    9.30
  12   3   1    6.30    9.10
 -13  -3  -1   44.70   18.00
  13   3   1   32.70   12.10
  14  -4  -1    7.50    9.40
 -14   4   1    1.60   14.20
  13  -4  -1   12.80   10.80
 -13   4   1    9.90   13.60
  12  -4  -1   20.90   12.20
 -12   4   1    9.70   13.70
  11  -4  -1   17.50   11.00
 -11   4   1   24.90   14.00
  10  -4  -1    7.50    8.50
 -10   4   1   -4.80    8.40
   9  -4  -1    5.40    6.20
   9  -4  -1   20.00    8.70
   9  -4  -1   12.90    8.80
  -9   4   1    8.30   10.30
   8  -4  -1   -7.90    4.80
   8  -4  -1    5.20   10.50
  -8   4   1   -4.40    6.60
   7  -4  -1   63.29   11.40
   7  -4  -1   52.39   11.00
   7  -4  -1   66.49   12.90
  -7   4   1   31.50   11.80
   6  -4  -1   -3.80    3.80
   6  -4  -1    1.60    5.40
   6  -4  -1   -5.30    3.90
  -6   4   1    9.90    8.20
   5  -4  -1  356.06   21.50
   5  -4  -1  332.47   21.70
   5  -4  -1  353.16   21.60
  -5   4   1  361.16   24.40
   4  -4  -1   43.40    8.50
   4  -4  -1   42.00    8.60
   4  -4  -1   34.80    7.50
  -4   4   1   55.19   11.40
   3  -4  -1  203.08   16.40
   3  -4  -1  214.68   14.90
   3  -4  -1  215.58   15.50
  -3   4   1  230.38   18.30
   2  -4  -1   31.50    6.20
   2  -4  -1   58.59   10.40
  -2   4   1   32.50    6.30
  -2   4   1   54.59   11.40
   1  -4  -1   23.50   10.30
   1  -4  -1   24.80    5.20
   1  -4  -1   32.30    9.90
  -1   4   1   36.80    6.40
   0  -4  -1   13.80    3.90
   0  -4  -1   32.90    9.60
   0   4   1   22.10    4.60
   0   4   1   39.80   10.00
  -1  -4  -1   18.00    4.00
  -1  -4  -1   24.80    7.90
   1   4   1   18.80    4.00
   1   4   1   16.10    8.90
  -2  -4  -1  134.29    8.60
  -2  -4  -1  141.99   12.60
   2   4   1  125.99    8.40
   2   4   1  152.58   14.50
  -3  -4  -1  933.01   44.20
  -3  -4  -1  979.30   40.20
   3   4   1  994.80   49.99
   3   4   1  984.30   39.80
  -4  -4  -1   75.19    8.00
  -4  -4  -1   69.09   11.50
   4   4   1   60.99   12.90
   4   4   1   69.19    7.10
  -5  -4  -1   47.20   10.30
  -5  -4  -1   50.49    7.80
   5   4   1   40.20    6.50
   5   4   1   48.70   12.30
  -6  -4  -1    2.20    5.40
  -6  -4  -1   -5.30    7.20
   6   4   1   -2.90    3.70
   6   4   1    3.20    9.70
  -7  -4  -1   96.79   11.40
  -7  -4  -1   74.79   14.80
   7   4   1   93.79   18.80
   7   4   1   88.29   10.10
  -8  -4  -1   31.10    8.10
  -8  -4  -1   52.29   13.30
   8   4   1   41.00    8.70
   8   4   1   46.80   15.60
  -9  -4  -1   41.90   14.00
  -9  -4  -1   47.50   10.80
   9   4   1   46.90   10.00
 -10  -4  -1   13.90    9.70
 -10  -4  -1   -4.50   10.30
  10   4   1    3.60    6.60
 -11  -4  -1    2.50    9.70
 -11  -4  -1   26.50   15.40
  11   4   1   -6.00    7.20
 -12  -4  -1   27.80   13.60
  12   4   1   64.59   13.30
 -13  -4  -1   -9.90   11.10
  14  -5  -1   14.30   12.30
 -14   5   1   61.79   20.90
  13  -5  -1   -4.70    8.70
 -13   5   1    9.30   15.10
  12  -5  -1   68.89   17.50
 -12   5   1   66.09   19.90
  11  -5  -1    4.30    8.50
 -11   5   1    4.60   12.10
  10  -5  -1  474.75   32.40
 -10   5   1  417.46   35.00
   9  -5  -1    7.90    8.50
   9  -5  -1   13.60    8.00
   9  -5  -1    9.50    8.60
  -9   5   1   12.30   12.10
   8  -5  -1  265.67   22.00
   8  -5  -1  242.28   20.40
   8  -5  -1  254.77   20.20
  -8   5   1  248.58   24.20
   7  -5  -1   -0.80    6.40
   7  -5  -1   10.20    6.90
   7  -5  -1    5.20    5.70
  -7   5   1    0.00    8.10
   6  -5  -1   21.80    7.80
   6  -5  -1   36.30   10.10
   6  -5  -1   29.10    8.60
  -6   5   1   47.60   12.90
   5  -5  -1   13.90    6.20
   5  -5  -1   20.80    7.90
   5  -5  -1   17.60    7.50
  -5   5   1   28.50   10.80
   4  -5  -1  533.65   27.30
   4  -5  -1  521.55   28.20
   4  -5  -1  484.95   27.40
  -4   5   1  464.35   30.90
   3  -5  -1   14.00    5.60
   3  -5  -1   13.10    5.70
   3  -5  -1   25.90    8.50
  -3   5   1   25.10   10.60
   2  -5  -1  198.38   17.20
  -2   5   1  202.08   19.00
  -2   5   1  207.58   14.00
   1  -5  -1    6.40    8.40
   1  -5  -1    7.90    3.90
   1  -5  -1   18.60    9.70
  -1   5   1    9.10    4.30
   0  -5  -1  165.28   16.30
   0  -5  -1  162.38   10.30
   0   5   1  169.48   16.30
   0   5   1  145.49   10.50
  -1  -5  -1  182.48   10.60
  -1  -5  -1  159.18   15.50
   1   5   1  178.48   11.10
   1   5   1  173.18   16.40
  -2  -5  -1  609.24   26.50
  -2  -5  -1  611.04   32.20
   2   5   1  589.54   37.20
   2   5   1  608.74   26.50
  -3  -5  -1   44.20    5.90
  -3  -5  -1   30.80    9.30
   3   5   1   17.60   10.00
   3   5   1   15.20    4.00
  -4  -5  -1  208.48   13.40
  -4  -5  -1  229.28   18.30
   4   5   1  229.78   13.00
   4   5   1  230.18   20.70
  -5  -5  -1   15.80    5.50
  -5  -5  -1   17.10    9.80
   5   5   1   -3.00    8.90
   5   5   1   18.30    5.00
  -6  -5  -1   78.89   14.60
  -6  -5  -1   60.99    9.30
   6   5   1   73.09    8.50
   6   5   1   50.99   16.00
  -7  -5  -1   18.70   10.40
  -7  -5  -1   22.10    7.70
   7   5   1   20.30    6.30
  -8  -5  -1   -1.30    6.50
  -8  -5  -1    8.20   10.50
   8   5   1    5.40   15.90
   8   5   1   14.10    6.20
  -9  -5  -1   13.20    9.10
  -9  -5  -1   -5.40   11.00
   9   5   1   11.60    7.30
 -10  -5  -1   43.00   16.60
 -10  -5  -1   30.50   11.30
  10   5   1   23.40    8.90
 -11  -5  -1   36.00   15.70
 -11  -5  -1   35.70   13.00
  11   5   1   31.90    9.70
 -12  -5  -1   12.80   15.40
 -12  -5  -1   28.80   15.00
  12   5   1   34.40   10.80
 -14   6   1   38.90   20.20
  13  -6  -1   49.50   17.10
 -13   6   1   98.89   26.60
  12  -6  -1   -6.40    7.40
 -12   6   1   -3.80   12.80
  11  -6  -1  384.06   34.80
  10  -6  -1    4.00    6.80
 -10   6   1   -7.30    9.20
   9  -6  -1  521.25   35.10
  -9   6   1  573.84   40.80
   8  -6  -1   -0.70    6.50
   8  -6  -1    1.10    6.00
   8  -6  -1    4.60    7.70
  -8   6   1    5.80    9.90
   7  -6  -1   15.70    7.80
   7  -6  -1    8.70    6.90
   7  -6  -1   12.20    7.70
  -7   6   1   23.30   12.80
   6  -6  -1   11.40    7.70
   6  -6  -1   33.10    8.90
   6  -6  -1   12.80    6.60
  -6   6   1   23.70   12.40
   5  -6  -1  477.65   28.20
   5  -6  -1  510.85   29.30
   5  -6  -1  498.95   29.50
  -5   6   1  514.75   34.70
   4  -6  -1   -1.40    5.30
   4  -6  -1    4.90    5.00
   4  -6  -1   20.30    8.70
  -4   6   1   21.60   11.40
   3  -6  -1  126.29   18.60
   3  -6  -1   81.49   10.90
   3  -6  -1   88.19   10.30
  -3   6   1   83.89   17.10
   2  -6  -1   37.50    7.30
   2  -6  -1   45.30   13.00
   2  -6  -1   49.30   12.90
  -2   6   1   37.00    7.60
   1  -6  -1  741.53   43.80
   1  -6  -1  647.94   37.80
  -1   6   1  686.43   32.00
   0  -6  -1    9.30    9.00
   0  -6  -1    6.60    4.00
   0   6   1   15.80    4.80
  -1  -6  -1   13.20    8.30
  -1  -6  -1    6.30    3.80
   1   6   1   14.80    4.90
   1   6   1   14.20    9.70
  -2  -6  -1   28.30   10.00
  -2  -6  -1   39.90    5.90
   2   6   1   24.90   11.00
   2   6   1   31.70    5.50
  -3  -6  -1   10.20    8.30
  -3  -6  -1    9.60    4.50
   3   6   1   12.40    4.30
   3   6   1    9.50    9.50
  -4  -6  -1  210.48   18.90
  -4  -6  -1  210.58   13.40
   4   6   1  202.68   12.60
   4   6   1  220.48   22.10
  -5  -6  -1  381.36   20.30
  -5  -6  -1  372.56   25.70
   5   6   1  330.77   28.80
   5   6   1  363.56   18.90
  -6  -6  -1   -1.90    8.80
  -6  -6  -1   11.10    6.20
   6   6   1   19.70   13.50
   6   6   1   16.20    5.60
  -7  -6  -1  -10.10    5.50
  -7  -6  -1    7.80    9.90
   7   6   1    2.50    5.50
   7   6   1   -1.50   14.20
  -8  -6  -1   16.00    8.00
  -8  -6  -1   19.00   12.40
   8   6   1   34.70    8.20
  -9  -6  -1  155.68   21.40
  -9  -6  -1  110.79   15.90
   9   6   1  214.88   21.40
 -10  -6  -1   45.80   12.20
  10   6   1   55.39   10.70
 -11  -6  -1   13.20   21.50
 -11  -6  -1    4.40   14.40
  11   6   1   -0.30    7.90
  13  -7  -1   11.90   10.30
 -13   7   1    5.90   15.80
  12  -7  -1   47.20   16.00
 -12   7   1   37.80   18.50
  11  -7  -1    4.30    9.20
 -11   7   1   20.60   15.30
  10  -7  -1   93.99   17.40
 -10   7   1   80.89   20.90
   9  -7  -1   40.40   11.90
  -9   7   1   35.40   15.10
   8  -7  -1   -2.10    6.60
   8  -7  -1   25.90   10.40
  -8   7   1  -13.50    9.10
   7  -7  -1    2.50    6.60
   7  -7  -1   15.90    8.10
   7  -7  -1    1.70    6.40
  -7   7   1   11.50   12.00
   6  -7  -1   85.59   13.20
   6  -7  -1   84.09   23.60
   6  -7  -1   81.59   13.10
  -6   7   1  145.59   24.30
   5  -7  -1   19.20    9.20
   5  -7  -1   11.20    6.90
   5  -7  -1   15.60    7.00
  -5   7   1   -3.20   10.10
   4  -7  -1   35.20    8.50
   4  -7  -1   28.80    8.30
   4  -7  -1   15.20    9.30
  -4   7   1    9.70   11.10
   3  -7  -1  114.99   12.90
   3  -7  -1  151.98   16.70
   3  -7  -1  139.99   13.00
  -3   7   1  150.28   19.60
   2  -7  -1  173.08   19.20
   2  -7  -1  124.39   18.00
   2  -7  -1  172.28   13.20
  -2   7   1  137.19   12.80
   1  -7  -1   69.09    8.40
   1  -7  -1   65.09   14.40
   1  -7  -1   75.79   16.50
  -1   7   1   45.20    8.10
   0  -7  -1   -0.70    9.80
   0  -7  -1   -4.40    8.00
   0  -7  -1    0.20    3.60
   0   7   1   -0.20    3.90
  -1  -7  -1   58.99   12.60
  -1  -7  -1   90.09    8.20
   1   7   1   96.99    9.10
   1   7   1   80.79   16.90
  -2  -7  -1   34.20    6.00
  -2  -7  -1   44.10   13.00
   2   7   1   37.10    6.40
   2   7   1   43.80   13.70
  -3  -7  -1  175.98   11.80
  -3  -7  -1  169.78   18.00
   3   7   1  121.89   18.80
   3   7   1  159.18   11.10
  -4  -7  -1   10.30   10.80
  -4  -7  -1    7.20    4.90
   4   7   1    2.30    3.90
   4   7   1   10.50   11.70
  -5  -7  -1   11.60   10.60
  -5  -7  -1   28.80    6.90
   5   7   1    7.30    4.70
   5   7   1   -5.50   12.30
  -6  -7  -1   30.20   13.20
  -6  -7  -1   20.20    8.00
   6   7   1   60.89   23.40
   6   7   1   42.30    7.50
  -7  -7  -1  257.77   24.40
  -7  -7  -1  212.18   17.30
   7   7   1  253.87   32.10
   7   7   1  246.28   16.00
  -8  -7  -1   20.50    8.80
  -8  -7  -1   39.60   15.70
   8   7   1   38.70    8.90
  -9  -7  -1    4.00   13.00
  -9  -7  -1   20.10    9.50
   9   7   1   35.50    9.20
 -10  -7  -1    9.70   15.20
 -10  -7  -1    7.20   10.20
  10   7   1   17.60    8.60
 -11  -7  -1    1.00   15.00
 -11  -7  -1   18.50   12.60
  11   7   1   20.00    9.20
  13  -8  -1   32.20   14.80
 -13   8   1   25.20   18.90
  12  -8  -1   -1.10    7.70
 -12   8   1    3.90   16.50
  11  -8  -1   69.49   17.70
 -11   8   1  134.89   29.80
  10  -8  -1   -1.20    8.20
 -10   8   1    1.60   14.30
   9  -8  -1   33.40   11.60
  -9   8   1   49.30   20.10
   8  -8  -1   20.90    9.20
  -8   8   1   15.00   14.20
   7  -8  -1   11.80    9.40
   7  -8  -1   20.50    9.70
   7  -8  -1   14.50    9.80
  -7   8   1   47.70   19.30
   6  -8  -1   12.80    8.40
   6  -8  -1    6.40    6.60
   6  -8  -1   -0.90    8.90
  -6   8   1   22.60   15.00
   5  -8  -1  685.93   40.10
   5  -8  -1  719.73   40.10
   5  -8  -1  744.53   38.80
  -5   8   1  735.33   47.70
   4  -8  -1   22.00   10.30
   4  -8  -1   28.10    9.40
   4  -8  -1   25.50    8.10
  -4   8   1   46.40   16.00
   3  -8  -1   -0.30    5.80
   3  -8  -1   -1.40    8.70
   3  -8  -1   -2.80    5.10
   2  -8  -1   40.40   12.60
   2  -8  -1   13.10   10.30
   2  -8  -1   32.00    7.10
  -2   8   1   41.20    8.70
   1  -8  -1   64.89   16.00
   1  -8  -1   50.99   15.30
   1  -8  -1   73.79    9.30
  -1   8   1   73.69   10.20
   0  -8  -1   70.79   15.80
   0  -8  -1   93.49   19.20
   0  -8  -1   62.09    8.30
   0   8   1  100.29   10.50
  -1  -8  -1   76.89   15.60
  -1  -8  -1   54.49    7.50
   1   8   1  128.59   22.90
   1   8   1   64.89    8.70
   2   8   1   28.00   14.20
  -3  -8  -1   45.30    7.80
  -3  -8  -1   72.89   14.70
   3   8   1   66.19   18.20
   3   8   1   49.90    7.60
  -4  -8  -1   29.40    7.30
  -4  -8  -1   39.10   14.70
   4   8   1   27.90    6.20
   4   8   1   35.90   15.80
  -5  -8  -1   22.40    9.10
  -5  -8  -1   41.30   14.10
   5   8   1   32.90    6.70
  -6  -8  -1  227.88   18.10
  -6  -8  -1  226.58   23.60
   6   8   1  198.08   14.10
   6   8   1  189.38   30.80
  -7  -8  -1   41.60   16.40
  -7  -8  -1   34.70    9.20
   7   8   1   40.30    8.20
  -8  -8  -1   18.40    9.10
  -8  -8  -1    7.80   13.10
   8   8   1   16.20    6.80
  -9  -8  -1   46.40   11.30
   9   8   1   34.50    8.90
 -10  -8  -1  193.68   26.00
 -10  -8  -1  134.79   18.30
  10   8   1  142.89   22.90
  12  -9  -1   93.99   19.40
 -12   9   1  115.49   30.20
  11  -9  -1    4.70    8.60
 -11   9   1   -6.90   15.30
  10  -9  -1  243.68   26.10
 -10   9   1  241.38   33.90
   9  -9  -1   -0.10   14.30
  -9   9   1  -13.30   13.80
   8  -9  -1  150.98   19.70
  -8   9   1  124.79   27.10
   7  -9  -1   18.70   10.70
   7  -9  -1   -0.60    6.70
  -7   9   1   -3.60   13.10
   6  -9  -1   25.00   10.30
   6  -9  -1   18.70   11.30
   6  -9  -1   40.80   11.90
  -6   9   1    6.50   15.20
   5  -9  -1   80.19   14.50
   5  -9  -1   83.19   20.40
   5  -9  -1   88.79   13.40
  -5   9   1  103.09   25.40
   4  -9  -1  853.71   48.20
   4  -9  -1  855.51   43.50
   4  -9  -1  875.71   45.30
   4  -9  -1  860.71   52.79
   3  -9  -1   37.60   15.30
   3  -9  -1   29.30   12.20
   3  -9  -1   21.20    7.80
   3  -9  -1   33.10    8.60
   2  -9  -1  288.67   20.20
   2  -9  -1  323.17   29.60
   2  -9  -1  324.57   28.70
   2  -9  -1  343.47   22.40
   1  -9  -1  158.78   21.90
   1  -9  -1  149.39   13.10
   1  -9  -1  173.48   23.70
  -1   9   1  160.18   14.70
   0  -9  -1  198.88   22.80
   0  -9  -1  159.08   23.90
   0  -9  -1  197.48   14.10
   0   9   1  170.58   14.40
  -1  -9  -1   25.90    6.60
  -1  -9  -1   31.40   13.30
   1   9   1   39.10    8.00
  -2  -9  -1    0.90    9.60
  -2  -9  -1   -0.10    4.50
   2   9   1    2.10    5.40
   2   9   1  -11.70   12.10
  -3  -9  -1  207.28   23.00
  -3  -9  -1  210.28   14.90
   3   9   1  216.98   28.00
   3   9   1  217.78   14.80
  -4  -9  -1  216.98   23.80
  -4  -9  -1  183.28   18.90
   4   9   1  202.58   14.00
  -5  -9  -1   26.80   14.00
   5   9   1   43.70   21.40
   5   9   1   20.50    6.30
  -6  -9  -1   22.60   14.50
  -6  -9  -1    9.50    9.60
   6   9   1   14.20    6.30
  -7  -9  -1   32.20   16.10
  -7  -9  -1   21.50    9.00
   7   9   1   40.10    8.00
  -8  -9  -1   39.10   10.10
  -8  -9  -1   59.99   19.30
   8   9   1   35.00    8.50
  -9  -9  -1   69.79   20.80
  -9  -9  -1   37.50   11.10
   9   9   1   76.69   10.90
  11 -10  -1   50.19   16.60
 -11  10   1    3.60   17.60
  10 -10  -1   -1.80    8.20
 -10  10   1   25.00   18.60
   9 -10  -1    4.00    9.50
  -9  10   1    6.50   20.60
   8 -10  -1   61.79   18.00
  -8  10   1   65.69   22.60
   7 -10  -1  159.28   20.20
  -7  10   1  183.78   33.40
   6 -10  -1   22.30   11.20
   6 -10  -1   10.00    9.10
  -6  10   1   -3.70   12.70
   5 -10  -1   78.29   16.70
   5 -10  -1   46.70   12.40
   5 -10  -1   64.49   13.40
   5 -10  -1   18.90   16.50
   4 -10  -1  132.79   16.70
   4 -10  -1  122.59   15.60
   4 -10  -1  159.18   24.60
   4 -10  -1  156.68   21.10
   3 -10  -1    7.50   13.50
   3 -10  -1   -0.70    5.90
   3 -10  -1   13.50    6.70
   3 -10  -1    7.30   11.50
   2 -10  -1   68.99   19.60
   2 -10  -1   87.59   13.10
   2 -10  -1   85.59   11.90
   2 -10  -1   60.59   17.90
   1 -10  -1   26.10   15.40
   1 -10  -1    3.90    5.70
   1 -10  -1   10.50   13.60
   0 -10  -1   99.49   21.80
   0 -10  -1   73.19   20.70
   0 -10  -1   66.29    9.80
   0  10   1   56.79   11.10
  -1 -10  -1    4.50   15.00
  -1 -10  -1   -5.80    4.60
  -1 -10  -1    4.50   11.70
   1  10   1   -4.40    5.50
  -2 -10  -1  282.57   18.00
  -2 -10  -1  318.07   29.00
   2  10   1  261.57   37.80
   2  10   1  296.67   18.90
  -3 -10  -1   32.60   15.10
  -3 -10  -1   31.20    7.80
   3  10   1   28.30    7.60
   3  10   1   23.00   20.20
  -4 -10  -1   15.20   13.50
  -4 -10  -1   22.90    7.70
   4  10   1   28.80    7.70
   4  10   1   85.69   25.80
  -5 -10  -1  -10.00   11.80
  -5 -10  -1   -4.20    8.90
   5  10   1   -1.90    5.60
  -6 -10  -1  163.38   24.30
   6  10   1  178.08   13.50
  -7 -10  -1   -7.60   13.30
   7  10   1   -1.80    5.90
  -8 -10  -1   21.70   14.90
  -8 -10  -1   10.50   15.10
   8  10   1   16.90    7.00
  11 -11  -1    6.00   11.10
 -11  11   1    6.80   18.80
  10 -11  -1   24.90   13.60
 -10  11   1   37.90   24.00
   9 -11  -1    8.40   10.10
  -9  11   1   40.90   22.60
   8 -11  -1   -0.80    8.90
  -8  11   1   20.00   19.60
   7 -11  -1   17.80   11.70
  -7  11   1   21.80   19.00
   6 -11  -1   49.50   13.80
   6 -11  -1  100.99   28.00
   5 -11  -1   45.40   19.30
   5 -11  -1   25.10   11.00
   4 -11  -1   41.50   20.00
   4 -11  -1   12.80    8.90
   4 -11  -1   18.30   14.00
   4 -11  -1    1.20    7.50
   3 -11  -1   10.00    7.80
   3 -11  -1   12.50   13.00
   3 -11  -1   20.40   15.50
   3 -11  -1    8.50    8.10
   2 -11  -1   -1.20   13.80
   2 -11  -1    2.40    6.90
   2 -11  -1    8.80    8.40
   2 -11  -1   19.40   15.20
   1 -11  -1   -0.10    6.60
   1 -11  -1   24.50   16.10
   1 -11  -1    8.70   14.20
   1 -11  -1    4.50    6.60
   0 -11  -1   67.79   11.20
   0 -11  -1   78.59   19.30
   0 -11  -1   73.59   22.20
  -1 -11  -1  274.17   18.70
  -1 -11  -1  290.97   29.60
  -1 -11  -1  236.48   32.20
   1  11   1  268.27   19.60
  -2 -11  -1   21.80    8.00
  -2 -11  -1    9.30   13.10
   2  11   1   10.40    7.10
  -3 -11  -1   76.79   11.60
  -3 -11  -1   66.89   20.00
   3  11   1   41.00   24.30
   3  11   1   74.39   11.40
  -4 -11  -1   79.29   11.50
  -4 -11  -1  122.19   23.20
   4  11   1   70.99   11.10
  -5 -11  -1   27.80   11.50
  -5 -11  -1   39.30   17.60
   5  11   1   42.70    8.30
  -6 -11  -1  -14.30   15.50
  -6 -11  -1    6.80    9.60
   6  11   1    5.00    6.10
  -7 -11  -1   12.40    7.80
  -7 -11  -1    2.60   15.60
   7  11   1    4.10    6.30
  10 -12  -1   -1.60   10.30
 -10  12   1   -4.00   19.50
   9 -12  -1    1.00    8.50
  -9  12   1    6.80   17.70
   8 -12  -1   13.70   12.50
  -8  12   1   -1.20   17.00
   7 -12  -1  101.29   20.10
   7 -12  -1   86.19   39.10
   6 -12  -1   41.10   13.00
   6 -12  -1   55.49   23.40
   5 -12  -1   45.00   14.40
   5 -12  -1   17.10   18.70
   4 -12  -1   19.20   18.10
   4 -12  -1   11.30    9.30
   3 -12  -1   17.60   17.30
   3 -12  -1    3.60    7.30
   3 -12  -1    9.90    8.60
   2 -12  -1   20.10    9.00
   2 -12  -1   20.70   17.40
   2 -12  -1   13.50   16.40
   2 -12  -1   38.20   11.10
   1 -12  -1   30.90   18.40
   1 -12  -1   61.99   11.90
   1 -12  -1   28.20   17.90
   1 -12  -1   21.30    9.70
   0 -12  -1    3.60    7.80
   0 -12  -1   15.30   15.50
   0 -12  -1    1.40    7.10
   0 -12  -1   18.30   17.80
  -1 -12  -1    8.00   15.70
  -1 -12  -1   -0.60    8.30
  -1 -12  -1    1.10    6.70
  -2 -12  -1   76.79   12.00
  -2 -12  -1   94.19   21.70
  -3 -12  -1   80.99   12.70
  -3 -12  -1   79.69   21.10
  -4 -12  -1    4.10    7.70
  -4 -12  -1   20.20   16.30
  -5 -12  -1   36.80   19.40
  -5 -12  -1    5.40   14.90
  -6 -12  -1   30.10    8.80
  -6 -12  -1   47.90   20.70
   8 -13  -1   32.40   15.50
   8 -13  -1   21.00   23.00
   7 -13  -1    2.70   17.80
   7 -13  -1   15.40   11.50
   6 -13  -1   21.30   13.10
   6 -13  -1   53.29   28.60
   5 -13  -1   13.30   17.70
   5 -13  -1   21.80   11.20
   4 -13  -1    1.20   17.10
   4 -13  -1    6.60   10.00
   3 -13  -1   51.09   22.80
   3 -13  -1   37.10   13.30
   2 -13  -1   20.50   10.30
   2 -13  -1   16.50   10.90
   2 -13  -1   48.20   22.50
   1 -13  -1   10.10    8.90
   1 -13  -1   16.60    9.50
   1 -13  -1   -2.10   16.50
   0 -13  -1   -1.50    8.10
   0 -13  -1    7.80   16.90
   0 -13  -1    0.80    8.00
  -1 -13  -1  114.49   16.20
  -1 -13  -1   88.99   13.90
  -1 -13  -1  170.68   30.30
  -2 -13  -1    7.40    8.00
  -2 -13  -1   -7.60    7.80
  -2 -13  -1   17.40   17.50
  -3 -13  -1   30.90   10.70
  -3 -13  -1   20.60    9.40
  -3 -13  -1   17.40   18.60
  -4 -13  -1  -11.50    7.00
  -4 -13  -1   -0.90    7.80
   6 -14  -1    3.10   12.90
   6 -14  -1    7.30   20.10
   5 -14  -1    2.70   11.50
   5 -14  -1  -10.90   15.50
   4 -14  -1  137.59   24.10
   4 -14  -1   97.09   30.10
   3 -14  -1   -1.60   19.80
   3 -14  -1   -6.00    8.60
   2 -14  -1   28.70   22.50
   2 -14  -1   59.59   15.90
   1 -14  -1   21.10   10.50
   1 -14  -1   -9.70   17.60
   1 -14  -1    7.00   10.00
   0 -14  -1   70.99   13.70
   0 -14  -1   89.59   25.60
   0 -14  -1   75.89   16.30
  -1 -14  -1    7.80   20.30
  -1 -14  -1    0.90    8.70
  -1 -14  -1    5.70   10.20
  -2 -14  -1    2.70   20.40
  -2 -14  -1    6.00    9.10
  -2 -14  -1    6.10   10.00
   0 -15   2   27.50   11.70
   0 -15   2   20.00    9.40
   0 -15   2   69.09   26.50
   1 -15   2   11.90    9.60
   1 -15   2    1.80   18.30
   1 -15   2    1.80    9.70
   2 -15   2   -7.00    9.50
   2 -15   2   -7.20   18.20
   2 -15   2   12.50   13.00
   3 -15   2    0.40   22.70
   3 -15   2   -5.40   10.50
   4 -15   2   38.80   15.40
   4 -15   2   38.80   24.00
  -4 -14   2   60.19   23.40
  -3 -14   2  120.39   28.90
  -2 -14   2    2.80    7.20
  -2 -14   2   18.50   21.30
  -1 -14   2    4.10   18.60
  -1 -14   2   -0.70    7.70
  -1 -14   2    5.70    7.00
   0 -14   2   11.10    8.30
   0 -14   2   32.50   21.50
   0 -14   2   25.60   10.30
   1 -14   2   29.10   11.10
   1 -14   2   77.89   28.40
   1 -14   2   14.60    8.60
   2 -14   2   48.10   23.30
   2 -14   2   19.40   11.40
   2 -14   2   49.10   12.60
   3 -14   2   10.20    9.70
   3 -14   2   10.20   18.50
   4 -14   2   14.60   10.90
   4 -14   2  -15.70   16.30
   5 -14   2   30.70   22.20
   5 -14   2   44.90   13.90
   6 -14   2  104.99   20.40
   6 -14   2  127.19   32.50
   7 -14   2   29.70   23.10
   7 -14   2   43.50   16.20
  -6 -13   2   47.80   22.80
  -5 -13   2   15.70   18.50
  -4 -13   2   47.80   20.70
  -3 -13   2    3.40    4.90
  -3 -13   2    4.50    5.00
  -2 -13   2   71.69   11.00
  -2 -13   2   43.00   20.40
  -2 -13   2   34.20   10.00
  -1 -13   2    1.80    6.10
  -1 -13   2   -6.50    7.10
  -1 -13   2   36.60   20.80
   0 -13   2   57.39   15.00
   0 -13   2   27.60    8.50
   0 -13   2   43.00   22.10
   1 -13   2    0.70    8.60
   1 -13   2    4.60    7.10
   1 -13   2   14.30   18.30
   2 -13   2    3.70   16.70
   2 -13   2   -0.40    7.40
   2 -13   2    8.40   12.00
   3 -13   2   11.20   17.80
   3 -13   2    3.70    7.60
   3 -13   2   -0.50    7.70
   4 -13   2   56.99   23.70
   4 -13   2   43.30   12.40
   5 -13   2   78.69   16.40
   5 -13   2   95.99   28.50
   6 -13   2   22.20   21.90
   6 -13   2   16.70   13.60
   7 -13   2    6.10   10.00
   7 -13   2  -19.90   19.00
   8 -13   2   25.40   23.30
   8 -13   2   63.49   16.10
  -9  13  -2   24.10   24.20
   9 -13   2   64.09   17.60
  -7 -12   2  161.98   30.30
  -6 -12   2   19.70   18.80
  -4 -12   2    2.90   16.50
  -3 -12   2   33.40   17.60
  -3 -12   2   35.60    6.30
  -3 -12   2   49.00    7.70
  -2 -12   2   16.00   17.70
  -2 -12   2    7.80    5.50
  -2 -12   2    3.50    6.30
  -1 -12   2   53.39   10.00
  -1 -12   2   19.00    6.60
  -1 -12   2   25.90   18.50
   0 -12   2    3.40    7.50
   0 -12   2   -5.50   13.00
   0 -12   2    8.50    6.50
   1 -12   2   22.50   16.60
   1 -12   2   20.60    7.60
   1 -12   2   14.60    8.00
   2 -12   2   12.40   15.60
   2 -12   2   20.30    8.40
   2 -12   2   18.10    9.40
   3 -12   2  180.38   30.30
   3 -12   2  195.88   18.80
   3 -12   2  214.68   20.20
   4 -12   2   20.00   17.20
   4 -12   2   45.60   12.40
   4 -12   2   46.50   12.20
   5 -12   2   33.90   21.40
   5 -12   2   37.40   12.00
   6 -12   2   39.70   12.70
   6 -12   2   29.60   23.10
   7 -12   2   98.59   23.90
   7 -12   2  117.99   32.00
  -8  12  -2  129.09   34.40
   8 -12   2   93.29   19.00
  -9  12  -2  -23.80   16.10
   9 -12   2    0.50    9.60
 -10  12  -2   12.30   22.20
  10 -12   2   39.40   15.90
  -8 -11   2   45.20   20.10
  -7 -11   2  -14.20   14.60
  -6 -11   2   10.60   17.80
  -5 -11   2   67.59   20.50
  -4 -11   2   10.90   16.10
  -3 -11   2   34.30   18.20
  -3 -11   2   17.70    5.10
  -3 -11   2   11.80    5.50
   2  11  -2   93.29   29.20
  -2 -11   2  114.79   10.10
  -2 -11   2  163.48   12.70
  -2 -11   2  134.69   25.70
  -1 -11   2   24.70   19.00
  -1 -11   2   -2.50    4.40
  -1 -11   2   -7.30   12.20
  -1 -11   2    4.40    5.90
   0 -11   2   64.99   19.70
   0 -11   2   39.10    7.90
   0 -11   2   33.90    8.90
   0 -11   2   15.90   15.90
   1 -11   2  592.94   46.10
   1 -11   2  577.84   31.40
   1 -11   2  679.93   35.80
   1 -11   2  636.24   47.20
   2 -11   2  109.19   24.60
   2 -11   2   54.89   11.00
   2 -11   2   50.69   19.10
   2 -11   2   59.59   12.30
   3 -11   2   13.50   14.20
   3 -11   2    5.70    7.60
   3 -11   2    7.10    6.90
   3 -11   2   13.80   15.30
   4 -11   2    1.40   14.30
   4 -11   2   30.10    9.10
   4 -11   2   42.00   11.90
   5 -11   2  319.97   36.90
   5 -11   2  382.06   27.50
   5 -11   2  332.57   25.30
  -6  11  -2   80.29   26.60
   6 -11   2   31.80   11.60
  -7  11  -2   42.60   21.20
   7 -11   2   40.70   13.30
  -8  11  -2   31.90   20.80
   8 -11   2   -4.80    8.00
  -9  11  -2   89.99   32.50
   9 -11   2   49.40   14.70
 -10  11  -2   19.90   20.60
  10 -11   2   13.00   10.50
 -11  11  -2  141.59   35.40
  11 -11   2  157.38   23.50
  -9 -10   2   12.70   17.60
  -8 -10   2   13.70   15.60
  -7 -10   2   20.00   17.20
  -6 -10   2    5.50   15.00
  -5 -10   2   78.29   19.20
   4  10  -2   66.19   28.00
  -4 -10   2   56.39   18.30
   3  10  -2   47.30   21.30
  -3 -10   2   43.90    6.50
  -3 -10   2   38.80   16.30
  -3 -10   2   44.00    6.90
   2  10  -2  -21.10   13.80
  -2 -10   2    5.80    4.50
  -2 -10   2   25.30   14.00
  -2 -10   2    4.90    5.40
  -1 -10   2  263.37   28.60
  -1 -10   2  239.18   16.60
   0 -10   2  405.66   23.30
   0 -10   2  395.26   35.00
   0 -10   2  347.27   54.69
   0 -10   2  395.36   21.60
   1 -10   2    6.30    5.50
   1 -10   2   11.50   13.30
   1 -10   2   -3.20    5.40
   2 -10   2    0.10   12.60
   2 -10   2    8.30    6.10
   2 -10   2   16.60   15.60
   2 -10   2   -5.60    6.10
   3 -10   2  185.38   27.40
   3 -10   2  194.28   25.70
   3 -10   2  198.08   17.00
   3 -10   2  262.37   20.20
   4 -10   2  201.08   32.70
   4 -10   2  195.98   18.10
   4 -10   2  146.09   16.00
   4 -10   2  124.89   21.80
  -5  10  -2   26.20   17.10
   5 -10   2   27.20   13.80
   5 -10   2   14.40    8.50
   5 -10   2    8.40    8.30
  -6  10  -2  135.39   31.20
   6 -10   2  128.29   17.10
  -7  10  -2  -14.10   14.20
   7 -10   2    5.10    8.60
  -8  10  -2  169.68   33.70
   8 -10   2  209.48   22.60
  -9  10  -2   27.30   21.50
   9 -10   2   59.39   14.90
 -10  10  -2    5.00   19.20
  10 -10   2    7.40    9.40
 -11  10  -2   -5.50   18.10
  11 -10   2    5.80   10.40
 -12  10  -2    4.30   22.60
  12 -10   2   -6.60    8.60
 -10  -9   2  -20.40   13.10
  -9  -9   2   -8.20   14.40
  -8  -9   2  -10.60   14.00
  -7  -9   2    0.20   13.80
  -6  -9   2  112.39   22.20
   5   9  -2   18.60   18.20
  -5  -9   2   13.70   14.10
   4   9  -2   28.70   18.80
  -4  -9   2   -3.60   11.50
  -3  -9   2   48.70    5.70
  -3  -9   2   86.39   19.50
  -3  -9   2   47.50    6.20
   2   9  -2  363.16   32.20
  -2  -9   2  333.87   29.40
  -2  -9   2  317.77   16.60
  -2  -9   2  262.87   14.70
   1   9  -2   31.00   16.70
  -1  -9   2    1.40   11.50
  -1  -9   2   22.30    5.00
  -1  -9   2   22.40    6.40
   0  -9   2    2.60   14.10
   0  -9   2   17.80    5.70
   0  -9   2    3.40   10.50
   0  -9   2   20.50    7.70
   1  -9   2  156.48   22.90
   1  -9   2  214.08   14.70
   1  -9   2  203.68   15.50
   1  -9   2  155.28   23.90
   2  -9   2  304.77   19.00
   2  -9   2  302.87   29.30
   2  -9   2  267.47   19.60
   2  -9   2  287.67   29.00
   3  -9   2    2.80    6.20
   3  -9   2   17.70   12.50
   3  -9   2    1.80   12.00
   3  -9   2    4.10    5.40
   4  -9   2   32.60   16.10
   4  -9   2    3.00    5.80
   4  -9   2   12.80    7.70
  -5   9  -2  239.38   30.60
   5  -9   2  223.28   27.60
   5  -9   2  309.97   22.90
   5  -9   2  242.38   25.30
  -6   9  -2   69.69   23.30
   6  -9   2   64.89   16.80
   6  -9   2   48.80   11.50
   6  -9   2   60.99   13.40
  -7   9  -2   16.10   15.40
   7  -9   2   15.20    9.70
  -8   9  -2   -5.40   11.70
   8  -9   2    0.00    7.30
  -9   9  -2  -20.10   11.80
   9  -9   2   -5.90    9.30
 -10   9  -2  -19.40   15.10
  10  -9   2    8.30    9.60
 -11   9  -2  126.29   31.70
  11  -9   2  103.09   20.60
 -12   9  -2    6.90   19.60
  12  -9   2   -0.40    9.30
  11   8  -2   22.80   12.80
  11   8  -2   10.50    6.30
 -11  -8   2    3.70   14.40
  10   8  -2   11.10    6.10
  10   8  -2    9.90    5.40
 -10  -8   2   24.00   18.50
   9   8  -2   95.09    8.30
   9   8  -2  119.09    9.70
  -9  -8   2   61.99   22.80
   8   8  -2   90.09    7.00
  -8  -8   2  136.49   22.20
   7   8  -2   41.00    5.20
  -7  -8   2   48.60   16.00
   6   8  -2  133.59   27.30
  -6  -8   2  140.49   21.80
   5   8  -2   43.10   17.50
  -5  -8   2   48.30   16.30
   4   8  -2  170.08   27.80
  -4  -8   2  121.59   19.30
   3   8  -2  125.29   23.40
  -3  -8   2   78.69    6.50
  -3  -8   2   74.59    5.90
  -3  -8   2  110.99   18.40
   2   8  -2   16.90   12.60
  -2  -8   2   16.30    4.20
  -2  -8   2    9.30    3.40
  -2  -8   2   15.90   11.00
   1   8  -2   -0.90   10.90
  -1  -8   2   22.50   12.20
  -1  -8   2   16.90    4.60
  -1  -8   2    9.50    3.60
   0  -8   2  634.34   40.90
   0  -8   2  577.84   26.80
   0  -8   2  561.44   27.90
   0  -8   2  538.15   38.90
   1  -8   2   31.60   13.80
   1  -8   2   48.80    7.80
   1  -8   2   43.40    8.50
   1  -8   2   77.49   16.90
   2  -8   2    2.50   10.40
   2  -8   2    1.20    3.90
   2  -8   2    2.10    5.10
   2  -8   2    1.40   10.80
   3  -8   2   25.00   12.70
   3  -8   2    3.60    6.30
   3  -8   2    8.10    5.70
   3  -8   2   26.80   13.70
  -4   8  -2  324.57   31.60
   4  -8   2  333.77   21.70
   4  -8   2  316.77   22.40
   4  -8   2  293.77   26.40
  -5   8  -2   16.10   13.00
   5  -8   2   21.70   11.60
   5  -8   2   22.70    8.20
   5  -8   2   16.80    7.50
  -6   8  -2  200.78   26.80
   6  -8   2  213.28   18.70
   6  -8   2  191.38   21.00
   6  -8   2  246.18   20.40
  -7   8  -2   -6.10   12.90
   7  -8   2   10.90    8.60
   7  -8   2    7.20    7.00
   7  -8   2    6.00    9.70
  -8   8  -2   78.29   24.30
   8  -8   2   48.90   13.00
  -9   8  -2    0.30   13.20
   9  -8   2    6.60    8.90
 -10   8  -2  298.57   37.40
  10  -8   2  306.07   27.80
 -11   8  -2  -12.00   14.50
  11  -8   2   10.50   10.10
 -12   8  -2   10.90   17.20
  12  -8   2   10.90   10.80
 -13   8  -2  -10.20   16.80
  13  -8   2   21.10   12.80
  12   7  -2    1.50   11.00
  12   7  -2    4.80    8.40
 -12  -7   2   -8.80   13.50
  11   7  -2   31.50    9.20
  11   7  -2   24.70    8.20
 -11  -7   2   63.19   18.70
  10   7  -2   61.89   10.20
  10   7  -2   68.89    9.60
 -10  -7   2   86.79   19.70
   9   7  -2   13.00    6.40
   9   7  -2   12.10    5.40
  -9  -7   2    6.80   13.30
   8   7  -2   12.50    4.60
  -8  -7   2   16.50   13.40
   7   7  -2    5.70    3.70
   7   7  -2   18.60   17.00
  -7  -7   2   23.30   13.60
   6   7  -2  161.08   24.00
   6   7  -2  135.29    7.70
  -6  -7   2  135.69    8.70
  -6  -7   2  141.89   20.10
   5   7  -2  280.57   28.80
   5   7  -2  257.57   12.70
  -5  -7   2  269.87   11.80
  -5  -7   2  275.97   24.40
   4   7  -2   36.40   13.30
  -4  -7   2   45.50   12.20
   3   7  -2   51.79   15.60
  -3  -7   2   63.89    4.90
  -3  -7   2   88.09   16.70
   2   7  -2   31.00   12.40
  -2  -7   2   48.10   12.80
   1   7  -2  377.76   28.30
  -1  -7   2  355.36   27.90
  -1  -7   2  350.96   17.80
  -1  -7   2  345.97   16.70
   0  -7   2    5.40   11.00
   0  -7   2    7.40    3.80
   0  -7   2    0.70    3.40
   0  -7   2   11.40   11.90
   1  -7   2   -1.50    4.00
   1  -7   2    5.80    4.20
   1  -7   2   41.70   15.80
   1  -7   2    6.60    8.50
   2  -7   2  245.18   23.30
   2  -7   2  202.18   14.80
   2  -7   2  212.18   23.00
   2  -7   2  228.18   16.30
  -3   7  -2  762.42   51.59
   3  -7   2  640.74   39.90
   3  -7   2  676.93   34.20
   3  -7   2  637.04   32.90
  -4   7  -2   18.20   13.00
   4  -7   2    0.40   10.40
   4  -7   2    3.50    8.20
   4  -7   2   -6.50    4.10
  -5   7  -2   87.59   19.30
   5  -7   2   90.99   14.50
   5  -7   2   62.69   14.60
   5  -7   2   89.09   12.00
  -6   7  -2   -7.10    9.20
   6  -7   2    7.20    9.10
   6  -7   2    3.90    5.50
   6  -7   2    6.70    6.00
  -7   7  -2  -15.10    9.80
   7  -7   2   -3.60    5.60
   7  -7   2   -3.40    4.90
   7  -7   2   18.70   10.10
  -8   7  -2   18.60   14.80
   8  -7   2   24.70    9.40
  -9   7  -2  353.16   35.90
   9  -7   2  423.06   30.30
 -10   7  -2    3.00   14.90
  10  -7   2   -3.30    7.40
 -11   7  -2    0.60   12.70
  11  -7   2    8.00    9.70
 -12   7  -2   19.70   16.10
  12  -7   2   18.00   11.10
 -13   7  -2   -0.30   14.60
  13  -7   2   -1.90    8.50
  12   6  -2   20.40   10.10
  12   6  -2   -0.30    7.00
 -12  -6   2   19.30   16.30
  11   6  -2   26.00    9.50
  11   6  -2   22.90    9.40
 -11  -6   2   20.90   15.30
  10   6  -2   55.69   10.10
  10   6  -2   74.39   10.30
   9   6  -2   28.40    7.10
  -9  -6   2   41.60   15.20
   8   6  -2  203.78   13.40
  -8  -6   2  213.88   23.30
   7   6  -2  142.49   10.00
   7   6  -2  133.89   25.20
  -7  -6   2  181.28   20.80
  -7  -6   2  155.58   11.20
   6   6  -2    5.40    3.20
   6   6  -2    7.20   11.70
  -6  -6   2   -1.80    9.20
  -6  -6   2    5.90    3.60
   5   6  -2   49.20    4.50
   5   6  -2   43.90   14.60
  -5  -6   2   61.49    5.30
  -5  -6   2   37.00   11.80
   4   6  -2  275.17   25.20
   4   6  -2  290.17   13.40
  -4  -6   2  278.97   12.10
  -4  -6   2  268.47   26.00
   3   6  -2  195.48   20.80
  -3  -6   2  216.08    9.70
  -3  -6   2  257.97   21.60
   2   6  -2   -3.50    8.60
  -2  -6   2    2.10    2.00
  -2  -6   2    5.40    8.90
   1   6  -2   70.49   15.10
  -1  -6   2   96.79   15.20
  -1  -6   2   68.09    6.80
  -1  -6   2   86.89    6.20
   0   6  -2   51.29   14.00
   0  -6   2   37.70    5.90
   0  -6   2   55.19   13.50
   0  -6   2   40.30    6.30
   1  -6   2   33.30   13.60
   1  -6   2   26.80    6.00
   1  -6   2   47.40   14.60
   1  -6   2   24.40    5.30
   2  -6   2   86.09    9.80
   2  -6   2   98.09   17.80
   2  -6   2  118.69   19.70
  -3   6  -2   28.70   13.50
   3  -6   2   27.40    8.00
   3  -6   2   13.00    5.80
   3  -6   2   34.50   11.80
  -4   6  -2  120.39   18.70
   4  -6   2  131.19   12.70
   4  -6   2  106.89   15.40
  -5   6  -2    2.10    5.00
  -5   6  -2    9.40   10.10
   5  -6   2   -9.10    4.30
   5  -6   2    9.80    8.00
  -6   6  -2   98.49   19.50
  -6   6  -2   75.29   12.20
   6  -6   2  102.19   16.50
   6  -6   2   75.59   11.60
  -7   6  -2   -5.30   10.00
  -7   6  -2   -8.50    5.40
   7  -6   2   -8.90    4.30
   7  -6   2   -4.20    6.70
  -8   6  -2    9.50   12.50
  -8   6  -2   16.10    8.60
   8  -6   2   42.10   11.10
   8  -6   2   30.10   11.50
  -9   6  -2   10.60   13.90
   9  -6   2    3.60    7.60
 -10   6  -2    2.80   12.80
  10  -6   2    9.70    8.70
 -11   6  -2   16.10   14.20
  11  -6   2    3.40    8.70
 -12   6  -2    9.90   16.70
  12  -6   2   -4.60    8.30
 -13   6  -2   56.09   21.00
  13  -6   2    8.50    9.40
  13   5  -2   12.50    9.60
  13   5  -2   11.90   11.00
 -13  -5   2  -10.40   13.30
  12   5  -2    8.20    8.90
  12   5  -2    8.20    8.20
 -12  -5   2   21.60   14.50
  11   5  -2   59.19   10.70
  11   5  -2   38.00    9.80
 -11  -5   2   75.39   19.60
  10   5  -2    4.30    7.20
  10   5  -2   24.70    8.10
 -10  -5   2   33.50   14.60
   9   5  -2   41.80    8.30
  -9  -5   2   44.50   14.80
   8   5  -2   88.09   21.00
   8   5  -2   92.39   10.00
  -8  -5   2  109.69   17.10
  -8  -5   2  125.19   18.40
   7   5  -2  220.88   13.20
   7   5  -2  183.38   27.10
  -7  -5   2  191.78   13.30
  -7  -5   2  239.98   21.20
   6   5  -2   41.80   15.10
   6   5  -2   22.20    4.70
  -6  -5   2   21.20    9.90
  -6  -5   2   28.80    5.50
   5   5  -2  228.38   22.10
   5   5  -2  223.58   11.00
  -5  -5   2  227.48   19.90
  -5  -5   2  204.48   11.20
   4   5  -2  200.98    9.40
   4   5  -2  266.07   22.00
  -4  -5   2  236.28   19.90
  -4  -5   2  207.88   10.00
   3   5  -2    1.10    1.40
   3   5  -2    1.80    7.70
  -3  -5   2    4.70    8.50
   2   5  -2   -7.30    7.40
  -2  -5   2   12.70    2.10
  -2  -5   2   21.90   10.00
   1   5  -2   37.30   13.00
  -1  -5   2   27.90    4.40
  -1  -5   2   28.80   11.10
  -1  -5   2   30.10    4.00
   0   5  -2    1.30   10.70
   0  -5   2   11.40    3.70
   0  -5   2    7.10    3.40
   0  -5   2    3.30    8.90
   1  -5   2   73.29    8.10
   1  -5   2   91.09   14.50
   1  -5   2   78.49    7.90
  -2   5  -2    7.10    5.70
  -2   5  -2   41.40   14.60
   2  -5   2    4.50    5.50
   2  -5   2   23.20   10.40
  -3   5  -2  129.29   11.60
  -3   5  -2  124.79   17.20
   3  -5   2  122.39   15.30
   3  -5   2  103.89   11.00
  -4   5  -2   -5.30    7.80
  -4   5  -2   -8.00    3.50
   4  -5   2    7.10    7.20
   4  -5   2   -1.70    4.50
  -5   5  -2  693.63   43.30
  -5   5  -2  704.33   35.70
   5  -5   2  681.43   36.90
   5  -5   2  689.63   35.60
  -6   5  -2   -0.90    5.10
  -6   5  -2   27.40   11.80
   6  -5   2   24.80    8.30
   6  -5   2    3.30    6.70
  -7   5  -2   35.60    9.30
  -7   5  -2   23.70   12.40
   7  -5   2    3.80    6.30
   7  -5   2   19.30    8.80
  -8   5  -2    0.80    6.60
  -8   5  -2   -2.80    9.80
   8  -5   2   -2.60    5.00
   8  -5   2    2.40    6.50
  -9   5  -2  227.88   25.70
   9  -5   2  209.58   20.60
 -10   5  -2    9.10   12.70
  11  -5   2   48.80   15.10
 -12   5  -2  -20.50    8.80
  12  -5   2    1.80    8.70
 -13   5  -2   73.29   23.90
  13  -5   2   94.89   20.30
  13   4  -2    4.20   13.20
  13   4  -2    9.00    9.70
 -13  -4   2   25.50   16.80
  12   4  -2   60.79   13.00
  12   4  -2   95.69   14.90
 -12  -4   2   67.19   18.20
  11   4  -2   66.99   12.50
  11   4  -2   54.49   11.60
 -11  -4   2   48.00   18.10
  10   4  -2  101.19   17.50
 -10  -4   2   71.99   17.00
   9   4  -2   19.00    6.80
  -9  -4   2    0.10    6.60
  -9  -4   2   21.20   11.20
   8   4  -2   14.90   12.30
   8   4  -2    5.50    5.10
  -8  -4   2   26.30   11.70
  -8  -4   2    6.80    5.70
   7   4  -2   23.10    5.70
   7   4  -2   25.90   12.30
  -7  -4   2   25.50    6.00
  -7  -4   2   22.20    9.90
   6   4  -2  746.23   32.00
   6   4  -2  761.02   43.00
  -6  -4   2  728.43   39.00
  -6  -4   2  713.23   32.30
   5   4  -2   52.29   13.00
   5   4  -2   60.79    5.80
  -5  -4   2   44.80    6.00
  -5  -4   2   61.79   12.10
   4   4  -2   24.20   10.10
   4   4  -2   43.50    4.30
  -4  -4   2   51.69   11.40
  -4  -4   2   47.40    4.60
   3   4  -2   18.10    2.10
   3   4  -2   20.60    9.70
  -3  -4   2   19.40    9.10
  -3  -4   2   22.40    2.60
   2   4  -2  308.47   21.90
  -2  -4   2  310.17   21.30
   1   4  -2    6.10    8.80
  -1  -4   2    4.70    2.60
  -1  -4   2    8.80    7.90
  -1  -4   2    0.30    2.00
   0   4  -2  197.38   17.90
   0  -4   2  185.68   17.70
   0  -4   2  196.38   10.60
   0  -4   2  189.98   10.80
  -1   4  -2    3.40    3.50
   1  -4   2    2.00    8.10
   1  -4   2    0.30    8.10
   1  -4   2    0.70    3.20
  -2   4  -2 1485.95   68.39
  -2   4  -2 1565.94   62.59
   2  -4   2 1538.35   67.29
   2  -4   2 1497.65   62.19
  -3   4  -2   39.90    9.70
  -3   4  -2   78.79   13.00
   3  -4   2   40.00    8.10
   3  -4   2   82.09   11.90
  -4   4  -2 1099.39   48.20
  -4   4  -2 1024.90   51.99
   4  -4   2 1077.99   47.80
   4  -4   2 1044.80   49.10
  -5   4  -2   52.19   13.20
  -5   4  -2   27.60    7.60
   5  -4   2   15.40    6.20
   5  -4   2   20.60    7.80
  -6   4  -2    9.30    8.80
  -6   4  -2    0.10    4.30
   6  -4   2    4.50    6.20
   6  -4   2    4.90    5.40
  -7   4  -2   -1.50    6.90
  -7   4  -2   -3.40    4.90
   7  -4   2    2.40    6.00
   7  -4   2   -1.20    5.30
  -8   4  -2  333.77   24.90
  -8   4  -2  369.96   28.80
   8  -4   2  362.86   25.10
   8  -4   2  348.87   25.20
  -9   4  -2   -0.60    9.70
  -9   4  -2    1.00    7.60
   9  -4   2   -4.10    5.70
   9  -4   2    1.80    6.90
 -10   4  -2  141.39   22.40
  10  -4   2  150.48   18.40
 -11   4  -2    6.50   12.60
  11  -4   2   11.90    8.70
 -12   4  -2  131.49   27.40
  12  -4   2  135.69   19.50
 -13   4  -2    6.10   14.00
  13  -4   2   24.00   12.50
 -14   4  -2   37.70   21.30
  14  -4   2  100.79   20.80
  13   3  -2   10.00   10.30
 -13  -3   2   10.60   12.30
  12   3  -2  118.59   17.20
  12   3  -2  144.19   16.80
 -12  -3   2   81.29   19.30
  11   3  -2   -1.10    7.50
  11   3  -2   -0.90    7.30
 -11  -3   2   -2.20   10.50
  10   3  -2   22.30    8.20
  10   3  -2   22.50    8.20
 -10  -3   2   13.20   11.60
   9   3  -2   38.90    8.80
   9   3  -2   35.60   15.70
  -9  -3   2   35.50   13.00
  -9  -3   2   18.80    8.30
   8   3  -2   80.09   10.00
   8   3  -2   73.39   16.70
  -8  -3   2   49.30    9.40
   7   3  -2  119.99   17.40
   7   3  -2  104.59   10.40
  -7  -3   2  116.29   18.80
  -7  -3   2  129.59   15.70
   6   3  -2   14.70    4.70
   6   3  -2   26.60    9.90
  -6  -3   2   31.60   11.70
  -6  -3   2   17.90    5.00
   5   3  -2   49.30   11.50
   5   3  -2   48.30    6.40
  -5  -3   2   85.49   13.90
  -5  -3   2   48.90    6.30
   4   3  -2   79.39   12.30
   4   3  -2   42.40    5.10
  -4  -3   2   49.30    9.80
  -4  -3   2   41.50    5.40
   3   3  -2    8.90    2.30
   3   3  -2   24.20    9.40
  -3  -3   2   12.10    7.80
   2   3  -2    1.50    6.80
  -2  -3   2    7.20    6.40
   1   3  -2  334.97   21.40
  -1  -3   2  331.37   13.60
  -1  -3   2  347.97   13.60
  -1  -3   2  351.16   21.50
   0   3  -2   -0.30    7.30
   0   3  -2   -1.80    2.60
   0  -3   2    1.40    2.70
   0  -3   2    4.30    7.00
  -1   3  -2 1037.80   42.50
  -1   3  -2 1051.39   48.50
   1  -3   2 1056.69   42.40
   1  -3   2 1010.90   47.70
  -2   3  -2   15.20    9.50
  -2   3  -2    9.50    5.50
   2  -3   2   33.60    9.40
   2  -3   2   26.00    5.70
  -3   3  -2   74.69   12.40
  -3   3  -2   56.49    8.20
   3  -3   2   77.79   11.80
   3  -3   2   51.19    7.90
  -4   3  -2   20.00    9.00
  -4   3  -2   16.30    5.80
   4  -3   2   13.10    6.00
   4  -3   2   32.50    8.70
  -5   3  -2   57.39   10.40
  -5   3  -2   42.00   10.50
   5  -3   2   67.09   10.80
   5  -3   2   42.50    8.90
  -6   3  -2    3.70    5.10
  -6   3  -2    6.00    9.30
   6  -3   2   11.10    7.00
   6  -3   2   14.60    6.90
  -7   3  -2  863.61   47.10
  -7   3  -2  931.41   45.50
   7  -3   2  860.21   44.40
   7  -3   2  933.11   44.70
  -8   3  -2   16.10   10.80
  -8   3  -2    2.50    6.00
   8  -3   2    3.10   12.30
   8  -3   2   10.10    6.50
  -9   3  -2   95.49   18.40
  -9   3  -2   92.29   15.50
   9  -3   2   88.09   13.80
   9  -3   2   66.49   12.90
 -10   3  -2    3.60   10.90
  10  -3   2   17.30    8.80
 -11   3  -2   87.89   20.40
  11  -3   2   92.49   16.60
 -12   3  -2   21.80   13.90
  12  -3   2    0.50    8.10
 -13   3  -2    3.90   12.40
  13  -3   2    7.00    9.80
 -14   3  -2    3.80   14.50
  14  -3   2   -7.20   10.40
  14   2  -2   11.60   11.00
 -14  -2   2   -4.30   10.40
  13   2  -2    6.00    9.60
 -13  -2   2   -7.70    9.60
  12   2  -2   24.90   10.50
  12   2  -2   24.10    9.90
 -12  -2   2   42.30   14.30
  11   2  -2   54.29   11.80
  11   2  -2   49.90   12.40
 -11  -2   2   70.39   17.20
  10   2  -2  145.99   15.80
  10   2  -2  172.68   16.40
 -10  -2   2  175.38   20.50
   9   2  -2  117.79   21.90
  -9  -2   2  151.88   18.00
   8   2  -2  251.37   27.40
   8   2  -2  275.47   18.50
  -8  -2   2  305.37   19.30
  -8  -2   2  247.88   21.50
   7   2  -2   -1.10    3.90
   7   2  -2    7.30    8.60
  -7  -2   2    3.00    4.40
  -7  -2   2    1.60    6.90
   6   2  -2  191.48   18.00
   6   2  -2  178.48   12.70
  -6  -2   2  200.88   16.60
  -6  -2   2  152.48   12.40
   5   2  -2  118.29   10.30
   5   2  -2  153.78   15.40
  -5  -2   2  172.98   14.80
  -5  -2   2  113.79   10.40
   4   2  -2   21.60    4.30
   4   2  -2   25.80   14.70
  -4  -2   2   22.20    7.70
  -4  -2   2   32.40    5.10
   3   2  -2    2.50    2.90
   3   2  -2    6.10    2.90
   3   2  -2   15.10    7.40
  -3  -2   2    2.70    6.40
   2   2  -2 1487.85   60.29
   2   2  -2 1415.06   54.19
  -2  -2   2 1420.96   59.39
   1   2  -2    6.20    1.50
   1   2  -2   12.20    6.00
  -1  -2   2    9.20    6.30
  -1  -2   2   11.90    1.80
   0   2  -2 5151.78  199.28
   0  -2   2 5316.27  199.58
  -1   2  -2    4.50    6.70
  -1   2  -2    0.40    2.90
   1  -2   2    7.40    3.40
   1  -2   2    2.00    6.40
  -2   2  -2  545.75   24.70
  -2   2  -2  505.65   27.10
   2  -2   2  534.75   26.40
   2  -2   2  554.54   24.70
  -3   2  -2    3.10    4.30
  -3   2  -2    8.50    6.40
   3  -2   2   -0.30    4.10
   3  -2   2    3.10    5.30
  -4   2  -2  443.26   26.00
  -4   2  -2  417.46   24.30
   4  -2   2  429.06   22.90
  -5   2  -2    4.00    5.20
  -5   2  -2   10.40    7.00
   5  -2   2   10.20    6.10
   5  -2   2   16.00    7.10
  -6   2  -2  412.56   26.80
  -6   2  -2  459.35   26.10
   6  -2   2  443.46   25.80
   6  -2   2  469.05   26.00
  -7   2  -2    2.20    7.60
  -7   2  -2    6.40    6.00
   7  -2   2    9.90    7.50
   7  -2   2    9.70    5.90
  -8   2  -2  603.34   36.30
  -8   2  -2  594.24   34.60
   8  -2   2  595.34   34.10
   8  -2   2  650.13   38.50
  -9   2  -2   52.99   14.40
  -9   2  -2   59.89   13.30
   9  -2   2   63.69   14.50
   9  -2   2   57.99   12.10
 -10   2  -2  202.08   22.70
  10  -2   2  172.18   18.60
 -11   2  -2    9.90   10.40
  11  -2   2   -3.40    8.00
 -12   2  -2   68.49   19.50
  12  -2   2  154.68   19.70
 -13   2  -2   15.70   14.70
  13  -2   2   12.50   10.60
 -14   2  -2   55.09   19.40
  14  -2   2   32.30   13.40
  14   1  -2   -3.70   14.20
 -14  -1   2   31.30   15.70
  13   1  -2  113.19   18.00
 -13  -1   2   92.79   20.20
  12   1  -2   51.29   12.80
 -12  -1   2   40.90   16.40
  11   1  -2   93.79   14.90
  11   1  -2  109.39   15.30
 -11  -1   2  116.79   21.00
  10   1  -2   28.70    9.60
  10   1  -2    7.60    7.20
 -10  -1   2   26.50   11.70
   9   1  -2   11.10    7.00
   9   1  -2   14.20   10.30
   9   1  -2   12.30    6.60
  -9  -1   2   -7.00    6.80
   8   1  -2   88.19   11.50
   8   1  -2   60.19   13.40
  -8  -1   2  106.99   14.40
   7   1  -2  829.72   42.90
   7   1  -2  804.62   38.20
  -7  -1   2  778.22   40.20
  -7  -1   2  814.72   38.10
   6   1  -2   37.60    7.80
   6   1  -2   28.00    9.70
  -6  -1   2   48.70   10.00
   5   1  -2    2.80    3.80
   5   1  -2   -2.30    6.20
  -5  -1   2    4.50    4.40
  -5  -1   2    6.50    6.40
   4   1  -2   16.70    7.50
   4   1  -2    2.40    3.60
   4   1  -2    7.70    4.20
  -4  -1   2    3.30    5.60
   3   1  -2   63.19    9.60
   3   1  -2   78.79    6.70
   3   1  -2   73.09    6.70
  -3  -1   2   67.59    9.30
   2   1  -2   25.10    6.10
   2   1  -2   22.20    3.40
  -2  -1   2   22.10    3.50
  -2  -1   2   28.60    6.30
   1   1  -2  116.39    8.70
   1   1  -2  117.99    5.70
  -1  -1   2  123.59    6.30
  -1  -1   2  110.79    8.40
   0   1  -2   10.80    4.20
   0   1  -2    6.30    2.00
   0  -1   2    5.80    1.80
   0  -1   2    0.80    3.40
  -1   1  -2    9.30    3.00
  -1   1  -2   18.90    5.70
   1  -1   2   11.20    3.30
   1  -1   2   10.70    4.50
  -2   1  -2   41.00    6.40
  -2   1  -2   62.89    8.20
   2  -1   2   42.60    6.50
   2  -1   2   59.29    7.50
  -3   1  -2 5448.05  207.08
  -3   1  -2 5535.35  206.78
   3  -1   2 5395.76  206.18
   3  -1   2 5395.46  206.38
  -4   1  -2    7.20    5.10
  -4   1  -2   18.60    6.80
   4  -1   2   25.00    6.60
   4  -1   2   23.10    6.70
  -5   1  -2  494.75   25.80
  -5   1  -2  444.36   26.00
   5  -1   2  485.75   25.60
   5  -1   2  476.45   25.30
  -6   1  -2    3.50    5.60
  -6   1  -2   39.20   10.00
   6  -1   2   22.60    6.80
   6  -1   2   39.50    9.50
  -7   1  -2  986.50   46.70
  -7   1  -2  962.20   47.40
   7  -1   2  910.71   46.10
   7  -1   2  972.10   46.20
  -8   1  -2   76.59   14.70
  -8   1  -2   57.39   11.50
   8  -1   2   72.79   11.70
   8  -1   2   67.79   14.10
  -9   1  -2   45.40   14.00
  -9   1  -2   25.40    9.60
   9  -1   2   28.60   11.70
   9  -1   2   33.00    9.40
 -10   1  -2    7.60   10.70
 -10   1  -2    7.20    8.40
  10  -1   2    0.80    7.30
 -11   1  -2  102.29   19.70
  11  -1   2  117.29   16.70
 -12   1  -2   12.40   12.00
  12  -1   2   14.80   10.10
 -13   1  -2   33.10   17.10
  13  -1   2   26.70   11.40
 -14   1  -2    3.80   14.40
  14  -1   2    3.80   11.00
  14   0  -2   25.80   12.50
 -14   0   2   59.39   17.00
  13   0  -2   72.29   15.20
 -13   0   2   75.39   19.30
  12   0  -2    6.20    8.60
 -12   0   2   23.10   12.90
  11   0  -2   -0.50    6.60
  11   0  -2    9.40    8.50
 -11   0   2    6.60   10.30
  10   0  -2    1.00    6.40
  10   0  -2   10.20   13.60
 -10   0   2    4.50    9.10
   9   0  -2   12.20    7.00
   9   0  -2   29.90    8.80
   9   0  -2   13.50   10.10
  -9   0   2    6.30    7.70
   8   0  -2   15.80    6.90
   8   0  -2   21.20    9.70
   8   0  -2   26.20   10.40
  -8   0   2   13.30    8.80
   7   0  -2    5.40    5.20
   7   0  -2    4.90    5.30
   7   0  -2   20.90    8.70
  -7   0   2   10.80    7.60
   6   0  -2    0.80    4.30
   6   0  -2   -1.50    3.90
   6   0  -2   -1.70    5.80
  -6   0   2    3.80    6.20
   5   0  -2   46.00   10.20
   5   0  -2   22.80    6.10
   5   0  -2   32.60    7.00
  -5   0   2   37.10    7.70
   4   0  -2  299.07   15.40
   4   0  -2  245.78   15.10
   4   0  -2  259.07   16.80
  -4   0   2  249.28   15.90
   3   0  -2   10.60    4.00
   3   0  -2    0.20    3.70
   3   0  -2    2.00    5.70
  -3   0   2   11.00    5.60
   2   0  -2   43.80    6.50
   2   0  -2   39.00    5.10
  -2   0   2   42.60    5.00
  -2   0   2   41.20    5.90
   1   0  -2    2.70    1.70
   1   0  -2    5.90    2.90
  -1   0   2    6.90    2.20
  -1   0   2    6.90    2.50
   0   0  -2   69.79    4.50
   0   0   2   75.29    4.80
   0   0   2   67.49    4.50
   0   0   2   67.79    4.40
  -1   0  -2   -1.10    2.60
  -1   0  -2    0.10    2.30
   1   0   2    1.80    2.50
   1   0   2    2.80    2.30
  -2   0  -2   41.70    6.20
  -2   0  -2   42.10    6.40
   2   0   2   53.09    6.60
   2   0   2   37.90    6.30
  -3   0  -2    5.40    5.50
  -3   0  -2    0.10    3.80
   3   0   2    2.80    4.50
   3   0   2    3.20    4.10
  -4   0  -2  106.49   10.70
  -4   0  -2  107.09   10.20
   4   0   2  127.29   10.20
   4   0   2  113.69   11.00
  -5   0  -2  311.27   19.20
  -5   0  -2  285.97   18.40
   5   0   2  267.37   17.60
   5   0   2  328.87   19.70
  -6   0  -2   19.70    7.40
  -6   0  -2   41.00    9.20
   6   0   2   13.70    6.00
   6   0   2   14.10    7.40
  -7   0  -2   -1.60    4.80
  -7   0  -2   -3.70    5.90
   7   0   2    2.50    5.80
   7   0   2   -0.50    7.90
  -8   0  -2   19.50    8.40
  -8   0  -2   -1.10    6.90
   8   0   2    8.30    6.90
   8   0   2   22.50   10.60
  -9   0  -2   40.20   12.20
  -9   0  -2   44.40   13.70
   9   0   2   54.29   14.40
   9   0   2   68.09   12.10
 -10   0  -2   30.50   13.30
 -10   0  -2   27.50   11.20
  10   0   2   29.70   11.20
 -11   0  -2   -4.40   10.10
  11   0   2   17.40    9.90
 -12   0  -2   18.90   13.10
  12   0   2   38.00   12.70
 -13   0  -2   -6.70   11.00
  13   0   2    5.10   10.40
  14  -1  -2    2.20    9.70
 -14   1   2    2.50   12.60
  13  -1  -2   12.10    9.60
 -13   1   2    3.70   12.10
  12  -1  -2   13.20    8.90
 -12   1   2   34.40   12.50
  11  -1  -2   27.60    9.50
  11  -1  -2   30.10   14.70
 -11   1   2   -8.30    8.80
  10  -1  -2   -7.10    5.80
  10  -1  -2    6.80    6.80
 -10   1   2    1.40    8.10
   9  -1  -2   -0.30    6.30
   9  -1  -2   -0.10    6.80
   9  -1  -2    4.40    6.30
  -9   1   2    2.80    7.00
   8  -1  -2   -5.50    5.80
   8  -1  -2   -3.80    4.50
   8  -1  -2   -8.10    5.00
  -8   1   2    1.00    6.70
   7  -1  -2  362.36   22.50
   7  -1  -2  373.46   23.20
   7  -1  -2  375.56   24.30
  -7   1   2  406.36   24.70
   6  -1  -2   11.00    5.90
   6  -1  -2   12.00    5.40
   6  -1  -2   25.50    8.30
  -6   1   2   25.40    8.40
   5  -1  -2   49.80    8.10
   5  -1  -2   62.29    8.80
   5  -1  -2   73.49   11.50
  -5   1   2   66.09   11.30
   4  -1  -2    3.00    4.10
   4  -1  -2   -3.30    3.60
   4  -1  -2    4.50    5.00
  -4   1   2    6.20    5.90
   3  -1  -2  449.86   21.50
   3  -1  -2  450.35   21.50
  -3   1   2  425.16   21.50
  -3   1   2  468.25   21.70
   2  -1  -2    7.60    4.00
   2  -1  -2    4.30    3.40
  -2   1   2    4.20    3.90
  -2   1   2   -0.40    3.20
   0  -1  -2   10.60    2.80
   0   1   2    8.80    2.70
  -1  -1  -2    0.10    2.40
  -1  -1  -2    2.00    2.90
   1   1   2    2.50    2.60
   1   1   2   -1.20    3.30
  -2  -1  -2   23.90    5.10
  -2  -1  -2   26.60    5.50
   2   1   2   21.30    4.50
   2   1   2   30.90    6.20
  -3  -1  -2  860.91   37.30
  -3  -1  -2  882.61   37.30
   3   1   2  875.31   36.90
  -4  -1  -2   75.59    9.40
  -4  -1  -2   74.59    8.50
   4   1   2   63.59    8.20
  -5  -1  -2  747.83   34.70
  -5  -1  -2  700.93   34.60
   5   1   2  719.73   33.60
   5   1   2  730.43   35.90
  -6  -1  -2   27.50    7.50
  -6  -1  -2   13.80    5.90
   6   1   2   15.70    6.10
   6   1   2   20.80    8.60
  -7  -1  -2  152.98   15.80
  -7  -1  -2  131.69   13.80
   7   1   2  158.78   13.80
   7   1   2  149.09   16.50
  -8  -1  -2    2.00    6.50
  -8  -1  -2    4.90    7.50
   8   1   2    7.80    6.10
   8   1   2   18.00   10.50
  -9  -1  -2  439.56   29.50
  -9  -1  -2  469.35   31.20
   9   1   2  461.95   33.40
   9   1   2  511.65   29.20
 -10  -1  -2    0.40    8.20
 -10  -1  -2    7.90    9.70
  10   1   2   -1.60    6.90
 -11  -1  -2  117.89   19.00
  11   1   2  101.59   15.40
 -12  -1  -2    6.10   12.70
  12   1   2   -2.10    8.30
 -13  -1  -2   25.60   15.80
  13   1   2   35.70   17.00
  14  -2  -2  180.08   22.70
 -14   2   2  140.59   24.20
  13  -2  -2    3.70    9.30
 -13   2   2   -4.50    9.30
  12  -2  -2    8.10    9.90
 -12   2   2   15.60   12.30
  11  -2  -2   -7.40    5.70
 -11   2   2   -7.40    7.60
  10  -2  -2   14.10    7.80
  10  -2  -2    3.50    6.40
 -10   2   2    2.90    9.60
   9  -2  -2    6.70    8.90
   9  -2  -2   -5.10    5.00
   9  -2  -2   -1.20    6.40
  -9   2   2    2.70    7.20
   8  -2  -2  510.45   29.60
   8  -2  -2  496.85   30.90
   8  -2  -2  541.65   30.90
  -8   2   2  539.75   32.10
   7  -2  -2   29.70    9.20
   7  -2  -2   34.30    8.30
  -7   2   2   26.50    8.70
   6  -2  -2  476.25   26.00
   6  -2  -2  486.95   26.90
   6  -2  -2  467.65   26.20
  -6   2   2  471.65   27.20
   5  -2  -2    1.90    4.90
   5  -2  -2   -4.80    3.80
   5  -2  -2   -2.50    4.10
  -5   2   2   -2.30    4.90
   4  -2  -2  187.68   13.30
   4  -2  -2  200.18   13.70
   4  -2  -2  187.78   13.70
  -4   2   2  203.18   14.30
   3  -2  -2   22.80    5.60
   3  -2  -2   26.40    6.10
  -3   2   2   25.30    6.70
  -3   2   2   19.10    5.50
   2  -2  -2 1875.51   73.99
   2  -2  -2 1885.81   73.19
  -2   2   2 1902.21   74.09
  -2   2   2 1855.11   73.99
   1  -2  -2    6.70    4.50
   1  -2  -2    6.20    3.60
  -1   2   2    0.50    3.00
  -1   2   2    8.30    5.20
   0  -2  -2   -1.60    3.90
   0  -2  -2    6.30    3.20
   0   2   2    6.90    5.10
   0   2   2    0.50    3.10
  -1  -2  -2   29.60    4.70
  -1  -2  -2   30.20    5.70
   1   2   2   19.60    4.20
   1   2   2   27.60    6.20
  -2  -2  -2 1631.24   66.59
  -2  -2  -2 1727.33   66.29
   2   2   2 1640.54   67.59
   2   2   2 1755.52   66.19
  -3  -2  -2    2.40    3.90
  -3  -2  -2    7.10    5.00
   3   2   2    7.20    5.40
   3   2   2    8.00    3.90
  -4  -2  -2   33.90    7.80
  -4  -2  -2   24.40    5.90
   4   2   2   21.90    8.30
   4   2   2   36.00    6.40
  -5  -2  -2    3.50    5.60
  -5  -2  -2   -3.60    3.70
   5   2   2   -2.10    3.70
   5   2   2    0.20    7.40
  -6  -2  -2  516.75   29.00
  -6  -2  -2  514.25   27.90
   6   2   2  586.64   27.70
   6   2   2  500.55   30.90
  -7  -2  -2   17.60    7.00
  -7  -2  -2   23.30    9.50
   7   2   2   10.80    5.90
   7   2   2   12.10    9.80
  -8  -2  -2    2.60    8.60
  -8  -2  -2   36.40    9.30
   8   2   2   41.50    9.30
  -9  -2  -2    6.40    7.50
  -9  -2  -2    9.80    9.30
   9   2   2   -2.10    6.10
   9   2   2  -12.40    9.90
 -10  -2  -2   23.60   12.80
 -10  -2  -2   26.60   10.60
  10   2   2   22.30   10.20
 -11  -2  -2   37.10   14.80
  11   2   2   23.10    9.90
 -12  -2  -2   51.79   17.20
  12   2   2   31.20   12.00
 -13  -2  -2   -8.40   11.90
  13   2   2   11.70   11.10
  14  -3  -2   43.50   15.40
 -14   3   2   42.30   16.40
  13  -3  -2  113.79   19.80
 -13   3   2   55.19   18.80
  12  -3  -2    7.30    8.60
 -12   3   2   14.80   13.80
  11  -3  -2   36.40   12.30
 -11   3   2   21.70   11.90
  10  -3  -2    4.60    7.10
  10  -3  -2    5.10    6.70
 -10   3   2   -5.50    8.60
   9  -3  -2  237.78   20.80
   9  -3  -2  256.67   21.70
   9  -3  -2  236.18   19.60
  -9   3   2  228.18   22.10
   8  -3  -2   15.80    7.20
   8  -3  -2   15.90    9.10
   8  -3  -2    4.60    6.90
  -8   3   2    9.30    8.70
   7  -3  -2  544.15   30.30
   7  -3  -2  550.24   31.10
   7  -3  -2  557.54   30.60
  -7   3   2  515.55   31.40
   6  -3  -2   20.50    7.00
   6  -3  -2    4.60    6.00
   6  -3  -2    8.20    5.20
  -6   3   2   14.00    8.00
   5  -3  -2  406.36   23.50
   5  -3  -2  410.16   23.10
   5  -3  -2  404.16   22.60
  -5   3   2  396.06   24.20
   4  -3  -2    5.80    4.40
   4  -3  -2   -0.40    3.80
   4  -3  -2   -0.90    4.30
  -4   3   2    1.20    5.60
   3  -3  -2    2.70    4.20
   3  -3  -2    6.00    5.10
  -3   3   2    8.40    6.20
  -3   3   2    7.90    4.60
   2  -3  -2   17.30    6.00
   2  -3  -2   14.60    4.90
  -2   3   2   18.00    5.10
  -2   3   2   25.00    8.20
   1  -3  -2    1.90    6.30
   1  -3  -2   -1.30    3.30
  -1   3   2    1.00    3.50
  -1   3   2   -3.10    6.40
   0  -3  -2   33.70    5.40
   0  -3  -2   43.10    8.20
   0   3   2   40.20    5.80
   0   3   2   52.79    9.10
  -1  -3  -2  288.97   16.60
  -1  -3  -2  306.87   14.90
   1   3   2  303.97   14.90
   1   3   2  295.67   17.40
  -2  -3  -2    1.70    4.90
  -2  -3  -2    1.00    3.10
   2   3   2    4.90    5.80
   2   3   2   -0.10    3.30
  -3  -3  -2  346.87   17.60
  -3  -3  -2  313.97   18.80
   3   3   2  351.46   21.20
   3   3   2  344.57   17.20
  -4  -3  -2   12.70    5.20
  -4  -3  -2   21.60    7.50
   4   3   2    1.40    6.30
   4   3   2   12.10    4.40
  -5  -3  -2   33.60    7.40
  -5  -3  -2   16.80    7.20
   5   3   2   16.40    5.50
   5   3   2    6.50    8.30
  -6  -3  -2  113.99   12.00
   6   3   2  135.29   16.70
   6   3   2  114.49   10.80
  -7  -3  -2   33.10   10.60
  -7  -3  -2   28.80    8.30
   7   3   2   21.00   11.80
   7   3   2   34.00    8.10
  -8  -3  -2   16.30    8.20
  -8  -3  -2   18.20    9.70
   8   3   2   15.70    6.70
   8   3   2    3.90   12.30
  -9  -3  -2    9.30   10.40
  -9  -3  -2    6.40    8.10
   9   3   2   -5.40   13.70
   9   3   2    2.40    6.00
 -10  -3  -2   47.40   13.70
 -10  -3  -2   43.80   11.90
  10   3   2   48.70   11.10
 -11  -3  -2   -2.60   10.20
  11   3   2   11.90    9.10
 -12  -3  -2   -8.30   11.00
  12   3   2    2.00    8.80
 -13  -3  -2   12.60   13.20
  13   3   2    1.90    9.70
  14  -4  -2   27.70   13.30
 -14   4   2   18.50   15.30
  13  -4  -2    0.60    8.60
 -13   4   2   -4.60   10.30
  12  -4  -2   30.60   15.40
 -12   4   2   37.00   15.90
  11  -4  -2    5.40    7.70
 -11   4   2    6.20   11.20
  10  -4  -2   61.89   15.00
 -10   4   2   44.70   16.00
   9  -4  -2    0.10    6.40
   9  -4  -2   -5.70    6.40
   9  -4  -2   14.50    8.30
  -9   4   2   -5.80    7.90
   8  -4  -2   62.99   19.10
   8  -4  -2   88.29   15.70
   8  -4  -2   84.99   14.70
  -8   4   2   71.09   15.50
   7  -4  -2    0.50    4.70
   7  -4  -2    0.90    5.70
   7  -4  -2   -1.90    4.10
  -7   4   2    4.60    7.10
   6  -4  -2    8.70    5.60
   6  -4  -2    0.50    4.80
   6  -4  -2    1.50    5.90
  -6   4   2   -6.10    6.10
   5  -4  -2    0.90    5.30
   5  -4  -2   -1.50    5.10
   5  -4  -2   -2.70    4.10
  -5   4   2    6.10    7.60
   4  -4  -2   75.69    9.70
   4  -4  -2   89.19   10.50
   4  -4  -2   65.99    9.40
  -4   4   2   85.09   11.90
   3  -4  -2   36.10    7.80
   3  -4  -2   20.10    5.70
  -3   4   2   18.20    5.60
  -3   4   2   37.30   10.30
   2  -4  -2  356.76   20.70
   2  -4  -2  362.06   19.50
  -2   4   2  380.46   23.00
  -2   4   2  361.96   19.60
   1  -4  -2  112.39   12.80
   1  -4  -2  120.09    9.40
   1  -4  -2  128.19   13.40
  -1   4   2  118.69    9.50
   0  -4  -2   10.70    7.40
   0  -4  -2   14.80    4.40
   0   4   2   -2.90    3.20
   0   4   2   16.20    7.60
  -1  -4  -2    5.00    5.80
  -1  -4  -2    3.90    3.50
   1   4   2   12.10    7.20
   1   4   2    7.80    3.60
  -2  -4  -2  415.66   19.70
  -2  -4  -2  409.56   22.40
   2   4   2  394.66   19.40
   2   4   2  430.56   24.40
  -3  -4  -2   81.19   10.70
  -3  -4  -2   66.49    7.30
   3   4   2   58.09   11.20
   3   4   2   53.49    6.70
  -4  -4  -2  348.17   21.00
  -4  -4  -2  311.67   17.80
   4   4   2  294.47   22.40
   4   4   2  347.67   17.80
  -5  -4  -2   71.19    9.40
  -5  -4  -2   77.69   12.00
   5   4   2   93.19   15.30
   5   4   2   79.39    8.50
  -6  -4  -2   19.10    7.00
  -6  -4  -2   28.40   10.00
   6   4   2   29.30    7.00
   6   4   2   27.90   12.80
  -7  -4  -2   25.70    7.60
  -7  -4  -2   33.90   10.80
   7   4   2   27.30    7.00
   7   4   2   27.90   13.80
  -8  -4  -2  130.69   18.00
  -8  -4  -2  135.89   15.10
   8   4   2  151.78   15.90
   8   4   2  104.99   21.80
  -9  -4  -2   -1.40    9.50
  -9  -4  -2   -0.90    7.40
   9   4   2    7.50    7.40
 -10  -4  -2  -16.10    8.20
 -10  -4  -2    7.90   10.30
  10   4   2  -10.80    6.10
 -11  -4  -2    5.90   10.80
 -11  -4  -2    6.10   12.00
  11   4   2    7.00    8.90
 -12  -4  -2   18.50   14.60
  12   4   2   22.80   11.00
  14  -5  -2   -3.50    9.90
 -14   5   2   -9.40   13.00
  13  -5  -2  153.88   21.90
 -13   5   2  158.08   26.90
  12  -5  -2    2.00    8.70
 -12   5   2    1.70   12.40
  11  -5  -2   27.80   12.40
 -11   5   2   26.40   15.30
  10  -5  -2    1.30    7.20
 -10   5   2   -0.50   11.00
   9  -5  -2  221.08   20.70
   9  -5  -2  249.28   22.60
  -9   5   2  298.47   26.80
   8  -5  -2   -5.00    5.30
   8  -5  -2   -2.60    4.60
   8  -5  -2    2.40    8.00
  -8   5   2   14.00   11.20
   7  -5  -2  855.71   43.60
   7  -5  -2  876.61   45.40
   7  -5  -2  842.32   43.00
  -7   5   2  900.21   48.40
   6  -5  -2    9.10    7.10
   6  -5  -2    8.90    6.10
   6  -5  -2    3.80    5.30
   5  -5  -2  155.38   17.30
   5  -5  -2  175.28   14.60
   5  -5  -2  148.39   14.00
  -5   5   2  171.28   17.70
   4  -5  -2    6.90    6.40
   4  -5  -2    2.40    4.70
  -4   5   2   29.70   10.50
  -4   5   2   21.40    6.60
   3  -5  -2 1664.83   68.89
   3  -5  -2 1541.65   71.99
  -3   5   2 1659.13   68.89
  -3   5   2 1688.63   73.49
   2  -5  -2   85.29    9.50
   2  -5  -2   97.79   12.60
  -2   5   2   66.49    9.00
  -2   5   2   86.09   15.20
   1  -5  -2   -4.20    7.90
   1  -5  -2    5.90    7.60
   1  -5  -2   10.10    4.50
  -1   5   2   -1.80    3.50
   0  -5  -2   18.10    7.80
   0  -5  -2   27.40    5.40
   0   5   2   25.20    5.50
  -1  -5  -2 1354.66   54.39
  -1  -5  -2 1323.77   58.49
   1   5   2 1259.57   59.29
   1   5   2 1391.76   54.79
  -2  -5  -2  120.69   12.60
  -2  -5  -2  115.29    9.20
   2   5   2  127.89    9.50
   2   5   2  125.49   15.00
  -3  -5  -2   44.80    9.80
  -3  -5  -2   39.10    6.80
   3   5   2   49.90    6.60
   3   5   2   47.50   11.70
  -4  -5  -2    9.80    7.20
  -4  -5  -2   -1.20    4.50
   4   5   2    2.90    8.40
   4   5   2    4.70    4.30
  -5  -5  -2    4.60    5.30
  -5  -5  -2   -6.10    7.00
   5   5   2    4.10    4.40
   5   5   2    2.00    8.50
  -6  -5  -2   26.10   10.40
  -6  -5  -2   39.90    9.10
   6   5   2   36.30    7.60
   6   5   2   49.99   15.70
  -7  -5  -2  133.69   17.30
  -7  -5  -2  135.39   14.40
   7   5   2  149.99   13.00
   7   5   2  147.29   31.90
  -8  -5  -2   -8.50    9.20
  -8  -5  -2    8.00    7.60
   8   5   2   -5.00   14.10
  -9  -5  -2   11.10    9.50
  -9  -5  -2   10.10   12.30
   9   5   2    4.90    6.60
 -10  -5  -2    7.30   13.40
 -10  -5  -2   14.90   15.50
  10   5   2   17.60    9.00
 -11  -5  -2   39.30   15.80
 -11  -5  -2    5.70   11.50
  11   5   2   21.00    9.60
 -12  -5  -2   20.90   14.10
  12   5   2   12.30    9.70
 -14   6   2   41.00   20.80
  13  -6  -2    2.20    9.80
 -13   6   2   10.20   14.50
  12  -6  -2   39.10   15.40
 -12   6   2   60.29   20.60
  11  -6  -2   -0.90    7.30
 -11   6   2   17.30   15.70
  10  -6  -2  336.27   27.20
 -10   6   2  270.57   29.60
   9  -6  -2    5.60    8.40
  -9   6   2   -9.30    9.00
   8  -6  -2  244.18   20.70
   8  -6  -2  275.37   23.00
   8  -6  -2  273.97   21.60
  -8   6   2  263.57   26.00
   7  -6  -2   23.70    8.90
   7  -6  -2   19.20    9.10
   7  -6  -2    7.60    6.40
  -7   6   2   27.70   12.40
   6  -6  -2   41.70    9.30
   6  -6  -2    9.60    6.80
   6  -6  -2   42.60   10.90
  -6   6   2   29.10   12.50
   5  -6  -2   15.30    7.70
   5  -6  -2   12.70    7.90
   5  -6  -2   11.00    6.10
  -5   6   2   -5.70    9.00
   4  -6  -2  571.24   30.20
   4  -6  -2  538.65   40.40
   4  -6  -2  582.54   31.10
  -4   6   2  543.95   34.90
   3  -6  -2    1.60    4.40
   3  -6  -2    0.10    5.70
  -3   6   2   -1.10    8.40
  -3   6   2    6.40    5.20
   2  -6  -2  128.29   19.60
   2  -6  -2   91.59   15.80
   2  -6  -2   86.09    9.60
  -2   6   2   92.69   10.20
   1  -6  -2  163.88   17.50
   1  -6  -2  170.58   12.50
   1  -6  -2  220.68   19.50
  -1   6   2  164.18   12.90
   0  -6  -2  109.99   17.70
   0  -6  -2  104.69   14.00
   0  -6  -2   67.89    9.60
   0   6   2  108.69    9.60
  -1  -6  -2    5.20    3.60
  -1  -6  -2   -1.70    6.70
   1   6   2    9.10    4.70
  -2  -6  -2   54.79    7.10
  -2  -6  -2   57.39   12.40
   2   6   2   65.09   13.70
   2   6   2   44.40    6.90
  -3  -6  -2    1.50    3.90
  -3  -6  -2   12.10    7.50
   3   6   2    4.20    3.70
   3   6   2   -2.50    6.80
  -4  -6  -2   12.30    9.30
  -4  -6  -2   17.00    8.30
   4   6   2    1.90    9.50
   4   6   2   -1.20    3.90
  -5  -6  -2  197.98   14.90
  -5  -6  -2  207.38   19.20
   5   6   2  216.28   14.20
   5   6   2  210.08   23.30
  -6  -6  -2   13.30   10.90
  -6  -6  -2   11.30    6.80
   6   6   2   18.70   14.70
   6   6   2    8.90    6.00
  -7  -6  -2  -10.10    6.00
  -7  -6  -2   -7.20    9.60
   7   6   2    8.20   15.70
   7   6   2   11.00    6.30
  -8  -6  -2    2.00    7.80
  -8  -6  -2   -0.90   10.30
   8   6   2   14.30    9.20
  -9  -6  -2  286.47   26.80
  -9  -6  -2  221.18   20.90
   9   6   2  250.37   19.10
 -10  -6  -2   10.20   11.30
  10   6   2   -3.90    7.10
 -11  -6  -2    8.40   13.30
 -11  -6  -2   37.20   14.60
  11   6   2   18.40   10.20
  13  -7  -2   85.59   21.30
 -13   7   2   50.79   21.40
  12  -7  -2   -8.60    6.60
 -12   7   2    6.60   13.30
  11  -7  -2  108.29   21.30
 -11   7   2   36.80   17.70
  10  -7  -2   -2.60    6.90
 -10   7   2   15.80   14.60
   9  -7  -2   22.10   10.60
  -9   7   2   10.20   12.40
   8  -7  -2   -5.20    5.50
   8  -7  -2    4.60    7.90
  -8   7   2  -10.50   10.20
   7  -7  -2   86.99   13.50
   7  -7  -2   88.79   14.50
  -7   7   2  108.19   23.50
   6  -7  -2   -3.90    6.60
   6  -7  -2   15.90    7.70
   6  -7  -2    8.30    7.60
  -6   7   2   19.00   12.70
   5  -7  -2  170.18   16.30
   5  -7  -2  149.39   14.90
   5  -7  -2  160.08   16.00
  -5   7   2  178.98   21.40
   4  -7  -2    8.90    6.70
   4  -7  -2    0.10    4.30
   4  -7  -2   -1.00    5.00
  -4   7   2   -0.60    8.90
   3  -7  -2   70.89    9.90
   3  -7  -2   35.60   11.00
  -3   7   2   51.19   11.20
   2  -7  -2  132.69   17.40
   2  -7  -2  125.79   12.20
   2  -7  -2  141.99   17.10
  -2   7   2  122.99   12.30
   1  -7  -2  132.29   11.40
   1  -7  -2  126.09   17.40
   1  -7  -2  115.79   16.40
  -1   7   2  139.69   12.10
   0  -7  -2    7.10    8.50
   0  -7  -2    4.90   10.90
   0  -7  -2   -3.00    3.60
   0   7   2    0.90    4.40
  -1  -7  -2   69.49   13.40
  -1  -7  -2   54.59    7.60
   1   7   2   70.69    8.70
   1   7   2   71.29   16.00
  -2  -7  -2   81.99    8.80
  -2  -7  -2   82.89   13.90
   2   7   2   93.29   15.80
   2   7   2   76.09    9.00
  -3  -7  -2    2.80    8.80
  -3  -7  -2    4.20    4.60
   3   7   2   -2.60    3.80
   3   7   2    3.10    9.80
  -4  -7  -2  132.09   16.40
  -4  -7  -2  126.79   11.60
   4   7   2  121.29   10.60
   4   7   2   98.09   20.20
  -5  -7  -2    6.40   10.60
  -5  -7  -2   -1.70    6.20
   5   7   2    4.50    5.20
   5   7   2    5.00   13.50
  -6  -7  -2   29.00    8.70
  -6  -7  -2   64.09   14.80
   6   7   2   43.80    8.20
  -7  -7  -2   32.90   13.40
   7   7   2   11.00    6.70
   7   7   2   14.40   17.00
  -8  -7  -2  202.38   19.10
  -8  -7  -2  259.97   25.40
   8   7   2  178.18   16.70
  -9  -7  -2   31.10   16.40
  -9  -7  -2    3.30    9.60
   9   7   2    6.90    8.00
 -10  -7  -2   -2.90   10.30
 -10  -7  -2   -7.00   13.60
  10   7   2   -1.10    8.20
 -11  -7  -2  -16.80   12.60
 -11  -7  -2    6.10   13.30
  11   7   2   13.20   10.20
  13  -8  -2   17.90   12.60
 -13   8   2   28.00   19.50
  12  -8  -2   88.99   19.80
 -12   8   2   91.39   26.20
  11  -8  -2    4.00    8.70
 -11   8   2   14.80   17.40
  10  -8  -2   73.49   17.80
 -10   8   2   62.09   21.10
   9  -8  -2   12.40    9.40
  -9   8   2    8.90   14.70
   8  -8  -2  353.66   27.90
   8  -8  -2  322.17   30.70
  -8   8   2  345.47   33.70
   7  -8  -2    9.80    7.90
   7  -8  -2   15.90    9.00
  -7   8   2   45.40   16.70
   6  -8  -2   44.80   12.10
   6  -8  -2   32.30   10.40
   6  -8  -2   23.30    8.20
  -6   8   2   37.70   16.90
   5  -8  -2   52.29   12.10
   5  -8  -2   67.69   12.70
   5  -8  -2   35.00   11.90
  -5   8   2   85.69   20.10
   4  -8  -2  530.35   32.60
   4  -8  -2  490.35   29.60
   4  -8  -2  573.14   32.00
  -4   8   2  483.15   36.90
   3  -8  -2   44.70   15.90
   3  -8  -2   46.60   12.80
   3  -8  -2   56.19    9.90
  -3   8   2   51.99   10.20
   2  -8  -2  536.55   36.90
   2  -8  -2  601.94   30.60
   2  -8  -2  595.04   36.80
   1  -8  -2   24.50   12.00
   1  -8  -2   11.70   11.60
   1  -8  -2   19.10    6.30
  -1   8   2   12.40    6.10
   0  -8  -2  248.78   25.80
   0  -8  -2  268.67   23.60
   0  -8  -2  284.07   17.20
   0   8   2  271.87   17.90
  -1  -8  -2   82.79    9.10
  -1  -8  -2   78.49   15.00
   1   8   2   94.39   18.80
   1   8   2  102.69   10.50
  -2  -8  -2  220.48   21.10
  -2  -8  -2  215.68   14.60
   2   8   2  215.48   14.90
   2   8   2  199.48   23.60
  -3  -8  -2   24.50    6.40
  -3  -8  -2   23.60   10.80
   3   8   2   18.60    5.70
   3   8   2   43.20   16.40
  -4  -8  -2   -4.60    5.70
  -4  -8  -2   18.40   10.80
   4   8   2   -1.10   13.90
   4   8   2   21.60    6.30
  -5  -8  -2   60.89   10.10
  -5  -8  -2   86.09   17.60
   5   8   2   79.89   10.20
   5   8   2   70.79   22.60
  -6  -8  -2  111.09   13.60
  -6  -8  -2  142.69   19.40
   6   8   2  108.39   11.50
   6   8   2  120.79   28.00
  -7  -8  -2   12.40   12.50
   7   8   2   16.90    7.30
  -8  -8  -2   12.00    9.80
  -8  -8  -2   42.20   16.10
   8   8   2   39.00    9.10
  -9  -8  -2   23.80   11.50
   9   8   2   46.40   11.30
 -10  -8  -2   54.79   18.30
 -10  -8  -2   54.29   14.60
  10   8   2   34.60   10.20
  12  -9  -2   13.00   10.60
 -12   9   2   -1.20   15.70
  11  -9  -2   40.80   12.80
 -11   9   2   41.10   20.50
  10  -9  -2   27.20   12.50
 -10   9   2   24.40   22.10
   9  -9  -2  125.49   22.50
  -9   9   2  129.69   30.10
   8  -9  -2   70.09   15.40
  -8   9   2   77.59   22.30
   7  -9  -2  128.99   17.80
   7  -9  -2   74.69   15.70
  -7   9   2  102.19   25.50
   6  -9  -2  -13.00    6.20
   6  -9  -2   -9.00    5.50
  -6   9   2   13.00   15.80
   5  -9  -2  179.88   17.70
   5  -9  -2  206.48   19.50
   5  -9  -2  152.88   18.60
  -5   9   2  158.18   23.90
   4  -9  -2   47.10   13.90
   4  -9  -2   46.90   11.20
   4  -9  -2   57.09   18.40
   4  -9  -2   58.29   13.70
   3  -9  -2    1.10    5.90
   3  -9  -2   -6.90   11.00
   3  -9  -2   -2.90    8.30
   2  -9  -2  258.27   25.00
   2  -9  -2  192.88   16.60
   2  -9  -2  242.78   25.00
  -2   9   2  197.58   17.60
   1  -9  -2   20.50    7.10
   1  -9  -2   29.20   14.20
   1  -9  -2   31.80   18.50
  -1   9   2   31.00    9.20
   0  -9  -2   71.49   18.10
   0  -9  -2  134.09   25.80
   0  -9  -2   83.99   10.50
   0   9   2   96.79   11.80
  -1  -9  -2   -1.60   13.80
  -1  -9  -2    5.50   10.90
  -1  -9  -2   10.90    6.40
   1   9   2    5.70    6.10
  -2  -9  -2  108.79   18.10
  -2  -9  -2   77.99   10.50
   2   9   2   95.59   21.90
   2   9   2   87.19   11.20
  -3  -9  -2    7.60    6.40
  -3  -9  -2   11.10   10.10
   3   9   2   -4.90   14.00
   3   9   2    5.00    5.80
  -4  -9  -2  288.87   25.50
  -4  -9  -2  247.98   17.80
   4   9   2  232.38   31.70
   4   9   2  245.38   16.90
  -5  -9  -2   -5.70    6.10
  -5  -9  -2   18.10   13.60
   5   9   2   16.00   18.50
   5   9   2    9.80    6.50
  -6  -9  -2    7.80    8.20
  -6  -9  -2   10.80   13.50
   6   9   2   10.80    7.00
   6   9   2    9.70   24.30
  -7  -9  -2    9.30   13.70
   7   9   2   10.50    7.70
  -8  -9  -2   29.50   16.10
  -8  -9  -2   31.70   11.20
   8   9   2   41.80    9.70
  -9  -9  -2   10.30   10.60
  -9  -9  -2   -0.10   14.90
   9   9   2   -1.90   10.80
  11 -10  -2   -2.90    7.30
 -11  10   2    6.80   18.30
  10 -10  -2    0.80   11.00
 -10  10   2  -11.80   14.00
   9 -10  -2    9.70   10.70
  -9  10   2   11.30   16.00
   8 -10  -2   14.90   17.80
  -8  10   2   29.80   18.90
   7 -10  -2   33.70   12.00
  -7  10   2    8.60   14.40
   6 -10  -2   28.10   11.50
   6 -10  -2    2.50    8.60
  -6  10   2   55.39   20.90
   5 -10  -2   37.20   16.40
   5 -10  -2   47.30   13.00
   5 -10  -2   41.10   12.70
   4 -10  -2  147.59   25.50
   4 -10  -2  197.48   18.10
   4 -10  -2  148.69   18.30
   4 -10  -2  175.78   26.40
   3 -10  -2   10.60    8.20
   3 -10  -2    7.80    5.90
   3 -10  -2   -1.70   11.80
   3 -10  -2   16.00   12.80
   2 -10  -2   27.50   16.20
   2 -10  -2   10.80   14.40
   2 -10  -2   16.80    7.80
  -2  10   2   27.10    9.10
   1 -10  -2   -0.40    5.80
   1 -10  -2   10.90   13.10
   1 -10  -2    8.00   12.60
  -1  10   2    0.70    6.50
   0 -10  -2   34.80    7.90
   0 -10  -2   47.30   17.50
   0 -10  -2   48.90   16.40
   0  10   2   42.30   10.20
  -1 -10  -2   79.29   10.80
  -1 -10  -2   66.69   21.10
  -1 -10  -2   74.09   18.50
   1  10   2   85.19   12.60
  -2 -10  -2    7.40   13.00
  -2 -10  -2   12.00    7.10
   2  10   2   17.90   17.60
   2  10   2   13.80    7.10
  -3 -10  -2  153.88   21.40
  -3 -10  -2  123.69   13.50
   3  10   2  105.69   32.30
   3  10   2  147.19   13.80
  -4 -10  -2   56.89   16.90
  -4 -10  -2   43.30    9.90
   4  10   2   42.40    8.80
   4  10   2   63.59   25.30
  -5 -10  -2   16.00    8.60
  -5 -10  -2   17.00   14.10
   5  10   2    5.70    6.60
   5  10   2   -6.60   22.10
  -6 -10  -2   34.80   10.30
  -6 -10  -2   54.59   17.10
   6  10   2   39.00    8.50
  -7 -10  -2  106.69   21.90
  -7 -10  -2   43.20   12.00
   7  10   2  100.29   12.00
  -8 -10  -2    2.70   15.70
  -8 -10  -2    9.70   10.10
   8  10   2   -5.20    6.40
 -11  11   2   66.19   29.40
  10 -11  -2   -6.10    8.70
 -10  11   2   -1.10   16.80
   9 -11  -2  102.09   20.80
  -9  11   2  174.78   37.00
   8 -11  -2   14.00   10.50
  -8  11   2   19.10   19.90
  -7  11   2   10.20   16.80
   6 -11  -2   26.30   12.90
   6 -11  -2   35.70   19.40
   5 -11  -2   45.50   20.20
   5 -11  -2   51.69   15.20
   5 -11  -2   27.30   13.10
   4 -11  -2   36.40   17.60
   4 -11  -2   10.40    8.70
   4 -11  -2   10.20   13.00
   3 -11  -2  116.29   15.60
   3 -11  -2  120.69   16.80
   3 -11  -2  149.88   25.20
   3 -11  -2  138.09   22.20
   2 -11  -2   17.60   17.20
   2 -11  -2    1.10    7.30
   2 -11  -2    3.90    7.40
   2 -11  -2   -9.90   12.70
   1 -11  -2   -2.40    5.90
   1 -11  -2   -3.20   11.40
  -1  11   2    3.00    7.40
   0 -11  -2    5.60   13.40
   0 -11  -2   15.90    8.10
   0 -11  -2    7.70   28.10
   0  11   2   17.20    8.20
  -1 -11  -2  254.97   18.70
  -1 -11  -2  262.37   28.30
  -1 -11  -2  215.78   31.20
   1  11   2  277.57   20.10
  -2 -11  -2   21.60    7.80
  -2 -11  -2   30.80   15.70
  -2 -11  -2   42.50   20.10
  -3 -11  -2    2.40    7.00
  -3 -11  -2    5.40   12.50
   3  11   2   -1.90   20.40
   3  11   2    7.00    7.50
  -4 -11  -2   16.10   14.30
  -4 -11  -2    0.30    7.70
   4  11   2   12.30    8.00
  -5 -11  -2   40.80   18.40
  -5 -11  -2   19.50    9.60
   5  11   2   15.60    8.00
  -6 -11  -2   14.40    9.80
  -6 -11  -2   26.80   16.70
   6  11   2   29.00    9.30
  -7 -11  -2   -9.70   15.90
  -7 -11  -2   -0.50    9.50
   7  11   2   -8.10    6.90
   9 -12  -2   -0.50    9.30
  -9  12   2   -0.90   16.60
   8 -12  -2   -4.50    9.60
  -8  12   2   -2.40   16.40
   7 -12  -2   22.80   11.50
   7 -12  -2   14.80   19.10
   6 -12  -2   45.30   23.20
   5 -12  -2   31.50   19.50
   5 -12  -2   35.00   12.50
   4 -12  -2   68.09   22.30
   4 -12  -2   24.10   10.00
   3 -12  -2    5.70    8.90
   3 -12  -2   44.80   20.40
   3 -12  -2   34.30   17.60
   2 -12  -2   -5.00   13.00
   2 -12  -2    9.40    8.60
   2 -12  -2   17.10   10.20
   2 -12  -2   42.10   18.50
   1 -12  -2   37.30   19.10
   1 -12  -2   14.10    9.40
   1 -12  -2   21.60   16.60
   1 -12  -2   39.60   10.40
   0 -12  -2   27.50    9.40
   0 -12  -2   31.00   18.70
   0 -12  -2   16.00   17.40
  -1 -12  -2    0.80    7.10
  -1 -12  -2    7.70   17.40
  -1 -12  -2   19.30   15.80
   1  12   2    7.00    7.70
  -2 -12  -2   -0.10    7.50
  -2 -12  -2   10.70   13.70
   2  12   2  -10.70    7.60
  -3 -12  -2   26.00   16.60
  -3 -12  -2   25.20    9.50
   3  12   2   35.90   17.30
  -4 -12  -2   -9.20   13.20
  -4 -12  -2   -3.40    8.60
   4  12   2    3.80    8.00
  -5 -12  -2   -2.70    9.20
  -5 -12  -2   34.30   18.30
   5  12   2   14.30    8.30
   8 -13  -2    9.60   12.00
   8 -13  -2   -4.70   18.60
   7 -13  -2   -4.10   10.70
   7 -13  -2    3.70   16.60
   6 -13  -2   67.29   17.20
   5 -13  -2   26.90   13.20
   5 -13  -2   -1.80   15.90
   4 -13  -2   -3.00    8.20
   4 -13  -2    3.80   16.90
   3 -13  -2   20.20   11.50
   3 -13  -2   -5.40   15.50
   2 -13  -2   49.99   14.10
   2 -13  -2   39.80   20.10
   1 -13  -2    7.30    8.50
   1 -13  -2    2.40    8.00
   1 -13  -2   22.10   19.20
   0 -13  -2   41.70   11.90
   0 -13  -2   16.20   16.70
   0 -13  -2    6.60    8.80
  -1 -13  -2   -5.30   15.80
  -1 -13  -2   -7.80    9.50
  -1 -13  -2    3.20   10.30
  -2 -13  -2   67.19   13.20
  -2 -13  -2   90.99   21.10
  -3 -13  -2    0.90    9.40
  -3 -13  -2   29.90   18.00
  -4 -13  -2    9.80   18.50
  -4 -13  -2   -0.60    9.30
   5 -14  -2   -4.20   10.90
   5 -14  -2   14.70   20.20
   4 -14  -2   36.60   14.90
   3 -14  -2   43.80   23.20
   3 -14  -2   29.50   13.50
   2 -14  -2    3.80   10.40
   2 -14  -2  -21.10   14.10
   1 -14  -2   38.10   13.40
   1 -14  -2   50.79   23.50
   0 -14  -2   57.79   14.80
   0 -14  -2   34.50   12.20
   0 -14  -2   40.50   20.30
  -1 -14  -2   16.30   11.40
  -1 -14  -2   35.70   13.30
  -1 -14  -2   21.50   19.50
  -1 -15   3   33.90    9.20
  -1 -15   3   49.99   11.10
  -1 -15   3   49.60   26.40
   0 -15   3    1.20    7.80
   0 -15   3    8.50    9.80
   0 -15   3  -11.90   17.80
   1 -15   3    7.60   13.30
   1 -15   3    1.00   22.70
   1 -15   3   11.50   10.10
   2 -15   3   13.30   11.00
   2 -15   3   25.80   11.60
   2 -15   3   16.50   23.80
   3 -15   3   22.70   11.70
   3 -15   3   45.10   26.10
   4 -15   3   39.70   14.90
   4 -15   3   39.20   28.50
  -4 -14   3   61.59   26.00
  -3 -14   3   37.80   21.40
  -2 -14   3   36.50   23.50
  -2 -14   3   17.90    7.00
  -2 -14   3   19.90    6.40
  -1 -14   3    0.80   18.60
  -1 -14   3    9.60    6.80
  -1 -14   3    7.90    7.80
   0 -14   3   13.60    7.80
   0 -14   3    5.30   18.90
   0 -14   3   30.70   11.40
   1 -14   3    2.60    8.20
   1 -14   3    7.60   19.30
   1 -14   3   20.20    9.60
   2 -14   3   46.00   25.20
   2 -14   3   41.90   11.20
   2 -14   3   47.60   12.90
   3 -14   3   25.30   11.70
   3 -14   3   22.50   12.80
   3 -14   3   25.60   21.50
   4 -14   3   14.40   11.20
   4 -14   3    8.50   20.00
   5 -14   3   15.50   20.30
   5 -14   3    0.00   10.50
   6 -14   3   10.40   20.70
   6 -14   3   -1.40    9.50
   7 -14   3  103.19   34.50
   7 -14   3   52.49   16.10
  -6 -13   3   -4.00   18.30
  -5 -13   3  107.49   27.80
  -4 -13   3   25.50   19.90
  -3 -13   3    0.10   18.20
  -2 -13   3   -2.50   16.80
  -2 -13   3    5.90    5.00
  -2 -13   3   11.80    6.40
  -1 -13   3   69.39   24.00
  -1 -13   3   51.59   10.10
  -1 -13   3   57.09    9.10
   0 -13   3   31.80    8.60
   0 -13   3   -8.60   13.80
   0 -13   3   28.80    9.90
   1 -13   3   30.80   20.60
   1 -13   3   30.40    9.70
   1 -13   3   36.00    9.60
   2 -13   3   14.70    8.40
   2 -13   3    1.20    7.50
   2 -13   3   -7.60   17.00
   3 -13   3   -3.00    7.80
   3 -13   3    4.70   19.70
   3 -13   3   -1.70    7.50
   4 -13   3   -7.80    7.60
   5 -13   3  112.59   17.80
   5 -13   3  112.39   30.40
   6 -13   3   31.80   23.10
   6 -13   3   34.80   13.30
   7 -13   3   42.50   26.90
   7 -13   3   34.40   13.40
   8 -13   3   14.30   24.10
   8 -13   3    1.20    9.40
  -9  13  -3   18.10   20.70
   9 -13   3    8.60   11.60
  -7 -12   3  -25.50   16.20
  -6 -12   3   80.69   24.20
  -5 -12   3   44.70   21.40
  -4 -12   3   -4.20   16.60
  -3 -12   3   53.89   21.80
  -2 -12   3  114.19   27.00
  -2 -12   3   51.69    7.30
  -2 -12   3   76.49    9.20
  -1 -12   3   10.50    6.60
  -1 -12   3   -7.80   15.80
  -1 -12   3   14.30    6.00
   0 -12   3   -9.70   13.10
   0 -12   3    7.60    6.80
   0 -12   3    0.80    5.10
   1 -12   3    2.40    7.80
   1 -12   3    1.30   17.60
   1 -12   3    0.60    6.70
   2 -12   3   44.90   21.90
   2 -12   3   26.60    9.00
   2 -12   3   51.49   11.50
   3 -12   3  174.18   21.00
   3 -12   3  283.97   34.90
   3 -12   3  213.88   19.80
   4 -12   3  183.98   18.40
   4 -12   3  155.88   31.30
   4 -12   3  196.68   19.60
   5 -12   3   15.70   21.20
   5 -12   3   18.60    9.70
   6 -12   3   13.00   10.00
   7 -12   3  228.18   42.40
  -8  12  -3   44.50   24.80
   8 -12   3   79.79   17.80
  -9  12  -3   30.60   24.70
   9 -12   3   12.40   10.80
 -10  12  -3  -14.90   18.10
  10 -12   3    5.50   10.60
  -8 -11   3   26.10   17.80
  -7 -11   3   13.50   17.50
  -5 -11   3   21.70   17.10
  -4 -11   3   -0.90   14.20
  -3 -11   3   10.90    6.80
  -3 -11   3   -2.90   15.20
  -2 -11   3   94.99    8.50
  -2 -11   3   96.29    9.50
  -2 -11   3  115.89   23.80
  -1 -11   3    8.90    5.20
  -1 -11   3   12.40   17.70
  -1 -11   3   -0.50   14.30
  -1 -11   3   10.20    6.30
   0 -11   3  166.08   26.60
   0 -11   3  190.98   33.50
   0 -11   3  165.68   13.30
   0 -11   3  155.48   14.40
   1 -11   3  130.39   28.70
   1 -11   3  171.08   15.80
   1 -11   3  125.49   25.90
   1 -11   3  162.68   14.30
   2 -11   3  156.08   30.70
   2 -11   3  128.29   13.90
   2 -11   3  121.29   14.80
   2 -11   3  111.99   27.20
   3 -11   3   17.50   17.10
   3 -11   3   -2.90    6.00
   3 -11   3   15.20    8.30
   4 -11   3   41.10   10.60
   4 -11   3   31.90    9.40
   4 -11   3    9.60   15.50
   5 -11   3   33.60   10.70
   5 -11   3   47.10   11.60
   5 -11   3   24.70   18.40
  -6  11  -3  335.27   40.60
   6 -11   3  355.86   27.70
  -7  11  -3   14.60   18.40
   7 -11   3    8.80    9.90
  -8  11  -3    5.80   18.10
   8 -11   3   -4.40    7.40
  -9  11  -3   36.10   22.30
   9 -11   3    3.80    9.20
 -10  11  -3   67.99   29.00
  10 -11   3   38.50   14.60
 -11  11  -3   49.50   26.70
  11 -11   3   32.60   14.70
  -9 -10   3    6.50   18.20
  -8 -10   3  -15.30   12.40
  -7 -10   3   -7.00   17.90
  -6 -10   3    9.90   15.90
  -5 -10   3   17.20   14.70
  -4 -10   3  100.99   23.20
   3  10  -3    2.50   17.20
  -3 -10   3    7.70    5.90
  -3 -10   3    5.80   14.30
   2  10  -3   -1.30   16.80
  -2 -10   3   13.00   14.00
  -2 -10   3   11.30    4.00
  -2 -10   3    8.60    4.50
   1  10  -3   17.30   18.60
  -1 -10   3   13.30    5.60
  -1 -10   3    8.90    5.00
  -1 -10   3    6.80   14.80
   0 -10   3  447.46   24.40
   0 -10   3  427.26   23.10
   0 -10   3  460.45   39.60
   0 -10   3  495.75   39.10
   1 -10   3    0.60    5.20
   1 -10   3    2.20   12.90
   1 -10   3   24.30   16.50
   1 -10   3    7.20    6.00
   2 -10   3   16.70    6.90
   2 -10   3   10.80   13.20
   2 -10   3   46.90   18.10
   2 -10   3   16.70    8.30
   3 -10   3   30.00   18.50
   3 -10   3   -3.10    6.50
   3 -10   3   18.70   15.60
   3 -10   3   20.30    7.90
   4 -10   3   93.69   24.20
   4 -10   3  152.18   23.00
   4 -10   3  103.99   14.10
   4 -10   3  130.29   15.30
  -5  10  -3   37.10   18.80
   5 -10   3   17.50    8.40
   5 -10   3   12.40    8.60
  -6  10  -3   30.40   19.20
   6 -10   3   31.20   11.10
  -7  10  -3   24.90   20.50
   7 -10   3    5.10    8.10
  -8  10  -3  100.39   29.90
   8 -10   3  109.89   17.80
  -9  10  -3  324.57   40.90
   9 -10   3  317.67   28.40
 -10  10  -3   -0.90   17.40
  10 -10   3    0.70    9.50
 -11  10  -3   37.30   24.60
  11 -10   3   -3.50    8.80
 -10  -9   3    3.60   16.00
  -9  -9   3  -13.70   13.10
  -8  -9   3  -10.10   18.90
  -7  -9   3   13.40   14.80
  -6  -9   3    0.30   14.00
   5   9  -3  151.08   30.00
  -5  -9   3   90.99   18.90
   4   9  -3   10.50   15.50
  -4  -9   3   20.50   15.00
   3   9  -3  115.69   26.40
  -3  -9   3   73.79   19.00
   2   9  -3  268.07   30.50
  -2  -9   3  372.66   31.90
  -2  -9   3  353.36   16.50
  -2  -9   3  331.77   15.70
   1   9  -3  378.16   33.00
  -1  -9   3  327.97   17.20
  -1  -9   3  376.56   32.00
  -1  -9   3  339.47   18.20
   0  -9   3    4.60    4.80
   0  -9   3    0.30    3.80
   0  -9   3   10.30   11.60
   0  -9   3    7.30   13.50
   1  -9   3   82.39   18.40
   1  -9   3   37.20    7.40
   1  -9   3   32.70    7.00
   1  -9   3   18.20   13.60
   2  -9   3  456.65   36.40
   2  -9   3  430.66   35.30
   2  -9   3  434.76   25.30
   2  -9   3  415.46   24.30
   3  -9   3   67.59   10.50
   3  -9   3   80.29   19.20
   3  -9   3   80.29   20.20
   3  -9   3   51.09   10.40
   4  -9   3   22.80   14.60
   4  -9   3   48.10   16.70
   4  -9   3   40.80   10.60
   4  -9   3   53.89   11.10
  -5   9  -3   11.90   14.30
   5  -9   3   20.30   14.20
   5  -9   3   -4.00    6.00
   5  -9   3    1.80    8.70
  -6   9  -3  509.85   43.90
   6  -9   3  476.05   30.50
   6  -9   3  517.25   32.40
   6  -9   3  463.25   42.30
  -7   9  -3    3.80   13.60
   7  -9   3    4.50    7.70
  -8   9  -3   28.20   19.50
   8  -9   3    9.00    8.50
 -10   9  -3   -8.50   16.90
  10  -9   3    0.00    7.70
 -11   9  -3   -4.20   15.60
  11  -9   3    4.10    9.70
 -12   9  -3  120.69   32.50
  12  -9   3   67.39   17.60
  11   8  -3    5.10    5.50
  11   8  -3   11.60    5.00
 -11  -8   3    0.10   14.80
  10   8  -3   10.80    4.00
  10   8  -3   14.60    4.80
 -10  -8   3   -3.70   13.30
  -9  -8   3   26.60   17.10
  -8  -8   3  262.67   28.30
  -7  -8   3   56.29   15.50
   6   8  -3   68.09   21.80
  -6  -8   3   76.79   19.00
   5   8  -3   44.30   19.80
  -5  -8   3   77.19   19.30
   4   8  -3    9.70   16.20
  -4  -8   3   15.70   11.40
   3   8  -3  459.35   36.40
  -3  -8   3  505.65   35.50
   2   8  -3   49.99   16.20
  -2  -8   3   60.49    5.20
  -2  -8   3   71.79   17.00
  -2  -8   3   72.29    6.00
   1   8  -3   10.10   12.80
  -1  -8   3    4.80    3.50
  -1  -8   3   13.70   12.00
  -1  -8   3    8.00    4.10
   0  -8   3   75.69    9.00
   0  -8   3   74.99   18.70
   0  -8   3   58.99   16.80
   0  -8   3   78.69    8.40
   1  -8   3  435.76   34.10
   1  -8   3  423.86   34.20
   1  -8   3  426.66   23.00
   1  -8   3  402.96   22.50
   2  -8   3    4.60    4.70
   2  -8   3   -1.40    9.00
   2  -8   3    9.20    5.50
   2  -8   3    7.60   10.50
   3  -8   3    4.80   12.20
   3  -8   3   21.30   12.20
   3  -8   3   -0.40    4.90
   3  -8   3   -0.70    5.20
  -4   8  -3    4.30   12.60
   4  -8   3   25.80    7.80
   4  -8   3   13.00   11.00
   4  -8   3   11.50    7.00
  -5   8  -3  217.58   28.30
   5  -8   3  296.17   21.40
   5  -8   3  251.07   19.80
  -6   8  -3   -5.50   12.30
   6  -8   3    5.90    8.90
   6  -8   3   20.00    8.50
   6  -8   3   -1.20    5.10
  -7   8  -3   74.09   22.30
   7  -8   3   72.59   14.20
   7  -8   3   72.49   13.80
  -8   8  -3    6.70   14.40
   8  -8   3    2.30    7.10
  -9   8  -3   -2.50   15.30
   9  -8   3    7.00    8.40
 -10   8  -3   -0.20   15.30
  10  -8   3   22.70   11.90
 -11   8  -3   56.99   22.40
  11  -8   3   70.99   16.50
 -12   8  -3    6.80   19.40
  12  -8   3   -5.20    8.60
 -13   8  -3   25.10   22.10
  12   7  -3    1.40    7.90
  12   7  -3    5.40    7.40
 -12  -7   3    0.10   14.20
  11   7  -3   44.20    9.10
  11   7  -3   54.09    9.10
 -11  -7   3   25.30   16.00
  10   7  -3   41.00    7.90
  10   7  -3   37.50   10.20
 -10  -7   3   62.69   18.60
   9   7  -3   58.99    7.40
   9   7  -3   60.79    8.10
  -9  -7   3   28.00   15.70
   8   7  -3   12.80    4.30
   8   7  -3    2.80    3.50
  -8  -7   3   -8.40   10.40
   7   7  -3   16.80    3.30
   7   7  -3   19.20    3.50
   7   7  -3   11.30   18.40
  -7  -7   3   18.40   13.70
   6   7  -3  -13.20   12.00
  -6  -7   3   21.20   13.40
   5   7  -3  173.18   24.00
  -5  -7   3  195.88   21.40
   4   7  -3  120.29   19.80
  -4  -7   3  125.69   18.20
   3   7  -3  -10.50    8.50
  -3  -7   3   16.10   10.20
   2   7  -3   16.00   10.20
  -2  -7   3    5.60    2.60
  -2  -7   3    8.70    2.10
   1   7  -3   53.69   14.10
  -1  -7   3   81.69   18.30
  -1  -7   3   46.80    5.60
  -1  -7   3   51.59    6.50
   0  -7   3   92.49    8.80
   0  -7   3  108.29   22.40
   0  -7   3  144.89   24.20
   0  -7   3  112.19    8.90
   1  -7   3    4.70    4.40
   1  -7   3    7.40    4.30
   1  -7   3   -1.20   10.40
   1  -7   3    8.50   11.30
   2  -7   3 1183.38   60.49
   2  -7   3 1161.28   49.40
   2  -7   3 1060.49   49.30
   2  -7   3 1079.59   58.69
  -3   7  -3   54.89   19.00
   3  -7   3   28.90    8.10
   3  -7   3   41.90    8.70
   3  -7   3   52.99   14.50
  -4   7  -3   85.39   21.20
  -4   7  -3   93.29   12.30
   4  -7   3   99.59   16.50
  -5   7  -3    0.90   12.10
  -5   7  -3    4.30    6.10
   5  -7   3    1.90    5.50
   5  -7   3    2.30    8.30
  -6   7  -3    7.70   13.20
  -6   7  -3   -7.90    4.90
   6  -7   3  -14.50    7.00
   6  -7   3    7.80    6.20
  -7   7  -3   15.30    9.20
  -7   7  -3   12.20   13.40
   7  -7   3    3.20    7.00
   7  -7   3   15.00   10.00
  -8   7  -3   89.89   23.30
   8  -7   3   93.79   17.00
  -9   7  -3   -2.00   14.10
   9  -7   3    8.20    8.70
 -10   7  -3    2.60   15.10
  10  -7   3    6.40   11.70
 -11   7  -3   -8.80   12.60
  11  -7   3   -1.40    8.40
 -12   7  -3   24.20   18.60
  12  -7   3    7.10    9.70
 -13   7  -3   -9.80   15.20
  13  -7   3   -6.20    7.60
  12   6  -3   42.20   11.10
  12   6  -3   27.20    9.20
 -12  -6   3   26.30   15.40
  11   6  -3   -5.10    6.20
  11   6  -3    3.60    7.40
 -11  -6   3    9.60   12.60
  10   6  -3   72.19    9.80
  10   6  -3   55.19    9.60
   9   6  -3    0.40    4.90
   9   6  -3    7.60    8.50
  -9  -6   3   11.50   12.20
   8   6  -3  151.18   11.10
   8   6  -3  126.39   10.00
  -8  -6   3  134.49   19.90
   7   6  -3   21.30    4.40
   7   6  -3   33.10   16.00
   7   6  -3   36.70    5.80
  -7  -6   3   53.69   14.90
   6   6  -3   81.89   22.20
   6   6  -3   75.69    5.70
   6   6  -3   66.19    5.20
  -6  -6   3   83.99   17.30
   5   6  -3   55.59   15.40
  -5  -6   3  110.69   18.60
   4   6  -3  118.29   18.30
  -4  -6   3  125.99   16.80
   3   6  -3  716.43   42.20
  -3  -6   3  680.53   39.60
   2   6  -3   45.60   13.60
  -2  -6   3   75.19    4.10
  -2  -6   3   71.69   15.80
   1   6  -3  356.06   27.00
  -1  -6   3  307.57   26.00
  -1  -6   3  353.56   16.00
  -1  -6   3  361.46   16.30
   0   6  -3   27.50   11.90
   0  -6   3   17.40    4.70
   0  -6   3   33.90   12.20
   0  -6   3    9.90    4.20
   1  -6   3   59.69    7.30
   1  -6   3   93.99   17.80
   1  -6   3   62.59    7.70
   1  -6   3   79.39   15.90
  -2   6  -3  -10.00    4.70
   2  -6   3    3.60   10.40
   2  -6   3    4.20    9.60
   2  -6   3   -1.50    3.80
  -3   6  -3 1419.36   61.09
  -3   6  -3 1373.46   70.19
   3  -6   3 1400.86   60.69
   3  -6   3 1439.36   67.49
  -4   6  -3   20.50    7.20
   4  -6   3   27.40    7.60
   4  -6   3   44.90   12.20
  -5   6  -3   34.50   13.60
  -5   6  -3   36.30   10.10
   5  -6   3   11.40    9.00
   5  -6   3   30.70    8.20
  -6   6  -3    0.80    9.00
  -6   6  -3    0.30    5.80
   6  -6   3    8.90    7.60
   6  -6   3    4.60    6.00
  -7   6  -3  239.08   26.80
  -7   6  -3  255.87   21.50
   7  -6   3  265.27   21.40
   7  -6   3  256.97   21.80
  -8   6  -3    1.50   11.90
  -8   6  -3   -5.40    5.30
   8  -6   3    6.10    7.50
   8  -6   3    2.90    6.90
  -9   6  -3   48.10   16.40
   9  -6   3   38.90   12.80
 -10   6  -3   -9.40   10.70
  10  -6   3   -4.10    7.30
 -11   6  -3  218.98   29.90
  11  -6   3  180.28   21.90
 -12   6  -3   11.50   16.60
  12  -6   3   22.40   11.80
 -13   6  -3    5.50   14.40
  13  -6   3    9.60   10.30
  13   5  -3    9.00    8.80
  13   5  -3    6.40    9.30
 -13  -5   3  -12.70   12.50
  12   5  -3   28.40   10.00
  12   5  -3   21.90    9.40
 -12  -5   3    5.50   13.20
  11   5  -3    9.50    8.60
  11   5  -3   32.50    9.50
 -11  -5   3   13.30   13.40
  10   5  -3   55.69    9.50
  10   5  -3   40.90    9.20
 -10  -5   3   49.99   16.10
   9   5  -3   23.70    7.00
   9   5  -3   20.40    6.90
  -9  -5   3   32.80   14.90
   8   5  -3  306.07   30.40
   8   5  -3  255.07   16.50
   8   5  -3  292.97   16.80
  -8  -5   3  305.97   25.60
   7   5  -3   16.50   14.50
   7   5  -3   12.00    4.60
   7   5  -3   18.70    5.10
  -7  -5   3    6.60    8.70
   6   5  -3  441.46   32.20
   6   5  -3  395.46   18.70
   6   5  -3  419.66   19.00
  -6  -5   3  424.36   28.60
   5   5  -3   33.10   11.70
   5   5  -3   42.90    4.20
   5   5  -3   35.80    3.80
  -5  -5   3   51.09   11.90
   4   5  -3 1088.99   57.09
  -4  -5   3 1199.98   55.59
   3   5  -3  130.39   16.80
  -3  -5   3  152.18   16.90
   2   5  -3   60.19   15.20
  -2  -5   3   42.10   12.30
   1   5  -3   -1.40    8.20
  -1  -5   3    9.00    8.20
  -1  -5   3    3.10    2.40
  -1  -5   3   -1.40    2.10
   0   5  -3  949.90   47.30
   0  -5   3  861.91   37.30
   0  -5   3  949.71   47.50
  -1   5  -3   71.39    8.40
   1  -5   3   78.59   15.40
   1  -5   3   83.09    8.40
   1  -5   3  116.49   17.10
  -2   5  -3 2384.36   94.29
  -2   5  -3 2356.86  103.09
   2  -5   3 2319.27  100.79
   2  -5   3 2367.76   93.89
  -3   5  -3   30.60   12.30
  -3   5  -3   16.50    5.70
   3  -5   3   -2.40    7.90
   3  -5   3   -1.10    4.20
  -4   5  -3  572.14   36.30
  -4   5  -3  562.04   30.20
   4  -5   3  529.35   32.20
   4  -5   3  609.64   30.50
  -5   5  -3    3.90   11.80
  -5   5  -3   21.10    7.40
   5  -5   3   18.20   11.80
   5  -5   3   12.60    8.40
  -6   5  -3  364.76   29.90
  -6   5  -3  389.86   25.50
   6  -5   3  411.86   26.30
   6  -5   3  392.86   25.20
  -7   5  -3    5.90    9.90
  -7   5  -3    8.40    7.20
   7  -5   3    0.90    6.20
   7  -5   3    2.30    7.00
  -8   5  -3    3.30    6.00
  -8   5  -3   -6.00    8.10
   8  -5   3    0.20    6.90
   8  -5   3    9.80    7.30
  -9   5  -3   14.10   12.60
   9  -5   3   41.60   11.90
 -10   5  -3  117.19   23.90
  10  -5   3  106.39   18.90
 -11   5  -3    2.80   12.80
  11  -5   3   26.60   13.80
 -12   5  -3   33.20   17.90
  12  -5   3   59.29   16.30
 -13   5  -3    0.90   13.30
  13  -5   3    4.50   10.20
  13   4  -3    7.70    9.10
  13   4  -3   15.30   10.40
 -13  -4   3    8.40   14.10
  12   4  -3   75.19   13.60
  12   4  -3   51.29   19.50
 -12  -4   3  129.39   21.20
  11   4  -3   93.39   14.70
  11   4  -3  138.39   15.30
 -11  -4   3  160.58   22.80
  10   4  -3   58.79   10.40
  10   4  -3   71.49   11.70
 -10  -4   3   82.89   17.30
   9   4  -3   55.79    9.90
   9   4  -3   54.49   10.00
  -9  -4   3   53.39   15.70
   8   4  -3    9.10    5.50
   8   4  -3   -3.50   11.00
   8   4  -3   13.40    5.50
  -8  -4   3    9.90   10.70
   7   4  -3  179.88   21.70
   7   4  -3  220.98   13.60
   7   4  -3  191.78   13.00
  -7  -4   3  188.28   19.50
   6   4  -3  304.27   15.90
   6   4  -3  301.97   25.40
   6   4  -3  290.87   15.50
  -6  -4   3  314.37   22.90
   5   4  -3  213.38   20.40
   5   4  -3  227.78   11.60
   5   4  -3  191.78   11.50
  -5  -4   3  237.38   19.50
   4   4  -3   74.19   14.70
   4   4  -3   56.99    4.20
   4   4  -3   47.10    4.30
  -4  -4   3   61.89   12.30
   3   4  -3   15.60    8.10
  -3  -4   3   25.80    9.90
   2   4  -3   35.40   11.60
  -2  -4   3   57.99   11.50
   1   4  -3  302.67   22.60
   1   4  -3  313.27   14.10
  -1  -4   3  336.67   13.90
  -1  -4   3  342.57   23.10
   0   4  -3    2.80    3.20
   0   4  -3   15.10    9.90
   0  -4   3   18.30    9.70
   0  -4   3    6.50    3.40
  -1   4  -3   62.09    7.50
   1  -4   3   72.79    7.50
   1  -4   3  111.29   17.30
   1  -4   3   82.09   15.90
  -2   4  -3   12.50    5.50
  -2   4  -3   13.10   10.10
   2  -4   3    1.20    4.40
   2  -4   3   25.20   10.20
  -3   4  -3  181.08   14.00
  -3   4  -3  150.98   17.40
   3  -4   3  177.48   13.20
   3  -4   3  169.28   15.90
  -4   4  -3    5.90    9.30
  -4   4  -3    2.70    5.20
   4  -4   3    1.10    6.80
   4  -4   3    3.50    4.90
  -5   4  -3    1.50    4.80
  -5   4  -3   11.90    8.90
   5  -4   3    4.30    6.70
   5  -4   3    3.50    5.00
  -6   4  -3   29.20   10.80
  -6   4  -3    6.60    5.20
   6  -4   3   25.10    9.20
   6  -4   3   47.90    9.70
  -7   4  -3  667.03   40.80
  -7   4  -3  647.64   36.80
   7  -4   3  675.33   36.60
   7  -4   3  679.13   36.70
  -8   4  -3    5.20    9.80
  -8   4  -3    5.10    6.50
   8  -4   3    2.30    5.90
   8  -4   3   -3.20    6.00
  -9   4  -3   89.39   22.00
  -9   4  -3   62.49   18.10
   9  -4   3   84.19   15.40
 -10   4  -3   16.60   13.20
  10  -4   3    4.80    8.20
  11  -4   3   74.79   16.00
 -12   4  -3   -5.30   11.60
  12  -4   3   17.10   10.30
 -13   4  -3  181.48   29.10
  13  -4   3  213.38   24.70
  13   3  -3  107.69   17.10
 -13  -3   3   85.09   19.40
  12   3  -3   10.80    8.90
  12   3  -3   19.00    9.90
 -12  -3   3    1.10   11.90
  11   3  -3  129.49   15.10
  11   3  -3  115.49   15.10
 -11  -3   3  107.29   22.00
  10   3  -3  142.69   15.20
  10   3  -3  142.29   14.90
 -10  -3   3  144.09   20.10
   9   3  -3   49.99    9.60
   9   3  -3   35.70   14.20
   9   3  -3   32.20    8.30
  -9  -3   3   52.89   13.90
   8   3  -3   36.10    7.60
   8   3  -3   40.50    8.30
   8   3  -3   51.69   14.70
  -8  -3   3   45.50   13.10
   7   3  -3  235.58   16.70
   7   3  -3  287.67   24.10
   7   3  -3  238.88   16.30
  -7  -3   3  301.07   22.00
   6   3  -3   43.70   12.00
   6   3  -3   29.10    6.30
   6   3  -3   27.20    6.10
  -6  -3   3   59.69   13.10
   5   3  -3   -1.60    3.50
   5   3  -3   -0.50    3.80
   5   3  -3    2.80    7.70
  -5  -3   3   12.10    8.00
   4   3  -3  208.48   18.10
   4   3  -3  203.58   10.70
   4   3  -3  182.58   10.30
  -4  -3   3  197.98   16.50
   3   3  -3   78.89   12.00
   3   3  -3   63.29    4.70
   3   3  -3   65.89    4.30
  -3  -3   3   74.19   11.30
   2   3  -3   73.79   14.10
   2   3  -3   51.09    2.80
  -2  -3   3   43.70    2.90
  -2  -3   3   74.89   12.90
   1   3  -3    5.60    2.20
   1   3  -3   -3.70    6.60
  -1  -3   3    6.30    7.70
  -1  -3   3   10.60    2.20
   0   3  -3 2322.97   97.89
   0   3  -3 2390.56   91.89
   0  -3   3 2439.06   91.79
   0  -3   3 2491.05   98.79
  -1   3  -3    0.70    3.70
  -1   3  -3    9.00   10.10
   1  -3   3    0.10    3.30
   1  -3   3    0.10    8.60
  -2   3  -3  164.98   16.30
  -2   3  -3  152.68   11.10
   2  -3   3  133.79   14.40
   2  -3   3  163.68   11.40
  -3   3  -3    8.90    5.10
  -3   3  -3   14.80    8.90
   3  -3   3   19.00    8.00
   3  -3   3   10.90    5.10
  -4   3  -3    4.30    5.40
  -4   3  -3   -1.90    6.50
   4  -3   3   10.10    6.50
   4  -3   3   -0.20    4.70
  -5   3  -3    9.30    5.70
  -5   3  -3    6.60    8.30
   5  -3   3   23.80    7.40
   5  -3   3   13.80    7.10
  -6   3  -3  598.64   37.60
  -6   3  -3  535.25   30.60
   6  -3   3  564.94   31.60
   6  -3   3  516.85   29.90
  -7   3  -3   41.70   10.40
  -7   3  -3   81.99   16.50
   7  -3   3   53.09   10.70
   7  -3   3   67.99   11.40
  -8   3  -3  161.48   19.80
  -8   3  -3  151.48   17.40
   8  -3   3  158.58   16.60
   8  -3   3  164.68   17.10
  -9   3  -3    1.70    7.00
  -9   3  -3   21.90   13.10
   9  -3   3   24.50   10.40
   9  -3   3   14.80    8.20
 -10   3  -3  305.57   28.20
  10  -3   3  247.68   23.00
 -11   3  -3   32.80   14.90
  11  -3   3   26.60   10.10
 -12   3  -3   84.39   21.90
  12  -3   3  109.39   19.80
 -13   3  -3   -4.80   12.20
  13  -3   3   -3.30    8.80
  14   2  -3   -1.40    9.50
 -14  -2   3   11.60   13.70
  13   2  -3   15.30   10.50
 -13  -2   3   23.60   14.80
  12   2  -3    6.00    8.10
  12   2  -3    6.20    8.30
 -12  -2   3    0.50   11.10
  11   2  -3   75.79   23.00
  11   2  -3  102.79   14.20
 -11  -2   3  132.09   19.70
  10   2  -3  207.68   18.10
  10   2  -3  227.48   18.20
 -10  -2   3  183.28   21.50
   9   2  -3   88.39   11.70
   9   2  -3   83.89   11.90
   9   2  -3   82.89   17.40
  -9  -2   3  111.29   18.90
   8   2  -3   51.39    9.40
   8   2  -3   51.79   20.40
   8   2  -3   48.30    9.00
  -8  -2   3  103.69   14.30
   7   2  -3   17.40    5.80
   7   2  -3   16.50    5.50
   7   2  -3   14.90    9.20
  -7  -2   3   22.20    9.40
   6   2  -3   -9.30    5.60
   6   2  -3    8.90    4.70
   6   2  -3    0.60    3.70
  -6  -2   3    3.20    6.90
   5   2  -3 1126.59   46.10
   5   2  -3 1098.49   46.30
   5   2  -3 1054.09   51.79
  -5  -2   3 1147.99   50.39
   4   2  -3   52.29   10.30
   4   2  -3   27.70    4.90
   4   2  -3   27.10    5.10
  -4  -2   3   49.70    9.70
   3   2  -3  163.68    8.80
   3   2  -3  185.68   15.20
   3   2  -3  157.48    8.90
  -3  -2   3  149.69   13.80
   2   2  -3   20.90    8.00
   2   2  -3   11.50    2.40
  -2  -2   3   13.50    2.70
  -2  -2   3   25.00    8.80
   1   2  -3 8531.95  323.77
  -1  -2   3 8626.94  323.47
   0   2  -3   37.00    5.00
   0   2  -3   42.90    9.60
   0  -2   3   38.90    8.30
   0  -2   3   39.00    4.70
  -1   2  -3  672.53   28.90
  -1   2  -3  671.13   33.30
   1  -2   3  700.13   32.70
   1  -2   3  663.53   28.80
  -2   2  -3   12.80    4.50
  -2   2  -3    1.60    7.80
   2  -2   3   16.00    7.70
   2  -2   3   12.30    4.70
  -3   2  -3  207.38   13.60
  -3   2  -3  176.18   15.30
   3  -2   3  165.68   12.60
   3  -2   3  200.48   14.20
  -4   2  -3   42.10    8.30
  -4   2  -3   65.19   10.90
   4  -2   3   59.69    8.30
   4  -2   3   50.39    9.10
  -5   2  -3  338.17   21.10
  -5   2  -3  344.07   23.20
   5  -2   3  332.57   20.90
   5  -2   3  381.76   21.60
  -6   2  -3   17.30    8.20
  -6   2  -3   18.40    6.80
   6  -2   3   20.10    7.10
   6  -2   3   15.50    8.10
  -7   2  -3  155.88   15.60
  -7   2  -3  157.58   17.30
   7  -2   3  162.98   15.00
   7  -2   3  136.49   14.80
  -8   2  -3   71.29   15.00
  -8   2  -3   59.09   12.30
   8  -2   3   52.79   11.20
  -9   2  -3  573.04   35.40
  -9   2  -3  628.44   38.90
   9  -2   3  566.24   34.40
   9  -2   3  566.64   35.30
 -10   2  -3   13.10   11.30
  10  -2   3    8.00    8.00
 -11   2  -3   48.30   17.10
  11  -2   3   78.59   15.50
 -12   2  -3  -16.90   10.30
  12  -2   3   -3.40   10.00
 -13   2  -3   26.70   16.80
  13  -2   3   36.50   13.70
  14   1  -3    9.60   12.30
 -14  -1   3    9.30   12.90
  13   1  -3   18.30    9.90
 -13  -1   3   30.60   13.70
  12   1  -3   58.59   13.10
 -12  -1   3   52.49   16.40
  11   1  -3   89.09   14.10
  11   1  -3   67.49   13.00
 -11  -1   3   59.19   15.60
  10   1  -3   99.09   13.50
  10   1  -3   95.69   13.50
 -10  -1   3   91.19   18.60
   9   1  -3   35.40    8.80
   9   1  -3   27.10    8.40
   9   1  -3   33.70   13.00
  -9  -1   3   28.30   10.70
   8   1  -3  126.59   13.20
   8   1  -3  138.29   17.00
   8   1  -3  119.29   12.20
  -8  -1   3  142.39   15.80
   7   1  -3   28.70    7.70
   7   1  -3   37.70   10.90
   7   1  -3   36.30    8.70
  -7  -1   3   31.20    8.90
   6   1  -3  383.56   24.40
   6   1  -3  340.97   20.20
  -6  -1   3  351.56   22.50
   5   1  -3   10.60    7.10
   5   1  -3    1.50    3.70
   5   1  -3    1.30    3.60
  -5  -1   3   12.30    6.20
   4   1  -3   73.99    7.40
   4   1  -3   75.39   10.40
   4   1  -3   77.49    7.40
  -4  -1   3   87.49   10.70
   3   1  -3   10.00    3.50
   3   1  -3   18.30    6.80
  -3  -1   3   19.60    6.80
  -3  -1   3    7.20    3.80
   2   1  -3  313.57   14.00
   2   1  -3  316.17   17.60
  -2  -1   3  298.47   14.00
  -2  -1   3  306.37   17.00
   1   1  -3  201.68    9.60
   1   1  -3  209.78   13.00
  -1  -1   3  195.68    9.60
  -1  -1   3  200.18   12.20
   0   1  -3    2.80    5.50
   0   1  -3    4.20    2.40
   0  -1   3    5.00    5.00
   0  -1   3    6.20    2.70
  -1   1  -3    1.20    5.30
  -1   1  -3    4.00    3.40
   1  -1   3   -1.70    4.70
   1  -1   3    1.40    3.50
  -2   1  -3 9920.71  373.46
   2  -1   3 9999.00  372.36
  -3   1  -3   29.40    7.20
  -3   1  -3   36.80    8.00
   3  -1   3   18.60    5.80
   3  -1   3   47.60    7.40
  -4   1  -3  394.66   22.30
  -4   1  -3  390.46   22.70
   4  -1   3  424.46   22.20
   4  -1   3  437.46   24.10
  -5   1  -3   94.29   12.10
  -5   1  -3   84.69   10.90
   5  -1   3   85.89   10.40
   5  -1   3   99.79   11.30
  -6   1  -3   -3.90    5.70
  -6   1  -3    6.30    5.40
   6  -1   3   -1.10    5.20
   6  -1   3   -4.60    4.20
  -7   1  -3   79.49   13.00
  -7   1  -3   65.39   12.20
   7  -1   3   75.89   11.00
   7  -1   3   64.49   12.50
  -8   1  -3  401.16   27.70
  -8   1  -3  472.95   30.10
   8  -1   3  474.45   33.10
   8  -1   3  419.96   27.00
  -9   1  -3   11.70   10.30
  -9   1  -3   11.80    9.30
   9  -1   3   15.90    8.80
   9  -1   3   18.20   11.20
 -10   1  -3    2.50    9.80
  10  -1   3    2.50    7.30
 -11   1  -3   21.40   14.60
  11  -1   3   11.30    8.80
 -12   1  -3   61.09   17.40
  12  -1   3   60.59   16.20
 -13   1  -3   -5.40   12.80
  13  -1   3   -2.80    9.00
  14   0  -3   29.70   12.90
 -14   0   3   29.90   16.90
  13   0  -3   67.79   15.70
 -13   0   3   67.69   19.40
  12   0  -3   22.80   11.50
 -12   0   3   19.30   12.90
  11   0  -3    5.70    6.70
  11   0  -3   25.00    9.90
 -11   0   3    2.00    8.50
  10   0  -3    6.50    7.00
  10   0  -3   33.30   14.60
 -10   0   3   -4.30    7.40
   9   0  -3   80.99   17.50
   9   0  -3   98.49   12.40
   9   0  -3   73.69   12.70
  -9   0   3   89.89   14.20
   8   0  -3   13.50    8.40
   8   0  -3   27.90   10.10
   8   0  -3   30.70    8.80
  -8   0   3   47.40   11.10
   7   0  -3   56.49   10.20
   7   0  -3   41.70   11.40
   7   0  -3   69.39   10.00
  -7   0   3   67.99   12.20
   6   0  -3    1.80    4.60
   6   0  -3    8.90    6.80
   6   0  -3    1.20    4.30
  -6   0   3    3.00    6.00
   5   0  -3   96.99   11.50
   5   0  -3  100.89    9.60
   5   0  -3  104.29    9.90
  -5   0   3   89.39   10.80
   4   0  -3    5.10    4.10
   4   0  -3   16.90    6.60
  -4   0   3   -0.80    4.80
   3   0  -3    5.40    3.90
   3   0  -3   -1.30    4.80
  -3   0   3   11.80    4.60
  -3   0   3   18.50    5.80
   2   0  -3   27.80    4.70
   2   0  -3   28.80    6.00
  -2   0   3   25.90    4.60
  -2   0   3   40.00    6.50
   1   0  -3 2920.81  113.19
   1   0  -3 3050.79  113.29
  -1   0   3 2973.90  112.89
  -1   0   3 3037.30  113.39
   0   0  -3    4.90    2.60
   0   0   3    3.50    3.70
   0   0   3    2.40    2.40
   0   0   3    3.50    3.60
  -1   0  -3 4159.88  158.28
  -1   0  -3 4261.87  158.98
   1   0   3 4274.07  158.98
   1   0   3 4152.08  157.78
  -2   0  -3    8.00    4.80
  -2   0  -3    8.90    4.90
   2   0   3    5.30    4.20
   2   0   3    9.10    4.80
  -3   0  -3 1681.83   68.49
   3   0   3 1684.33   67.69
   3   0   3 1715.03   68.19
  -4   0  -3  301.07   24.20
  -4   0  -3  300.47   17.90
   4   0   3  295.37   17.30
   4   0   3  280.47   17.20
  -5   0  -3 1500.75   64.79
  -5   0  -3 1490.65   64.99
   5   0   3 1530.65   64.99
   5   0   3 1585.14   64.59
  -6   0  -3   -1.50    5.30
  -6   0  -3   -0.90    5.00
   6   0   3    2.80    5.70
   6   0   3   -2.30    4.10
  -7   0  -3  215.38   17.50
  -7   0  -3  237.08   19.00
   7   0   3  199.98   18.20
   7   0   3  202.28   16.60
  -8   0  -3   15.50    7.40
  -8   0  -3    8.60    8.30
   8   0   3   -2.90    9.10
   8   0   3   12.90    7.70
  -9   0  -3  105.99   16.40
  -9   0  -3  111.79   17.40
   9   0   3   89.59   18.80
   9   0   3   89.89   13.50
 -10   0  -3   33.20   11.30
 -10   0  -3   27.90   13.40
  10   0   3   22.80    9.80
 -11   0  -3   33.90   14.50
  11   0   3   67.79   14.00
 -12   0  -3   -1.60   10.30
  12   0   3    5.30    9.40
 -13   0  -3  -11.00   11.50
  13   0   3    3.50   10.00
  14  -1  -3    1.00    9.50
 -14   1   3    4.90   12.70
  13  -1  -3   13.40   10.50
 -13   1   3    8.90   12.00
  12  -1  -3   35.50   12.40
 -12   1   3    8.60   11.30
  11  -1  -3   46.00   11.90
  11  -1  -3   10.30    8.30
 -11   1   3   37.90   13.90
  10  -1  -3  240.68   21.20
  10  -1  -3  262.67   21.10
 -10   1   3  261.27   23.50
   9  -1  -3   11.00    7.40
   9  -1  -3    6.00    6.90
   9  -1  -3   29.40   11.90
  -9   1   3   27.70   10.50
   8  -1  -3   86.69   14.10
   8  -1  -3  137.09   14.40
   8  -1  -3  125.99   13.20
  -8   1   3  111.29   14.30
   7  -1  -3   39.50    8.60
   7  -1  -3   21.00    7.70
   7  -1  -3   41.60   10.50
  -7   1   3   32.40    9.00
   6  -1  -3  225.88   16.70
   6  -1  -3  240.58   17.60
   6  -1  -3  228.38   16.00
  -6   1   3  241.08   17.30
   5  -1  -3   -1.30    4.80
   5  -1  -3    1.80    4.30
   5  -1  -3   -4.40    3.40
  -5   1   3    6.10    5.70
   4  -1  -3  658.03   30.50
   4  -1  -3  676.23   30.30
  -4   1   3  631.04   30.20
  -4   1   3  644.64   30.30
   3  -1  -3   22.20    5.80
   3  -1  -3    5.60    4.50
  -3   1   3   11.20    4.50
  -3   1   3   11.70    5.20
   2  -1  -3  418.76   19.30
   2  -1  -3  408.76   18.50
  -2   1   3  406.26   18.40
  -2   1   3  392.66   19.30
   1  -1  -3    2.80    2.50
   1  -1  -3    2.60    3.10
  -1   1   3    5.70    3.60
   0  -1  -3  677.63   27.70
   0   1   3  630.84   27.40
  -1  -1  -3    1.40    2.90
  -1  -1  -3   -1.10    3.40
   1   1   3    4.90    3.40
   1   1   3    4.30    3.40
  -2  -1  -3  126.19    8.90
  -2  -1  -3  136.29    9.50
   2   1   3  116.89    9.20
   2   1   3  134.09    9.20
  -3  -1  -3  159.08   11.30
  -3  -1  -3  160.58   11.60
   3   1   3  152.88   11.10
   3   1   3  170.48   12.00
  -4  -1  -3 5521.15  211.28
  -4  -1  -3 5131.09  201.78
   4   1   3 5147.38  202.48
   4   1   3 5399.56  201.98
  -5  -1  -3    1.60    5.60
  -5  -1  -3    9.80    5.80
   5   1   3    5.50    6.40
   5   1   3    1.90    4.60
  -6  -1  -3   34.70    9.00
  -6  -1  -3   47.20    9.10
   6   1   3   48.20    9.30
   6   1   3   23.00    9.40
  -7  -1  -3    8.50    7.50
  -7  -1  -3   15.60    7.10
   7   1   3   20.20    9.30
   7   1   3   11.90    6.30
  -8  -1  -3   65.99   12.60
  -8  -1  -3   60.59   13.30
   8   1   3   59.99   11.10
   8   1   3   56.89   16.90
  -9  -1  -3    6.10    9.00
  -9  -1  -3   13.90    8.60
   9   1   3    6.80    7.00
   9   1   3   -6.90    9.70
 -10  -1  -3  138.29   19.40
 -10  -1  -3  109.69   17.70
  10   1   3  137.39   16.20
 -11  -1  -3  -10.10    9.10
  11   1   3    8.90    8.40
 -12  -1  -3   15.00   13.90
  12   1   3   33.70   12.80
 -13  -1  -3   -2.40   12.10
  13   1   3   20.10   12.10
  14  -2  -3    6.60   10.40
 -14   2   3   -3.50   10.10
  13  -2  -3  166.28   22.50
 -13   2   3  134.89   21.70
  12  -2  -3   -4.20    7.20
 -12   2   3    6.60   10.40
  11  -2  -3  -11.30    5.20
 -11   2   3    4.70    8.80
  10  -2  -3   -2.20    5.70
  10  -2  -3    8.70    7.10
 -10   2   3   20.00   12.90
   9  -2  -3    8.80   10.30
   9  -2  -3   31.20    9.80
   9  -2  -3   13.00    9.30
  -9   2   3    3.70    8.90
   8  -2  -3   84.09   13.30
   8  -2  -3   81.99   15.70
   8  -2  -3   86.79   12.40
  -8   2   3   50.79   12.20
   7  -2  -3  491.95   27.50
   7  -2  -3  557.84   33.50
   7  -2  -3  428.96   27.70
  -7   2   3  520.25   29.20
   6  -2  -3    1.30    5.80
   6  -2  -3    0.20    4.10
   6  -2  -3   -5.60    3.90
  -6   2   3   -3.50    5.90
   5  -2  -3  542.85   27.60
   5  -2  -3  505.85   27.90
   5  -2  -3  595.54   28.40
  -5   2   3  538.75   28.10
   4  -2  -3   18.90    6.20
   4  -2  -3   25.60    6.40
  -4   2   3   21.10    6.50
  -4   2   3   37.30    8.00
   3  -2  -3  251.67   14.20
   3  -2  -3  248.58   15.10
  -3   2   3  238.78   15.00
  -3   2   3  271.37   15.10
   2  -2  -3   -0.90    3.50
   2  -2  -3   -2.20    3.30
  -2   2   3    7.30    4.60
  -2   2   3    6.30    3.70
   1  -2  -3  317.87   16.20
   1  -2  -3  336.87   14.70
  -1   2   3  316.77   16.50
  -1   2   3  320.57   15.90
   0  -2  -3   -0.10    3.10
   0  -2  -3    3.20    5.80
   0   2   3   -2.40    2.80
  -1  -2  -3   93.29    7.50
  -1  -2  -3   81.29    6.80
   1   2   3   88.69    7.40
   1   2   3   79.69    7.80
  -2  -2  -3   26.10    5.40
  -2  -2  -3   18.80    5.00
   2   2   3   26.70    5.30
  -3  -2  -3  272.67   15.50
  -3  -2  -3  246.98   15.00
   3   2   3  261.07   16.40
   3   2   3  269.57   14.90
  -4  -2  -3   30.50    7.00
   4   2   3   33.30    6.40
   4   2   3   25.10    8.80
  -5  -2  -3   57.39   10.20
  -5  -2  -3   54.19    8.90
   5   2   3   67.79    8.60
   5   2   3   61.19   11.70
  -6  -2  -3   24.00    8.30
  -6  -2  -3   15.50    6.40
   6   2   3   22.10    6.40
   6   2   3   19.70    9.70
  -7  -2  -3    6.40    7.10
  -7  -2  -3   13.50    7.60
   7   2   3   27.50   11.50
  -8  -2  -3   -1.00    8.10
  -8  -2  -3   15.40    8.80
   8   2   3   13.90    6.90
  -9  -2  -3  -10.10    7.70
  -9  -2  -3  -10.40   10.80
   9   2   3  -11.40    5.10
   9   2   3   11.90   12.60
 -10  -2  -3   20.60   10.60
 -10  -2  -3    7.10   10.40
  10   2   3    2.80    7.50
 -11  -2  -3   63.89   20.50
  11   2   3   22.80   10.40
 -12  -2  -3   49.70   17.30
  12   2   3   38.90   11.80
 -13  -2  -3   16.80   14.20
  13   2   3    2.50    9.30
  14  -3  -3   -0.10    9.30
 -14   3   3  -10.20   11.40
  13  -3  -3   48.30   15.30
 -13   3   3   16.90   13.20
  12  -3  -3   24.50   11.20
 -12   3   3    7.90   11.50
  11  -3  -3   18.80   10.60
 -11   3   3   34.80   13.60
  10  -3  -3   18.70    8.70
  10  -3  -3    2.50    6.60
 -10   3   3   10.00    9.80
   9  -3  -3   36.10   10.00
   9  -3  -3   22.30    8.80
   9  -3  -3   37.10   10.70
  -9   3   3   44.70   13.90
   8  -3  -3  541.15   32.00
   8  -3  -3  599.94   32.30
   8  -3  -3  547.45   32.60
  -8   3   3  536.45   33.30
   7  -3  -3   -2.80    4.80
   7  -3  -3   16.00    7.30
   7  -3  -3    2.80    5.10
  -7   3   3   -7.20    6.00
   6  -3  -3    4.30    5.10
   6  -3  -3    3.90    4.80
   6  -3  -3    5.70    5.10
  -6   3   3    1.60    6.60
   5  -3  -3    0.10    4.60
   5  -3  -3    4.70    5.00
   5  -3  -3    1.90    4.50
  -5   3   3    6.80    6.70
   4  -3  -3   61.49    8.40
   4  -3  -3   59.19    8.30
  -4   3   3   64.49    9.50
  -4   3   3   77.89   12.10
   3  -3  -3   14.30    5.00
   3  -3  -3    4.40    4.50
  -3   3   3   -0.60    3.70
  -3   3   3   16.70    7.30
   2  -3  -3   21.90    5.90
   2  -3  -3   27.60    5.90
  -2   3   3   14.70    7.10
  -2   3   3   16.60    5.60
   1  -3  -3    2.00    5.30
   1  -3  -3   -0.20    3.50
  -1   3   3    3.30    3.90
   0  -3  -3  122.99   10.10
   0  -3  -3  147.29    9.60
   0   3   3  117.89    9.30
  -1  -3  -3   46.90    6.40
  -1  -3  -3   42.10    6.90
   1   3   3   48.90    6.20
   1   3   3   60.09    8.10
  -2  -3  -3  186.18   11.70
  -2  -3  -3  184.78   12.10
   2   3   3  175.28   11.40
   2   3   3  187.48   13.60
  -3  -3  -3    5.70    4.20
  -3  -3  -3    8.30    5.60
   3   3   3    2.80    3.80
   3   3   3    3.90    6.40
  -4  -3  -3  175.38   13.90
  -4  -3  -3  205.18   15.10
   4   3   3  221.58   13.60
   4   3   3  200.58   16.50
  -5  -3  -3   39.90    9.20
  -5  -3  -3   35.30    7.90
   5   3   3   57.59    7.80
   5   3   3   63.39   12.50
  -6  -3  -3  241.88   17.80
   6   3   3  221.78   21.00
   6   3   3  251.27   16.50
  -7  -3  -3   20.70    9.10
  -7  -3  -3    5.70    7.00
   7   3   3    3.40    6.30
   7   3   3   10.40   10.10
  -8  -3  -3  140.09   17.50
  -8  -3  -3  156.58   16.40
   8   3   3  135.79   21.70
   8   3   3  152.88   14.80
  -9  -3  -3   10.70   10.40
  -9  -3  -3    4.20    8.40
   9   3   3    7.10   15.30
   9   3   3    9.30    7.80
 -10  -3  -3  105.09   19.70
 -10  -3  -3   58.59   14.10
  10   3   3   78.79   13.70
 -11  -3  -3  165.38   27.50
  11   3   3   92.79   15.30
 -12  -3  -3   17.10   13.60
  12   3   3   11.70   10.00
  14  -4  -3   17.50   13.20
 -14   4   3    4.30   14.00
  13  -4  -3   -5.30    7.50
 -13   4   3   -9.80    9.30
  12  -4  -3   14.90   13.30
 -12   4   3  -11.90    9.20
  11  -4  -3  433.26   31.80
 -11   4   3  381.86   33.00
  10  -4  -3  -10.10    4.50
 -10   4   3    2.60    8.80
   9  -4  -3   84.49   15.50
   9  -4  -3   66.79   14.70
   9  -4  -3   98.49   16.80
  -9   4   3   87.39   18.00
   8  -4  -3    1.40    7.10
   8  -4  -3   11.70    6.90
   8  -4  -3    2.80    5.90
  -8   4   3    4.90    8.60
   7  -4  -3   94.19   12.20
   7  -4  -3  113.79   13.80
   7  -4  -3  108.09   12.70
  -7   4   3  139.69   15.90
   6  -4  -3    0.40    5.10
   6  -4  -3    3.70    5.00
   6  -4  -3   -1.70    4.10
  -6   4   3   -2.20    6.80
   5  -4  -3  957.30   44.50
   5  -4  -3  929.91   42.10
   5  -4  -3  892.11   43.00
  -5   4   3  888.71   44.80
   4  -4  -3   -0.60    4.20
  -4   4   3    3.70    7.10
  -4   4   3    4.90    4.90
   3  -4  -3  563.24   26.30
   3  -4  -3  520.05   26.80
  -3   4   3  512.45   28.70
  -3   4   3  531.45   27.00
   2  -4  -3    8.40    5.80
   2  -4  -3   12.10    4.60
  -2   4   3    1.80    4.30
  -2   4   3    0.00    6.60
   1  -4  -3  525.95   27.50
   1  -4  -3  559.34   27.40
   1  -4  -3  530.85   25.50
  -1   4   3  537.75   25.70
   0  -4  -3   22.20    7.20
   0  -4  -3   14.60    4.40
   0   4   3   12.80    4.60
  -1  -4  -3   29.20    7.30
  -1  -4  -3   42.50    6.50
   1   4   3   42.20    9.30
   1   4   3   30.00    6.00
  -2  -4  -3    6.80    3.90
  -2  -4  -3   32.00    6.90
   2   4   3   10.00    7.20
   2   4   3   20.20    5.20
  -3  -4  -3  423.76   21.20
  -3  -4  -3  380.76   21.80
   3   4   3  401.96   24.40
   3   4   3  383.66   20.10
  -4  -4  -3   97.39   10.30
  -4  -4  -3  130.89   12.70
   4   4   3  124.19   14.80
   4   4   3  116.99   10.10
  -5  -4  -3   80.99   11.90
  -5  -4  -3   59.29    9.40
   5   4   3   58.49   14.10
   5   4   3   80.29    9.20
  -6  -4  -3   14.30    7.90
  -6  -4  -3   21.70    7.90
   6   4   3   -1.30    8.80
   6   4   3    7.10    5.20
  -7  -4  -3  138.49   16.90
  -7  -4  -3  157.18   15.30
   7   4   3  132.59   15.90
   7   4   3  138.09   20.40
  -8  -4  -3   12.90   10.60
  -8  -4  -3   23.50    9.50
   8   4   3   23.90    7.90
   8   4   3   10.80   14.60
  -9  -4  -3   38.20   12.10
  -9  -4  -3    7.70   10.70
   9   4   3   40.00   10.00
 -10  -4  -3   34.80   15.20
 -10  -4  -3   35.90   11.90
  10   4   3   49.50   11.60
 -11  -4  -3    6.80   12.00
  11   4   3   -2.90    7.90
 -12  -4  -3   10.70   14.00
  12   4   3   -1.10    8.60
  14  -5  -3   -1.50    9.80
 -14   5   3  -15.20   12.50
  13  -5  -3   -0.60    8.70
 -13   5   3  -21.30    8.70
  12  -5  -3  220.28   24.00
 -12   5   3  184.38   26.30
  11  -5  -3   32.20   12.10
 -11   5   3   24.80   13.80
  10  -5  -3    6.80    8.50
 -10   5   3    9.90   12.30
   9  -5  -3    6.70    7.60
   9  -5  -3   12.10    8.60
  -9   5   3    3.50   10.20
   8  -5  -3  104.99   13.70
   8  -5  -3  105.19   14.70
  -8   5   3  110.19   17.40
   7  -5  -3    1.00    5.50
   7  -5  -3    8.30    6.80
   7  -5  -3    1.50    5.70
  -7   5   3    2.20    8.50
   6  -5  -3  804.72   39.40
   6  -5  -3  787.52   38.20
   6  -5  -3  740.83   40.00
  -6   5   3  682.53   45.60
   5  -5  -3    6.60    5.00
   5  -5  -3    1.20    5.30
  -5   5   3   -4.00    7.00
  -5   5   3   -0.30    4.60
   4  -5  -3  236.78   16.20
   4  -5  -3  240.08   16.80
  -4   5   3  216.48   19.50
  -4   5   3  217.38   16.60
   3  -5  -3   51.39    9.70
   3  -5  -3   40.20    8.50
  -3   5   3   46.10   11.90
  -3   5   3   28.60    7.20
   2  -5  -3 1770.12   72.19
   2  -5  -3 1766.72   73.19
  -2   5   3 1714.83   72.09
   1  -5  -3   21.20    8.20
   1  -5  -3   10.50    4.50
   1  -5  -3   13.00    8.20
  -1   5   3   12.30    5.10
   0  -5  -3   89.29   11.60
   0  -5  -3   89.69   13.90
   0  -5  -3   67.89    8.40
   0   5   3   82.99    9.00
  -1  -5  -3   39.40    9.80
  -1  -5  -3   36.70    9.00
   1   5   3   60.09    7.60
   1   5   3   38.00   10.10
  -2  -5  -3  412.36   23.60
   2   5   3  428.56   26.20
   2   5   3  444.86   21.80
  -3  -5  -3  123.79   12.50
  -3  -5  -3   88.19    9.20
   3   5   3   87.79   13.90
   3   5   3   98.49    9.10
  -4  -5  -3   75.49   12.40
  -4  -5  -3   82.79    9.60
   4   5   3   65.29    8.50
   4   5   3  101.69   14.90
  -5  -5  -3   86.89   12.50
  -5  -5  -3   91.29   10.70
   5   5   3   71.19    9.10
   5   5   3   31.20   12.30
  -6  -5  -3   12.90    7.60
  -6  -5  -3    0.40    7.50
   6   5   3   -8.60    9.80
   6   5   3    2.60    5.40
  -7  -5  -3  126.99   15.10
  -7  -5  -3  142.59   17.30
   7   5   3   79.99   24.90
   7   5   3  100.89   14.40
  -8  -5  -3   18.50   11.60
  -8  -5  -3    7.40    7.80
   8   5   3   10.20   16.10
   8   5   3    5.20    6.80
  -9  -5  -3    8.20    9.60
  -9  -5  -3    0.30   11.40
   9   5   3   -4.30    6.30
 -10  -5  -3   24.60   12.20
 -10  -5  -3   23.90   13.40
  10   5   3    8.10    8.30
 -11  -5  -3   71.59   19.60
  11   5   3   49.50   12.80
  13  -6  -3    6.80    9.20
 -13   6   3    6.80   15.30
  12  -6  -3   -0.70    9.20
 -12   6   3  -13.40    9.10
  11  -6  -3   78.09   16.80
 -11   6   3   68.79   21.40
  10  -6  -3    6.70    7.80
 -10   6   3    7.70   10.80
   9  -6  -3   22.50    9.80
   9  -6  -3   12.90    9.90
  -9   6   3   21.20   14.40
   8  -6  -3   15.60    8.60
   8  -6  -3   14.70    9.20
   8  -6  -3    7.70    6.10
  -8   6   3    9.60   10.30
   7  -6  -3    8.10    7.30
   7  -6  -3   22.90    8.50
   7  -6  -3   12.90    7.90
  -7   6   3   30.40   13.70
   6  -6  -3   12.80    6.40
   6  -6  -3   -4.50    4.80
   6  -6  -3    9.10    6.90
  -6   6   3    3.70    8.20
   5  -6  -3  124.49   13.00
   5  -6  -3  160.78   14.80
   5  -6  -3  132.99   14.60
  -5   6   3  141.89   17.80
   4  -6  -3   32.10    9.50
   4  -6  -3   10.40    5.20
  -4   6   3   33.10   12.10
  -4   6   3   35.10    8.30
   3  -6  -3   99.79   11.00
   3  -6  -3  110.09   12.20
  -3   6   3  102.39   11.40
  -3   6   3  124.09   15.90
   2  -6  -3   22.50    6.40
   2  -6  -3   21.20    9.20
   2  -6  -3    5.70    8.90
  -2   6   3   13.30    6.20
   1  -6  -3  236.98   19.50
   1  -6  -3  237.88   15.60
   1  -6  -3  230.48   19.60
  -1   6   3  269.27   16.50
   0  -6  -3   66.49    8.00
   0  -6  -3   35.40   10.20
   0  -6  -3   28.00   11.60
   0   6   3   56.09    8.10
  -1  -6  -3  149.99   11.30
  -1  -6  -3  158.18   14.90
   1   6   3  148.69   11.50
   1   6   3  111.99   15.10
  -2  -6  -3    8.10    4.30
  -2  -6  -3    3.00    6.90
   2   6   3    8.70    9.30
   2   6   3   -1.50    3.90
  -3  -6  -3   41.60   10.20
  -3  -6  -3   37.30    7.50
   3   6   3   34.40    7.00
   3   6   3   17.60   11.70
  -4  -6  -3  129.29   14.90
  -4  -6  -3  131.39   11.80
   4   6   3  103.09   17.30
   4   6   3  115.69   10.70
  -5  -6  -3   82.29   14.40
  -5  -6  -3  106.59   11.90
   5   6   3   93.89   10.40
   5   6   3  114.99   20.20
  -6  -6  -3  211.88   17.60
  -6  -6  -3  261.37   21.50
   6   6   3  207.28   26.50
   6   6   3  208.08   16.10
  -7  -6  -3    6.80   11.10
  -7  -6  -3   -3.80    7.70
   7   6   3   18.50   18.00
   7   6   3   -0.50    9.10
  -8  -6  -3   85.09   14.40
  -8  -6  -3  124.49   19.10
   8   6   3  130.89   46.50
   8   6   3  120.99   13.60
  -9  -6  -3   23.00   13.30
  -9  -6  -3   15.10   10.90
   9   6   3   25.10    9.80
 -10  -6  -3   65.19   15.40
  10   6   3  132.49   15.80
 -11  -6  -3    9.60   13.60
 -11  -6  -3    3.40   16.00
  11   6   3    4.00    9.80
  13  -7  -3    3.10    8.40
 -13   7   3    7.70   16.70
  12  -7  -3  197.88   24.20
 -12   7   3  183.18   33.90
  11  -7  -3    1.20    8.90
 -11   7   3    3.80   15.80
  10  -7  -3  145.19   27.40
 -10   7   3  154.08   24.60
   9  -7  -3   30.10   11.00
  -9   7   3   27.40   14.30
   8  -7  -3  107.79   15.20
   8  -7  -3  128.39   16.80
  -8   7   3  156.58   22.50
   7  -7  -3   36.20   10.60
   7  -7  -3   11.70    9.80
   7  -7  -3   13.60    8.20
  -7   7   3   25.70   14.60
   6  -7  -3  720.63   40.40
   6  -7  -3  768.92   42.20
   6  -7  -3  769.72   40.10
  -6   7   3  820.92   47.40
   5  -7  -3   28.80    9.50
   5  -7  -3   47.30   10.60
   5  -7  -3   32.90    9.00
   4  -7  -3    9.00    5.80
   4  -7  -3    9.70    7.50
  -4   7   3   11.30    6.20
  -4   7   3    5.30    9.20
   3  -7  -3   60.39   12.30
   3  -7  -3   69.99   10.30
   3  -7  -3   71.19   15.60
  -3   7   3   77.79   10.70
   2  -7  -3 1525.45   66.59
   2  -7  -3 1567.44   70.49
   2  -7  -3 1589.84   72.69
  -2   7   3 1576.64   67.29
   1  -7  -3   83.99   16.50
   1  -7  -3   51.29   12.40
   1  -7  -3   67.89    9.00
  -1   7   3   62.19    9.40
   0  -7  -3    8.40    4.80
   0  -7  -3   -3.20    9.90
   0  -7  -3    4.30    8.20
   0   7   3    3.60    4.60
  -1  -7  -3   20.00    9.00
  -1  -7  -3   26.60    6.00
   1   7   3   34.10    7.40
   1   7   3    9.30   11.40
  -2  -7  -3  110.99   10.60
  -2  -7  -3  103.59   14.00
   2   7   3  102.59   10.50
   2   7   3  127.79   20.30
  -3  -7  -3  101.59   10.70
  -3  -7  -3  132.09   15.20
   3   7   3   65.79   16.30
   3   7   3   96.39   10.50
  -4  -7  -3  249.78   23.20
  -4  -7  -3  211.28   16.10
   4   7   3  219.38   25.20
   4   7   3  232.98   15.60
  -5  -7  -3   42.80    9.40
  -5  -7  -3   51.69   13.10
   5   7   3   29.30    7.50
   5   7   3   40.40   16.60
  -6  -7  -3    2.90    7.60
  -6  -7  -3   11.90   11.00
   6   7   3   31.30   20.00
   6   7   3    9.00    6.20
  -7  -7  -3  115.49   18.50
  -7  -7  -3   74.89   13.80
   7   7   3   61.69   22.30
  -8  -7  -3  149.29   20.90
  -8  -7  -3  111.89   17.20
   8   7   3  156.48   15.40
  -9  -7  -3   28.20   14.60
  -9  -7  -3   19.40   11.20
   9   7   3   21.50    9.00
 -10  -7  -3   25.10   13.30
 -10  -7  -3   27.60   15.80
  10   7   3    2.60    8.60
  13  -8  -3   77.69   20.10
 -13   8   3   79.79   26.90
  12  -8  -3   -8.90    7.80
 -12   8   3  -11.90   13.10
  11  -8  -3  240.88   26.00
 -11   8   3  195.98   35.20
  10  -8  -3   10.60   10.00
 -10   8   3    3.20   13.00
   9  -8  -3  451.55   33.20
  -9   8   3  396.96   37.20
   8  -8  -3   19.70   10.50
   8  -8  -3   12.30    9.50
  -8   8   3   12.20   14.30
   7  -8  -3  230.08   20.40
   7  -8  -3  261.67   23.40
  -7   8   3  246.58   27.80
   6  -8  -3   25.00    9.30
   6  -8  -3    4.50    7.30
   6  -8  -3   25.40   10.00
  -6   8   3   17.10   13.40
   5  -8  -3  286.57   22.40
   5  -8  -3  250.07   20.90
   5  -8  -3  258.77   20.80
  -5   8   3  276.77   27.60
   4  -8  -3  240.78   18.60
   4  -8  -3  209.68   19.40
  -4   8   3  242.28   19.30
   3  -8  -3  192.98   16.40
   3  -8  -3  168.88   21.20
   3  -8  -3  140.09   17.60
  -3   8   3  221.58   17.20
   2  -8  -3    8.70    9.40
   2  -8  -3   -4.40    4.00
   2  -8  -3  -11.60    8.70
  -2   8   3   -4.80    4.70
   1  -8  -3  116.29   11.50
   1  -8  -3   76.69   16.90
   1  -8  -3  103.29   18.60
   0  -8  -3  103.79   11.00
   0  -8  -3  114.59   16.70
   0  -8  -3   74.29   17.10
   0   8   3  116.29   12.10
  -1  -8  -3   31.70   11.70
  -1  -8  -3   25.20    7.00
   1   8   3   27.00    7.70
  -2  -8  -3   69.29    9.90
  -2  -8  -3   95.29   15.00
   2   8   3  115.49   21.20
   2   8   3   75.19   10.30
  -3  -8  -3  132.49   12.90
  -3  -8  -3  131.29   20.40
   3   8   3  101.59   21.90
   3   8   3  143.99   12.70
  -4  -8  -3   83.19   11.50
  -4  -8  -3   59.79   13.50
   4   8   3   56.99   20.00
   4   8   3   88.19   11.00
  -5  -8  -3   13.70    7.80
  -5  -8  -3   15.30   11.20
   5   8   3   -6.90    5.00
   5   8   3   32.60   18.40
  -6  -8  -3   18.50    9.10
  -6  -8  -3   53.39   14.90
   6   8   3   12.20    6.90
   6   8   3   16.00   19.40
  -7  -8  -3    6.20    9.20
  -7  -8  -3    0.30   11.80
   7   8   3   14.50   11.30
  -8  -8  -3   29.40   15.30
  -8  -8  -3   10.90   10.50
   8   8   3   10.10    8.10
  -9  -8  -3   20.50   12.60
   9   8   3   17.60    9.50
  12  -9  -3   15.90   12.10
 -12   9   3   10.20   17.90
  11  -9  -3   26.70   13.40
 -11   9   3   38.00   20.50
  10  -9  -3   45.40   15.00
   9  -9  -3   -3.10    8.50
  -9   9   3   27.30   17.30
   8  -9  -3   56.69   14.30
  -8   9   3   46.90   18.30
   7  -9  -3   28.40   11.40
   7  -9  -3   16.00    9.90
  -7   9   3   21.20   14.40
   6  -9  -3    5.10    8.20
   6  -9  -3    7.10    7.90
  -6   9   3   11.90   12.70
   5  -9  -3   29.40   10.80
   5  -9  -3   24.50   10.80
   5  -9  -3   15.80    7.70
  -5   9   3   24.70   14.80
   4  -9  -3   14.80    9.80
   4  -9  -3    8.00   13.00
   4  -9  -3    8.40    7.40
   3  -9  -3   42.30   15.10
   3  -9  -3   26.00   11.20
   3  -9  -3   13.00    7.10
  -3   9   3   35.50    9.90
   2  -9  -3   54.99   15.30
   2  -9  -3   62.69   11.20
  -2   9   3   31.50    9.60
   1  -9  -3   47.30   15.40
   1  -9  -3   57.69   10.20
   1  -9  -3   43.10   15.10
  -1   9   3   88.29   12.20
   0  -9  -3   17.90   12.10
   0  -9  -3   25.10    7.60
   0  -9  -3   18.20   13.70
   0   9   3    5.90    6.90
  -1  -9  -3   16.20    7.10
  -1  -9  -3   25.20   14.60
   1   9   3   11.20    8.50
  -2  -9  -3   79.69   11.00
  -2  -9  -3   63.19   15.40
   2   9   3   51.49   19.50
   2   9   3   74.69   11.10
  -3  -9  -3  225.58   17.20
  -3  -9  -3  187.28   21.50
   3   9   3  234.98   16.80
   3   9   3  207.48   28.80
  -4  -9  -3   16.10    8.00
  -4  -9  -3   16.40   12.20
   4   9   3   22.20    8.00
   4   9   3  -16.10   14.70
  -5  -9  -3   19.90    8.50
  -5  -9  -3   36.00   13.70
   5   9   3   27.40   20.10
   5   9   3   18.60    7.80
  -6  -9  -3   35.60   16.00
  -6  -9  -3   27.20   10.20
   6   9   3   24.20   23.00
   6   9   3   32.00   10.50
  -7  -9  -3   -7.70   12.10
  -7  -9  -3    2.30    9.40
   7   9   3    3.70    9.40
  -8  -9  -3    1.70   10.90
  -8  -9  -3    2.00   13.40
   8   9   3   13.50    8.80
  -9  -9  -3   63.59   19.50
  -9  -9  -3   50.19   15.00
   9   9   3   45.70   11.30
  11 -10  -3   13.80   11.50
 -11  10   3   16.10   19.10
  10 -10  -3   19.10   11.50
 -10  10   3    2.80   16.80
   9 -10  -3   11.30   11.00
  -9  10   3   12.60   18.10
   8 -10  -3    2.30    8.20
  -8  10   3    7.60   14.80
   7 -10  -3  149.88   19.70
  -7  10   3  155.28   30.90
   6 -10  -3   37.70   12.10
   6 -10  -3   39.80   12.30
  -6  10   3   47.20   18.40
   5 -10  -3   23.30   10.80
   5 -10  -3   41.70   13.20
   5 -10  -3   15.90   16.90
   4 -10  -3    4.70    8.50
   4 -10  -3   15.70    8.50
   4 -10  -3    5.40   14.10
   4 -10  -3   21.60   12.00
   3 -10  -3   38.10   14.40
   3 -10  -3   45.30   10.70
   3 -10  -3   33.70   16.40
  -3  10   3   59.09   12.70
   2 -10  -3   -5.70   11.30
   2 -10  -3   11.40   12.80
  -2  10   3   15.30    8.70
   1 -10  -3   73.09   12.10
   1 -10  -3  141.49   24.80
   1 -10  -3  113.89   22.70
  -1  10   3   91.09   13.80
   0 -10  -3   13.70    7.20
   0 -10  -3   -0.80   11.10
   0 -10  -3   10.40   15.00
   0  10   3   18.90    8.80
  -1 -10  -3   92.39   18.60
  -1 -10  -3   65.29   11.20
  -1 -10  -3   85.19   22.50
   1  10   3   90.49   12.80
  -2 -10  -3   49.40    9.90
  -2 -10  -3   54.59   14.70
   2  10   3   88.79   12.60
  -3 -10  -3  103.49   13.60
  -3 -10  -3  130.49   19.80
   3  10   3  121.99   32.00
  -4 -10  -3    5.60    7.70
  -4 -10  -3   15.10   14.00
   4  10   3   16.40   10.60
   4  10   3   14.80   22.20
  -5 -10  -3    3.40   12.90
  -5 -10  -3    1.30    7.70
   5  10   3    4.50   10.30
   5  10   3   18.20   20.80
  -6 -10  -3   18.40   10.40
  -6 -10  -3   17.00   14.60
   6  10   3   27.60   13.50
  -7 -10  -3   19.90   11.40
  -7 -10  -3   49.00   17.10
   7  10   3   42.80   15.50
  -8 -10  -3   39.40   18.40
   8  10   3   68.59   13.80
  10 -11  -3   30.00   13.70
 -10  11   3   54.19   26.50
   9 -11  -3    2.40    7.60
  -9  11   3   -9.70   15.50
   8 -11  -3  182.68   23.00
  -8  11   3  147.89   31.70
   7 -11  -3   20.90   11.20
  -7  11   3   12.20   17.20
   6 -11  -3   -3.50   14.90
   6 -11  -3    0.50    8.00
   5 -11  -3   29.50   18.00
   5 -11  -3   20.00   11.60
   5 -11  -3   52.09   14.50
   4 -11  -3  161.48   19.40
   4 -11  -3  147.29   20.60
   4 -11  -3  168.98   29.70
   3 -11  -3    9.20   14.00
   3 -11  -3    5.90    8.10
   3 -11  -3   18.40    9.40
   3 -11  -3   19.40   15.40
   2 -11  -3   -0.80   12.50
   2 -11  -3   -0.50    6.90
   2 -11  -3    9.10   14.20
  -2  11   3   -0.20    7.90
   1 -11  -3    4.80   12.40
   1 -11  -3   23.90   16.50
   1 -11  -3   16.00    8.00
  -1  11   3   26.50   11.30
   0 -11  -3   -9.30   10.50
   0 -11  -3    1.90   14.70
   0 -11  -3   12.10    7.60
   0  11   3    5.40    7.90
  -1 -11  -3  146.59   22.10
  -1 -11  -3  107.19   14.00
  -1 -11  -3  127.09   40.30
   1  11   3  133.69   15.60
  -2 -11  -3  154.88   22.20
  -2 -11  -3   94.49   25.00
  -2 -11  -3  103.09   14.00
   2  11   3  111.39   14.50
  -3 -11  -3   15.10   13.40
  -3 -11  -3   -1.50    7.20
   3  11   3   22.80   21.70
   3  11   3    1.00    8.40
  -4 -11  -3   21.70   10.10
  -4 -11  -3   15.80   14.90
   4  11   3   10.00    8.50
   4  11   3  -13.30   25.60
  -5 -11  -3   55.59   17.70
  -5 -11  -3   50.69   12.20
   5  11   3   50.89   15.70
  -6 -11  -3    8.90   16.00
  -6 -11  -3   12.80   11.10
   6  11   3   -0.40   12.10
   9 -12  -3   90.39   20.70
  -9  12   3   11.20   18.80
   8 -12  -3   -2.60    9.20
   7 -12  -3    8.80   10.50
   7 -12  -3   18.50   21.10
   6 -12  -3   75.09   24.60
   6 -12  -3   69.39   17.50
   5 -12  -3   47.30   21.20
   5 -12  -3   33.00   11.70
   4 -12  -3   18.60    9.70
   4 -12  -3   44.30   18.80
   4 -12  -3   18.30   15.10
   3 -12  -3    4.40    8.90
   3 -12  -3   29.50   15.80
   3 -12  -3   -8.70   13.90
   2 -12  -3   38.10   12.40
   2 -12  -3   44.70   18.10
   2 -12  -3   19.60   14.60
   1 -12  -3    6.30    8.20
   1 -12  -3    3.80   15.10
   1 -12  -3    4.90   13.60
  -1  12   3   -0.40    7.90
   0 -12  -3   28.10    9.80
   0 -12  -3   46.60   17.80
   0 -12  -3   12.20   16.70
   0  12   3   34.30   11.20
  -1 -12  -3    5.10   16.80
  -1 -12  -3    0.80   13.30
  -1 -12  -3  -10.50   13.90
   1  12   3   10.00    9.20
  -2 -12  -3   26.70   20.70
  -2 -12  -3    6.40   14.50
  -2 -12  -3   -1.70    8.20
   2  12   3    3.80    8.90
  -3 -12  -3   13.40    9.70
  -3 -12  -3    2.20   14.00
   3  12   3   -1.00    8.00
  -4 -12  -3   27.30   11.20
  -4 -12  -3   38.80   19.20
   4  12   3   48.40   11.70
  -5 -12  -3    0.20   15.90
  -5 -12  -3    9.00   10.90
   5  12   3    7.30   11.10
   7 -13  -3   49.99   24.60
   7 -13  -3   68.69   18.80
   6 -13  -3   35.20   22.20
   6 -13  -3   17.50   12.80
   5 -13  -3    2.40   10.20
   5 -13  -3   52.79   21.60
   4 -13  -3   92.69   19.20
   4 -13  -3   88.09   26.20
   3 -13  -3   15.10   17.20
   3 -13  -3   24.40   11.80
   2 -13  -3    4.80   15.10
   2 -13  -3   10.90   10.80
   1 -13  -3   20.80   10.50
   1 -13  -3   16.50   16.70
   0 -13  -3    9.00    9.70
   0 -13  -3   -9.80   15.30
  -1 -13  -3    6.00    9.20
  -1 -13  -3   -7.90   14.80
   1  13   3   13.70   10.50
  -2 -13  -3   12.10   15.90
  -2 -13  -3    5.70   13.80
   2  13   3   18.80   10.40
  -3 -13  -3    2.30   10.60
  -3 -13  -3   26.40   16.90
   3  13   3   14.50    9.90
   4 -14  -3   20.70   19.90
   4 -14  -3    8.90   10.90
   3 -14  -3  125.89   29.20
   3 -14  -3   58.69   19.90
   2 -14  -3   -4.90   17.40
   2 -14  -3    7.20   11.10
   1 -14  -3   12.60   12.00
   1 -14  -3   17.10   19.10
  -2 -15   4   33.80   25.40
  -1 -15   4   11.20   11.60
  -1 -15   4    4.70    8.00
  -1 -15   4   34.80   24.20
   0 -15   4   23.40   22.40
   0 -15   4   17.80    8.70
   1 -15   4   -2.30   20.50
   1 -15   4    2.60    8.30
   1 -15   4   -3.00    9.40
   2 -15   4   11.00   10.40
   2 -15   4   14.00   10.30
   2 -15   4   22.10   22.30
   3 -15   4   50.19   29.20
   3 -15   4   27.10   12.10
   4 -15   4   22.70   23.80
   4 -15   4   24.40   13.00
   5 -15   4   21.50   12.30
   5 -15   4   48.50   28.00
  -4 -14   4   -8.10   18.50
  -3 -14   4   72.59   27.90
  -2 -14   4   -0.40    3.80
  -2 -14   4   -3.50   19.00
  -2 -14   4    7.20    4.60
  -1 -14   4   -3.40   17.90
  -1 -14   4    5.90    7.20
  -1 -14   4    3.20    6.40
   0 -14   4    6.90    6.80
   0 -14   4   -7.10   17.90
   0 -14   4   -2.20    7.70
   1 -14   4   38.10   10.70
   1 -14   4   15.30   19.90
   1 -14   4   40.30   10.40
   2 -14   4   16.50    9.80
   2 -14   4   32.60   22.40
   2 -14   4   13.90    9.50
   3 -14   4   27.20   24.50
   3 -14   4   54.29   13.80
   3 -14   4   48.10   12.60
   4 -14   4   26.60   22.80
   4 -14   4   21.10   11.40
   5 -14   4    7.20   10.50
   5 -14   4   10.00   21.90
   6 -14   4    1.50   11.00
   6 -14   4   -0.60   21.40
   7 -14   4   16.10   27.80
   7 -14   4   22.20   12.50
  -6 -13   4   16.20   21.20
  -5 -13   4   39.50   22.50
  -4 -13   4  111.19   27.70
  -3 -13   4    1.40   17.50
  -2 -13   4   -3.10    4.60
  -2 -13   4    6.00    4.20
  -1 -13   4   10.10    7.10
  -1 -13   4   16.40   20.10
  -1 -13   4    9.70    7.10
   0 -13   4    8.40   16.70
   0 -13   4   20.10    8.50
   0 -13   4   14.00    6.90
   1 -13   4   43.10   10.30
   1 -13   4   45.70   11.40
   1 -13   4  101.19   31.20
   2 -13   4   56.29   12.10
   2 -13   4   89.89   14.20
   2 -13   4   63.69   23.30
   3 -13   4   46.00   11.90
   3 -13   4   16.50    9.50
   3 -13   4   11.60   32.40
   4 -13   4   -4.10    8.00
   4 -13   4   -2.70   17.70
   5 -13   4   16.60   10.50
   5 -13   4   29.30   27.30
   6 -13   4   43.70   14.00
   6 -13   4   45.70   26.40
   7 -13   4   -3.10    9.40
   7 -13   4    3.30   19.20
   8 -13   4    5.50   10.00
   8 -13   4   12.20   25.00
  -9  13  -4    8.10   21.40
   9 -13   4   34.70   15.00
  -7 -12   4  -11.00   17.10
  -6 -12   4   42.80   20.90
  -5 -12   4   25.70   18.70
  -4 -12   4   14.80   17.60
  -3 -12   4   44.30   20.90
  -2 -12   4   87.89    8.00
  -2 -12   4  110.09   26.00
  -2 -12   4  121.49    9.50
  -1 -12   4   21.10    5.90
  -1 -12   4   22.80    7.20
  -1 -12   4   -0.30   14.50
   0 -12   4   14.50    5.80
   0 -12   4  -19.10   12.60
   0 -12   4    3.20    6.90
   1 -12   4   21.80   20.00
   1 -12   4   15.20    7.70
   1 -12   4   14.40   14.10
   2 -12   4   33.10   21.30
   2 -12   4    5.80    7.00
   2 -12   4   -3.30    7.00
   3 -12   4   25.60    9.40
   3 -12   4    3.90   16.50
   3 -12   4    8.70   12.90
   4 -12   4  173.98   18.10
   4 -12   4  174.78   18.90
   4 -12   4  157.48   32.50
   5 -12   4   70.59   23.00
   5 -12   4   34.10   11.10
   6 -12   4    4.80    9.20
   6 -12   4   -2.50   17.80
   7 -12   4   37.70   23.80
  -8  12  -4  165.58   38.10
   8 -12   4  158.58   22.10
  -9  12  -4   20.60   23.70
   9 -12   4    4.30    9.00
 -10  12  -4   18.40   25.50
  10 -12   4   -1.60    9.50
  -9 -11   4   15.50   18.90
  -8 -11   4   91.39   24.40
  -7 -11   4   17.30   17.80
  -6 -11   4   52.39   30.90
  -5 -11   4   20.80   17.30
  -4 -11   4  116.19   26.70
  -3 -11   4   35.60   18.10
  -2 -11   4  102.19    8.60
  -2 -11   4  141.89   27.50
  -2 -11   4   74.39    7.00
  -1 -11   4    6.40    5.00
  -1 -11   4   21.40    6.50
  -1 -11   4   11.70   16.20
   0 -11   4   44.20   18.60
   0 -11   4   42.70    8.10
   0 -11   4   67.79   10.50
   0 -11   4   26.70   21.80
   1 -11   4   47.90    9.30
   1 -11   4   36.40    9.70
   1 -11   4   49.80   20.30
   1 -11   4   44.10   25.40
   2 -11   4   80.69   22.90
   2 -11   4   40.10   10.60
   2 -11   4   64.39   11.20
   3 -11   4   17.30   17.80
   3 -11   4   40.00    9.70
   3 -11   4   39.00   10.30
   4 -11   4  -12.30    5.50
   4 -11   4  -10.50    5.20
   4 -11   4  -17.70   12.70
   5 -11   4   -1.50    7.10
   5 -11   4  -13.00    5.20
   5 -11   4   -1.00   15.90
  -6  11  -4  101.49   31.30
   6 -11   4  122.89   17.60
   7 -11   4   82.29   17.70
  -8  11  -4   -0.50   19.20
   8 -11   4    5.70    9.20
  -9  11  -4    9.00   21.60
   9 -11   4    8.00   10.60
 -10  11  -4  -23.30   18.80
  10 -11   4   -1.20    8.40
 -11  11  -4  118.89   37.00
  11 -11   4   92.69   19.60
 -10 -10   4    9.00   18.70
  -9 -10   4   44.80   19.00
  -8 -10   4  -11.80   15.00
  -6 -10   4   -8.00   13.40
  -5 -10   4   63.39   19.50
  -4 -10   4    2.60   14.00
   3  10  -4   84.09   25.20
  -3 -10   4  101.89   22.10
   2  10  -4    1.10   15.90
  -2 -10   4    4.60    3.80
  -2 -10   4   15.90   15.60
  -2 -10   4    5.00    3.30
   1  10  -4   24.20   17.50
  -1 -10   4   19.90    5.20
  -1 -10   4   19.40    5.60
  -1 -10   4   19.50   14.60
   0 -10   4  138.09   27.30
   0 -10   4  101.89   10.90
   0 -10   4  128.79   29.50
   0 -10   4   62.89   10.40
   1 -10   4   94.09   23.50
   1 -10   4   70.09   20.00
   1 -10   4   72.79   10.80
   1 -10   4   93.49   11.90
   2 -10   4   60.99   20.10
   2 -10   4   62.19   21.50
   2 -10   4   39.80    8.90
   2 -10   4   62.29   10.80
   3 -10   4   -0.80   13.90
   3 -10   4    4.20    6.80
   3 -10   4    3.00    5.90
   3 -10   4   -1.10   11.80
   4 -10   4  228.28   19.10
   4 -10   4  243.88   20.10
   4 -10   4  211.58   30.10
   4 -10   4  211.98   27.00
  -5  10  -4   76.99   23.80
   5 -10   4   39.60   11.50
   5 -10   4   55.29   11.50
  -6  10  -4    0.30   16.70
   6 -10   4   -3.40    6.30
  -7  10  -4   12.50   19.80
   7 -10   4   19.50    9.80
   8 -10   4  143.59   19.40
  -9  10  -4   62.99   25.50
   9 -10   4   59.79   14.90
 -10  10  -4   98.09   30.70
  10 -10   4   84.59   18.30
 -11  10  -4  -16.30   16.50
  11 -10   4   30.20   12.60
 -10  -9   4   23.30   17.10
  -9  -9   4   -0.30   16.00
  -7  -9   4   -8.90   13.40
  -6  -9   4   16.10   14.90
   5   9  -4   52.89   34.30
  -5  -9   4   99.99   20.90
   4   9  -4   47.20   18.30
  -4  -9   4   37.00   16.50
   3   9  -4   79.19   22.30
  -3  -9   4   95.29   21.60
  -2  -9   4  166.18   23.30
   1   9  -4  565.04   41.30
  -1  -9   4  541.45   25.40
  -1  -9   4  554.34   40.60
  -1  -9   4  588.14   26.30
   0  -9   4   45.90    7.80
   0  -9   4   71.49   18.90
   0  -9   4   45.40   18.40
   0  -9   4   32.90    6.50
   1  -9   4   34.90   16.60
   1  -9   4   31.40    7.50
   1  -9   4   51.99    8.60
   1  -9   4   53.39   20.80
   2  -9   4   76.99   20.60
   2  -9   4   96.29   11.80
   2  -9   4   81.99   21.10
   2  -9   4   93.49   11.20
   3  -9   4  681.53   34.60
   3  -9   4  608.94   45.80
   3  -9   4  662.53   35.20
   3  -9   4  767.02   64.79
   4  -9   4   56.59   16.50
   4  -9   4   18.40    7.40
   4  -9   4   21.80    9.40
   4  -9   4   65.39   21.70
  -5   9  -4   17.60   16.80
   5  -9   4   20.20   13.40
   5  -9   4   10.70    8.30
   5  -9   4   21.60    9.00
  -6   9  -4   81.69   24.10
   6  -9   4   25.20    8.50
   6  -9   4   22.40    9.30
  -7   9  -4  134.89   30.70
   7  -9   4  140.89   17.70
  -8   9  -4   -6.50   14.80
   8  -9   4   -3.40    6.80
  -9   9  -4  180.98   35.30
   9  -9   4  142.19   26.60
 -10   9  -4   12.70   17.40
  10  -9   4   -0.80    7.50
 -11   9  -4    8.60   20.60
  11  -9   4    5.80    9.20
 -12   9  -4   -4.10   18.30
  12  -9   4   20.00   12.70
 -11  -8   4   11.90   17.20
 -10  -8   4   17.40   14.90
  -9  -8   4    9.40   16.00
  -8  -8   4   83.39   21.20
  -7  -8   4   73.89   20.00
   6   8  -4  -14.20   15.40
  -6  -8   4   -5.30   11.40
   5   8  -4  157.48   29.60
  -5  -8   4  217.28   23.80
  -4  -8   4   11.70   11.70
   3   8  -4  226.38   26.80
  -3  -8   4  241.78   25.10
   2   8  -4  367.56   31.50
  -2  -8   4  358.66   15.80
  -2  -8   4  427.16   32.00
  -2  -8   4  352.06   15.30
   1   8  -4   23.30   13.70
  -1  -8   4   16.60    4.30
  -1  -8   4   12.40   11.80
  -1  -8   4    7.60    3.80
   0  -8   4   37.70   15.00
   0  -8   4   20.70    5.40
   0  -8   4   21.30    5.80
   0  -8   4   32.60   13.70
   1  -8   4   37.60    8.20
   1  -8   4   55.39    8.70
   1  -8   4   53.39   16.60
   1  -8   4   53.39   16.70
   2  -8   4   73.19   19.70
   2  -8   4   57.39    9.60
   2  -8   4   65.79   18.90
   2  -8   4   50.19    8.90
   3  -8   4   12.90    7.00
   3  -8   4   33.00   14.00
   3  -8   4   12.30   13.70
   3  -8   4   15.00    6.20
  -4   8  -4   -2.50    6.10
  -4   8  -4    7.20   14.70
   4  -8   4   -0.90   10.00
   4  -8   4    8.10    6.30
  -5   8  -4   18.60   14.80
  -5   8  -4   16.40    8.00
   5  -8   4   34.40   14.60
   5  -8   4   25.10    9.80
  -6   8  -4   98.59   23.80
  -6   8  -4   95.99   14.80
   6  -8   4  112.09   17.60
   6  -8   4   94.39   14.10
  -7   8  -4    3.80   12.30
  -7   8  -4  -15.80    6.80
   7  -8   4   -0.70    6.60
  -8   8  -4   -1.60   14.50
   8  -8   4    4.60    7.00
  -9   8  -4   -4.10   13.90
   9  -8   4   -2.70    7.80
 -10   8  -4   10.80   16.40
  10  -8   4   35.60   12.40
 -11   8  -4    8.40   17.30
  11  -8   4   16.70   11.40
 -12   8  -4  -26.50   15.60
  12  -8   4    9.00   10.70
  12   7  -4    8.20    6.70
  12   7  -4   -3.10    6.90
 -12  -7   4   14.00   15.60
  11   7  -4    3.30    5.60
 -11  -7   4    2.60   14.80
  10   7  -4   72.19    8.60
  10   7  -4  106.19    9.80
 -10  -7   4  125.19   23.60
   9   7  -4    2.10    4.10
   9   7  -4    4.60    4.20
  -9  -7   4   -3.10   12.30
   8   7  -4   14.60    3.30
   8   7  -4   12.30    3.50
  -8  -7   4   12.10   13.40
  -7  -7   4    2.10   10.30
   6   7  -4   69.29   20.40
  -6  -7   4  121.39   18.80
   5   7  -4  180.38   28.30
  -5  -7   4  190.18   21.80
   4   7  -4  295.57   29.70
  -4  -7   4  384.16   29.30
   3   7  -4   12.60   10.30
  -3  -7   4   15.60   10.80
   2   7  -4   13.40   11.10
  -2  -7   4   10.00    3.10
  -2  -7   4    3.90    9.20
  -2  -7   4    6.30    1.80
   1   7  -4    6.80   11.20
  -1  -7   4    8.00    3.30
  -1  -7   4   -1.00    9.20
  -1  -7   4   11.80    3.60
   0  -7   4   88.59    8.70
   0  -7   4   94.39    8.80
   0  -7   4  121.39   18.90
   0  -7   4   99.69   20.00
   1  -7   4   46.80   16.40
   1  -7   4   26.20    6.20
   1  -7   4   25.10   13.00
  -2   7  -4  -10.90    5.00
   2  -7   4   -3.00    5.90
   2  -7   4    9.30   10.80
  -3   7  -4  311.27   29.50
  -3   7  -4  313.07   20.50
   3  -7   4  302.47   20.20
   3  -7   4  317.17   27.60
  -4   7  -4    3.70    5.40
  -4   7  -4   32.80   15.50
   4  -7   4    0.60    9.80
   4  -7   4    2.70    5.90
  -5   7  -4   70.29   12.60
  -5   7  -4   65.89   19.00
   5  -7   4   88.19   17.30
   5  -7   4   75.19   13.40
  -6   7  -4   -1.10   12.30
   6  -7   4    5.80    9.00
   6  -7   4   -4.80    4.90
  -7   7  -4  116.89   24.50
  -7   7  -4   82.79   15.50
   7  -7   4   90.49   14.20
   7  -7   4   73.59   15.80
  -8   7  -4   17.30   14.80
   8  -7   4   24.90   10.10
  -9   7  -4  166.88   30.90
   9  -7   4  179.88   20.20
 -10   7  -4   35.90   28.80
  10  -7   4   20.30   14.60
 -11   7  -4   35.40   20.50
  11  -7   4   35.90   13.10
 -12   7  -4   -8.90   15.00
  12  -7   4   10.20   10.50
 -13   7  -4   36.60   23.10
  13  -7   4   51.29   16.50
  12   6  -4    5.20    7.90
  12   6  -4    6.00   11.40
 -12  -6   4    8.70   13.80
  11   6  -4   16.30    7.60
  11   6  -4   17.00    8.00
 -11  -6   4    4.00   12.80
  10   6  -4    8.20    6.00
  10   6  -4   11.50    6.40
   9   6  -4   22.90    6.20
   9   6  -4   15.70    5.90
  -9  -6   4   48.60   17.90
   8   6  -4   78.59    7.90
   8   6  -4   80.09    8.10
  -8  -6   4  117.89   19.30
   7   6  -4   91.69   21.00
   7   6  -4   54.49    5.60
   7   6  -4   78.69    6.20
  -7  -6   4  105.09   18.50
  -6  -6   4  418.76   29.70
   5   6  -4  182.78   22.40
  -5  -6   4  216.68   21.40
   4   6  -4  273.17   25.80
  -4  -6   4  319.97   25.50
   3   6  -4  104.79   17.40
  -3  -6   4   59.29   14.30
   2   6  -4  158.28   19.70
  -2  -6   4  204.18   20.90
   1   6  -4   26.20   11.10
  -1  -6   4    7.00   10.50
  -1  -6   4    5.50    3.50
  -1  -6   4    3.90    3.50
   0   6  -4  254.97   14.40
   0   6  -4  251.47   23.20
   0  -6   4  255.17   14.10
   0  -6   4  261.77   24.10
  -1   6  -4    3.30    4.00
   1  -6   4   -4.00    9.00
   1  -6   4   -4.70   10.80
   1  -6   4   -3.90    3.20
  -2   6  -4 1976.70   78.99
   2  -6   4 1901.11   88.09
   2  -6   4 1905.51   78.49
   2  -6   4 1875.21   87.39
  -3   6  -4   92.69   12.50
  -3   6  -4  142.79   21.40
   3  -6   4  129.49   18.00
   3  -6   4  120.79   12.40
  -4   6  -4  442.96   26.10
  -4   6  -4  431.76   33.50
   4  -6   4  457.35   30.40
   4  -6   4  434.06   25.70
  -5   6  -4   10.00    6.30
  -5   6  -4    3.20   10.30
   5  -6   4   16.40    7.60
   5  -6   4   11.80    8.90
  -6   6  -4   55.79   13.20
  -6   6  -4   26.00   13.90
   6  -6   4   69.09   12.50
   6  -6   4   78.29   16.00
  -7   6  -4   14.90    8.70
  -7   6  -4   16.30   12.10
   7  -6   4   27.60    9.80
   7  -6   4   31.60   10.40
  -8   6  -4  891.01   55.69
   8  -6   4  885.71   62.19
   8  -6   4  845.82   46.80
  -9   6  -4   -5.40   12.80
   9  -6   4    8.30    8.40
 -10   6  -4   -6.60   13.10
  10  -6   4   -1.60    6.70
 -11   6  -4    4.30   13.60
  11  -6   4    5.50   10.00
 -12   6  -4  236.08   32.70
  12  -6   4  222.48   24.90
 -13   6  -4   10.00   15.70
  13  -6   4    1.00    8.60
  13   5  -4   19.40   12.90
  13   5  -4   20.00   10.30
 -13  -5   4   31.60   16.80
  12   5  -4    9.00    8.50
  12   5  -4   -3.50    7.30
 -12  -5   4    9.60   13.50
  11   5  -4   -5.00    6.70
  11   5  -4    3.30    7.30
 -11  -5   4   12.60   12.40
  10   5  -4   53.69    9.30
  10   5  -4   52.09    9.30
 -10  -5   4   34.00   15.40
   9   5  -4  205.48   14.60
   9   5  -4  200.98   14.70
  -9  -5   4  193.18   23.10
   8   5  -4  172.28   25.10
   8   5  -4  183.08   12.90
   8   5  -4  205.68   13.30
  -8  -5   4  188.98   21.80
   7   5  -4  113.19   22.40
   7   5  -4  151.98   10.00
   7   5  -4  117.19    9.50
  -7  -5   4  156.98   18.80
   6   5  -4   36.20   12.60
  -6  -5   4   36.40   11.80
   5   5  -4  104.89   17.30
   5   5  -4   74.19    4.60
  -5  -5   4   96.99   15.30
   4   5  -4  268.57   23.50
   3   5  -4  561.34   34.50
  -3  -5   4  542.85   33.10
   2   5  -4   -0.70    7.60
  -2  -5   4   32.50   12.10
   1   5  -4  303.47   14.40
   1   5  -4  291.37   23.60
  -1  -5   4  308.07   14.00
  -1  -5   4  350.36   25.00
   0   5  -4   27.20    5.40
   0   5  -4   47.30   13.50
   0  -5   4   17.20    4.30
   0  -5   4   37.10   12.20
  -1   5  -4 2865.01  111.09
   1  -5   4 2849.22  120.19
   1  -5   4 2891.81  110.89
   1  -5   4 2772.92  120.49
  -2   5  -4   58.09    9.20
  -2   5  -4   89.49   19.00
   2  -5   4   72.09   14.70
   2  -5   4   50.89    8.30
  -3   5  -4   55.69    9.00
  -3   5  -4   73.49   15.80
   3  -5   4   77.19   15.30
   3  -5   4   64.79    9.10
  -4   5  -4   55.79   10.10
  -4   5  -4   69.99   16.60
   4  -5   4   78.59   14.70
   4  -5   4   74.49   10.20
  -5   5  -4  183.88   15.90
  -5   5  -4  149.49   20.60
   5  -5   4  208.88   18.30
   5  -5   4  158.08   15.00
  -6   5  -4   14.40   11.30
  -6   5  -4    5.30    6.10
   6  -5   4    7.40    5.60
   6  -5   4   14.20    7.70
  -7   5  -4   20.70    9.00
  -7   5  -4   20.40   12.60
   7  -5   4   13.00    7.90
   7  -5   4   32.60   14.00
  -8   5  -4   34.40   10.00
  -8   5  -4   19.10   13.00
   8  -5   4   38.20   11.30
   8  -5   4   37.10   10.40
  -9   5  -4   12.20   13.10
   9  -5   4    2.50    7.20
 -10   5  -4   14.50   14.20
  10  -5   4   22.00   10.10
 -11   5  -4   29.80   17.50
  11  -5   4   58.49   15.90
 -12   5  -4   29.40   17.60
  12  -5   4   13.10   11.00
 -13   5  -4   25.70   23.00
  13  -5   4    9.30   11.40
  13   4  -4    9.10    9.40
  13   4  -4    2.10    8.20
 -13  -4   4    4.80   13.00
  12   4  -4    0.00    7.60
  12   4  -4   14.60    8.40
 -12  -4   4    8.20   13.90
  11   4  -4  299.87   21.60
  11   4  -4  292.27   21.40
 -11  -4   4  310.37   29.80
  10   4  -4    8.30    6.90
  10   4  -4    4.90    6.30
 -10  -4   4   -7.80    9.80
   9   4  -4  239.08   16.50
   9   4  -4  221.68   16.20
  -9  -4   4  248.38   23.40
   8   4  -4   28.30   14.80
   8   4  -4   25.10    8.00
   8   4  -4   27.30    6.90
  -8  -4   4   34.20   12.70
   7   4  -4  289.47   15.90
   7   4  -4  250.07   15.50
   7   4  -4  316.77   27.10
  -7  -4   4  274.17   22.60
   6   4  -4   24.80   13.10
   6   4  -4   13.10    4.40
   6   4  -4   14.40    4.30
  -6  -4   4   32.90   10.50
   5   4  -4  286.97   14.20
   5   4  -4  276.77   23.70
   5   4  -4  309.47   14.30
  -5  -4   4  333.37   23.30
   4   4  -4    5.10    2.00
   4   4  -4    9.60    8.40
  -4  -4   4   14.80    8.50
   3   4  -4   -4.80    6.70
  -3  -4   4   -3.40    7.10
   2   4  -4  112.99    5.20
   2   4  -4  106.29   17.00
  -2  -4   4   86.79    5.30
  -2  -4   4  106.89   14.20
   1   4  -4   94.49    6.70
   1   4  -4  139.89   15.80
  -1  -4   4  102.49    6.20
  -1  -4   4   96.09   14.10
   0   4  -4  229.78   19.80
   0   4  -4  223.98   12.60
   0  -4   4  233.38   12.40
   0  -4   4  239.78   20.40
  -1   4  -4   78.29    8.30
   1  -4   4  104.59   15.80
   1  -4   4  138.19   16.70
   1  -4   4   88.19    8.30
  -2   4  -4   -3.60    3.80
  -2   4  -4   18.50   10.70
   2  -4   4   15.20    5.20
  -3   4  -4    4.70    4.60
  -3   4  -4   10.20    8.90
   3  -4   4  -11.60    6.20
   3  -4   4    0.90    4.20
  -4   4  -4   63.09    9.60
  -4   4  -4   53.99   14.20
   4  -4   4   67.09   11.30
   4  -4   4   65.79   12.50
  -5   4  -4   -3.00    4.40
  -5   4  -4   12.50    9.50
   5  -4   4    5.40    6.60
   5  -4   4   -3.20    4.50
  -6   4  -4  467.55   29.00
  -6   4  -4  511.45   34.00
   6  -4   4  506.95   29.60
   6  -4   4  508.35   29.20
  -7   4  -4   -5.00    5.50
  -7   4  -4   30.00   12.10
   7  -4   4   12.00    6.40
   7  -4   4   14.70    8.20
  -8   4  -4   21.40    8.80
  -8   4  -4   24.30   12.70
   8  -4   4   35.90   11.80
   8  -4   4   12.30    8.40
  -9   4  -4   91.09   19.40
   9  -4   4   84.09   15.10
 -10   4  -4    5.40   10.90
  10  -4   4    9.30    8.90
 -11   4  -4    4.60   16.30
  11  -4   4    3.20   11.80
 -12   4  -4   11.70   16.10
  12  -4   4   30.50   13.10
 -13   4  -4   22.40   17.80
  13  -4   4    2.80   10.80
  14   3  -4   47.80   14.50
 -14  -3   4   16.00   14.80
  13   3  -4   96.29   16.50
 -13  -3   4  131.69   22.60
  12   3  -4   91.79   14.60
  12   3  -4   87.09   14.30
 -12  -3   4   51.99   15.60
  11   3  -4   59.89   12.40
  11   3  -4   84.79   13.50
 -11  -3   4   73.19   18.70
  10   3  -4   29.30    9.00
  10   3  -4   28.80    8.60
 -10  -3   4   22.20   12.00
   9   3  -4   24.00    7.20
   9   3  -4   16.80   12.50
   9   3  -4    0.20    5.40
  -9  -3   4   14.60   11.10
   8   3  -4   19.30   11.10
   8   3  -4    3.90    5.50
   8   3  -4   19.80    6.90
  -8  -3   4   28.60   10.80
   7   3  -4  863.71   39.50
   7   3  -4  966.60   49.60
   7   3  -4  841.42   38.90
  -7  -3   4  914.31   45.30
   6   3  -4  120.49   15.70
   6   3  -4   82.49    9.10
   6   3  -4   69.09    9.00
  -6  -3   4   95.09   14.10
   5   3  -4  466.85   29.10
   5   3  -4  433.06   20.80
   5   3  -4  420.76   20.20
  -5  -3   4  452.55   27.00
   4   3  -4  143.19   15.20
   4   3  -4  109.19    7.60
   4   3  -4  105.89    7.20
  -4  -3   4  131.49   14.00
   3   3  -4  129.89    6.60
  -3  -3   4  114.59    6.90
  -3  -3   4  124.09   13.50
   2   3  -4   31.60    9.70
   2   3  -4   23.70    3.10
  -2  -3   4   31.80    9.60
  -2  -3   4   19.90    3.30
   1   3  -4   18.30    9.20
   1   3  -4   27.10    4.00
  -1  -3   4   23.10    3.70
  -1  -3   4   21.70    9.00
   0   3  -4   12.80    4.10
   0   3  -4   24.90    9.70
   0  -3   4   15.00    4.20
   0  -3   4   19.10    8.90
  -1   3  -4  411.16   26.80
  -1   3  -4  405.36   19.90
   1  -3   4  392.16   25.50
   1  -3   4  401.46   19.60
  -2   3  -4    3.80    4.60
  -2   3  -4    4.60    8.20
   2  -3   4    0.50    7.40
   2  -3   4    6.50    4.40
  -3   3  -4  231.08   19.80
  -3   3  -4  236.48   16.00
   3  -3   4  229.28   15.30
  -4   3  -4   -3.20    8.30
  -4   3  -4    0.40    4.20
   4  -3   4    7.20    6.30
   4  -3   4    5.10    4.70
  -5   3  -4  495.55   28.40
  -5   3  -4  541.25   32.20
   5  -3   4  512.85   28.60
   5  -3   4  531.65   28.50
  -6   3  -4  130.69   13.80
  -6   3  -4  138.09   17.10
   6  -3   4  137.59   13.80
   6  -3   4  145.69   14.60
  -7   3  -4 1229.18   58.19
  -7   3  -4 1177.78   60.79
   7  -3   4 1207.38   57.09
   7  -3   4 1268.87   57.69
  -8   3  -4    6.50    9.80
  -8   3  -4   -2.70    6.30
   8  -3   4    3.70    6.20
   8  -3   4    8.90    7.50
  -9   3  -4   13.10   11.90
  -9   3  -4    4.80    6.90
   9  -3   4   16.00    9.00
   9  -3   4   -2.20   10.90
 -10   3  -4    8.60   12.70
  10  -3   4   16.10    9.30
 -11   3  -4  108.49   33.00
  11  -3   4  153.88   19.40
 -12   3  -4   15.40   14.00
  12  -3   4   -6.70    7.90
 -13   3  -4   92.69   24.40
  13  -3   4   34.00   13.80
  14   2  -4   40.50   13.00
 -14  -2   4   15.90   12.80
  13   2  -4   15.10   10.50
 -13  -2   4   25.00   13.60
  12   2  -4   40.10   10.80
  12   2  -4   -2.70    7.50
 -12  -2   4   20.20   13.10
  11   2  -4    3.90    9.00
  11   2  -4   13.40    7.60
 -11  -2   4   31.10   11.60
  10   2  -4  112.99   13.80
  10   2  -4  132.19   14.40
 -10  -2   4  105.29   18.00
   9   2  -4    8.20    6.80
   9   2  -4    5.60   10.40
   9   2  -4   -2.10    5.40
  -9  -2   4    9.50    9.50
   8   2  -4   33.80    8.40
   8   2  -4   19.60    7.10
  -8  -2   4   37.40   11.90
   7   2  -4   -1.50    3.80
   7   2  -4    6.90    8.80
   7   2  -4   -8.50    3.00
  -7  -2   4    0.60    7.00
   6   2  -4    2.50    3.70
   6   2  -4   -1.80    3.30
   6   2  -4    1.70    6.90
  -6  -2   4    1.50    7.20
   5   2  -4  152.28   11.30
   5   2  -4  153.18   10.60
   5   2  -4  153.58   15.80
  -5  -2   4  184.08   15.50
   4   2  -4 1585.04   69.79
   4   2  -4 1648.24   63.69
  -4  -2   4 1622.04   68.49
   3   2  -4    2.70    6.60
   3   2  -4   -1.90    2.50
  -3  -2   4   -2.10    5.70
  -3  -2   4    0.10    2.70
   2   2  -4  177.98   15.00
   2   2  -4  183.38    9.50
  -2  -2   4  194.38    9.70
  -2  -2   4  197.38   15.10
   1   2  -4  115.49    7.40
   1   2  -4  137.79   13.50
  -1  -2   4  122.39    7.40
  -1  -2   4  146.59   13.30
   0   2  -4   43.10   10.50
   0   2  -4   45.90    5.90
   0  -2   4   62.79   11.00
   0  -2   4   41.40    5.50
  -1   2  -4    7.30    4.20
  -1   2  -4    6.30    8.90
   1  -2   4    9.90    7.60
   1  -2   4    4.60    4.00
  -2   2  -4   54.29   11.30
  -2   2  -4   53.09    8.20
   2  -2   4   62.49   10.00
   2  -2   4   49.30    7.20
  -3   2  -4   10.40    7.50
  -3   2  -4    7.10    5.90
   3  -2   4    5.90    4.30
   3  -2   4    2.00    5.90
  -4   2  -4  106.59   11.00
  -4   2  -4  115.49   13.70
   4  -2   4  105.49   10.80
   4  -2   4   99.59   11.20
  -5   2  -4  155.58   15.60
  -5   2  -4  120.19   12.70
   5  -2   4  137.09   13.10
   5  -2   4  110.09   12.00
  -6   2  -4  683.13   36.00
   6  -2   4  705.73   35.60
   6  -2   4  691.33   35.80
  -7   2  -4    2.00    5.60
  -7   2  -4    8.90    9.10
   7  -2   4    5.00    5.90
   7  -2   4    0.50    5.90
  -8   2  -4   33.40   12.50
  -8   2  -4   27.40    9.90
   8  -2   4   36.20    9.70
   8  -2   4   44.20   12.60
  -9   2  -4   19.40   10.00
  -9   2  -4   26.10   13.30
   9  -2   4   31.10   12.30
   9  -2   4   38.90   11.20
 -10   2  -4  234.38   25.80
  10  -2   4  230.98   21.60
 -11   2  -4    0.30   11.20
  11  -2   4    2.30    7.20
 -12   2  -4   13.80   13.90
  12  -2   4    2.90    9.10
 -13   2  -4   21.10   16.80
  13  -2   4   -5.20    8.70
  14   1  -4   12.60   10.50
 -14  -1   4   13.00   13.20
  13   1  -4   11.10    9.60
 -13  -1   4    2.50   10.70
  12   1  -4   15.00   11.20
  12   1  -4   26.70   10.40
 -12  -1   4   29.50   12.70
  11   1  -4   12.80    8.50
  11   1  -4    0.40    6.80
 -11  -1   4   -5.90    8.90
  10   1  -4    1.60    6.50
  10   1  -4    3.30    7.10
 -10  -1   4   14.40   10.20
   9   1  -4    1.90    4.80
   9   1  -4    1.00    4.40
   9   1  -4    4.00    8.70
  -9  -1   4    5.20    8.30
   8   1  -4    8.10    6.50
   8   1  -4   17.00    6.40
   8   1  -4   28.60   10.70
  -8  -1   4   29.80   10.10
   7   1  -4  226.08   16.80
   7   1  -4  223.78   15.90
   7   1  -4  247.68   20.90
  -7  -1   4  271.37   19.50
   6   1  -4  145.99   12.20
   6   1  -4  136.99   12.10
   6   1  -4  145.29   15.50
  -6  -1   4  137.99   14.10
   5   1  -4  110.79    9.40
   5   1  -4  116.59   10.10
   5   1  -4   87.79   12.30
  -5  -1   4  111.89   12.20
   4   1  -4   -0.50    5.70
   4   1  -4    4.90    3.60
  -4  -1   4    6.40    3.90
  -4  -1   4    5.20    5.80
   3   1  -4  675.53   29.10
   3   1  -4  712.03   32.80
  -3  -1   4  685.63   29.30
  -3  -1   4  679.23   31.90
   2   1  -4   17.20    4.00
   2   1  -4   22.00    7.00
  -2  -1   4    8.00    3.70
  -2  -1   4   19.60    6.80
   1   1  -4  819.02   36.20
   1   1  -4  842.72   33.50
  -1  -1   4  803.32   35.60
  -1  -1   4  834.32   33.50
   0   1  -4    6.00    3.50
   0  -1   4    0.70    2.80
   0  -1   4   -1.80    6.30
   0  -1   4   -2.40    5.60
  -1   1  -4 4137.89  157.88
  -1   1  -4 4047.89  155.88
   1  -1   4 4129.89  156.68
   1  -1   4 4109.59  155.88
  -2   1  -4  141.79   12.40
  -2   1  -4  148.09   11.30
   2  -1   4  154.68   11.00
   2  -1   4  168.28   11.70
  -3   1  -4  476.55   25.80
  -3   1  -4  480.05   24.90
   3  -1   4  522.35   25.00
   3  -1   4  524.25   24.60
  -4   1  -4   35.80    7.70
  -4   1  -4   39.20    8.90
   4  -1   4   35.80    7.10
  -5   1  -4  945.11   43.40
  -5   1  -4  922.61   43.80
   5  -1   4  881.21   42.20
   5  -1   4  912.51   42.20
  -6   1  -4   -0.90    4.90
  -6   1  -4    5.50    6.50
   6  -1   4   -7.90    4.50
  -7   1  -4  152.58   15.30
  -7   1  -4  142.79   16.60
   7  -1   4  145.99   14.70
   7  -1   4  155.68   15.50
  -8   1  -4   14.70   11.40
  -8   1  -4   -0.30    7.80
   8  -1   4    9.70    7.20
  -9   1  -4   35.70   12.30
  -9   1  -4   45.70   14.00
   9  -1   4   35.70    9.70
   9  -1   4   33.10   13.30
 -10   1  -4   -7.30    9.60
  10  -1   4    1.00    7.10
 -11   1  -4   60.69   17.70
  11  -1   4   54.59   13.70
 -12   1  -4   25.40   16.20
  12  -1   4   28.10   11.80
 -13   1  -4   13.20   15.30
  13  -1   4   47.70   14.60
  14   0  -4   66.59   15.80
 -14   0   4   52.09   18.30
  13   0  -4   18.40   10.90
 -13   0   4   40.50   16.80
  12   0  -4   40.90   12.90
 -12   0   4   62.79   16.50
  11   0  -4   -0.90    5.90
  11   0  -4   -1.30    6.70
 -11   0   4    7.10    9.90
  10   0  -4   28.40   13.50
  10   0  -4   46.40   11.60
 -10   0   4   61.29   14.90
   9   0  -4   54.99   14.10
   9   0  -4   35.70    9.50
   9   0  -4   57.79   11.00
  -9   0   4   59.19   12.80
   8   0  -4  617.94   45.20
   8   0  -4  682.63   34.50
   8   0  -4  679.53   38.60
  -8   0   4  681.33   36.80
   7   0  -4   13.70    7.90
   7   0  -4   12.30    6.20
   7   0  -4   16.50    6.50
  -7   0   4   17.60    8.20
   6   0  -4   24.40    9.40
   6   0  -4   30.50    7.20
   6   0  -4   32.60    7.30
  -6   0   4   67.89   11.40
   5   0  -4    4.70    4.70
   5   0  -4    0.80    5.60
  -5   0   4   -2.30    4.80
   4   0  -4  112.79    9.30
   4   0  -4  112.99   11.30
  -4   0   4   96.69   10.30
  -4   0   4   84.39    9.10
   3   0  -4    8.50    5.60
   3   0  -4    4.10    3.60
  -3   0   4    9.10    4.40
  -3   0   4   17.20    5.70
   2   0  -4  236.58   13.90
   2   0  -4  248.68   13.00
  -2   0   4  245.48   13.50
  -2   0   4  246.48   13.20
   1   0  -4   23.70    4.80
   1   0  -4   36.00    6.00
  -1   0   4   32.40    5.10
  -1   0   4   23.20    4.80
   0   0  -4  207.18   11.40
   0   0   4  179.08   10.90
   0   0   4  203.78   12.10
   0   0   4  199.28   11.20
  -1   0  -4    2.80    3.60
  -1   0  -4    6.70    4.90
   1   0   4   -0.80    3.10
   1   0   4   -4.80    3.10
  -2   0  -4 4088.79  158.18
  -2   0  -4 4150.08  157.48
   2   0   4 4242.88  158.18
   2   0   4 4082.19  156.58
  -3   0  -4   52.49    8.30
  -3   0  -4   50.29    8.00
   3   0   4   51.69    8.00
   3   0   4   64.59    7.90
  -4   0  -4 1479.45   61.99
  -4   0  -4 1465.15   61.69
   4   0   4 1481.05   61.19
   4   0   4 1432.16   61.19
  -5   0  -4   14.50    6.00
  -5   0  -4   11.90    6.90
   5   0   4   21.80    7.20
   5   0   4   26.00    7.40
  -6   0  -4  211.38   16.90
  -6   0  -4  219.08   17.60
   6   0   4  194.78   16.40
   6   0   4  211.08   17.50
  -7   0  -4   22.10    9.30
  -7   0  -4   19.70    7.70
   7   0   4   12.00    6.50
   7   0   4   15.50    8.60
  -8   0  -4   43.80   10.50
  -8   0  -4   24.90   10.20
   8   0   4   35.00   10.00
  -9   0  -4   -1.10    6.30
  -9   0  -4   -3.30    8.40
   9   0   4    1.20    7.30
   9   0   4    1.10   10.40
 -10   0  -4  165.68   21.10
  10   0   4  154.08   17.70
 -11   0  -4    6.50   10.20
  11   0   4   13.80    9.80
 -12   0  -4  105.19   21.20
 -13   0  -4   -9.20   11.70
  13   0   4   25.00   12.20
  14  -1  -4   21.20   12.00
 -14   1   4   12.70   12.70
  13  -1  -4  101.69   18.70
 -13   1   4   98.39   21.80
  12  -1  -4   11.00    9.80
 -12   1   4   11.70   10.80
  11  -1  -4   60.49   14.80
  11  -1  -4  118.19   18.60
 -11   1   4   75.99   16.60
  10  -1  -4   56.79   12.40
  10  -1  -4   47.00   11.10
 -10   1   4   69.39   15.80
   9  -1  -4  471.75   32.10
   9  -1  -4  526.85   31.40
   9  -1  -4  495.85   29.20
  -9   1   4  491.95   31.30
   8  -1  -4   -3.40    6.70
   8  -1  -4    0.80    5.20
   8  -1  -4    8.20    6.20
  -8   1   4   -1.30    7.10
   7  -1  -4   30.30   10.40
   7  -1  -4   15.80    6.70
   7  -1  -4   24.70    8.30
  -7   1   4   34.00   10.40
   6  -1  -4    0.60    6.50
   6  -1  -4   -1.50    4.00
   6  -1  -4   -0.30    4.90
  -6   1   4    1.90    6.00
   5  -1  -4   80.89   12.50
   5  -1  -4   58.39    9.00
  -5   1   4   53.79    8.40
  -5   1   4   53.79    9.10
   4  -1  -4   25.90    6.20
   4  -1  -4   54.39    8.70
  -4   1   4   25.60    6.80
  -4   1   4   24.70    5.90
   3  -1  -4   22.10    6.00
   3  -1  -4   18.50    5.00
  -3   1   4   34.80    6.20
  -3   1   4   12.70    4.90
   2  -1  -4   16.50    4.50
   2  -1  -4   20.00    4.70
  -2   1   4   16.30    4.20
  -2   1   4   17.80    4.90
   1  -1  -4  937.21   38.10
   1  -1  -4  872.61   35.40
  -1   1   4  898.51   38.00
  -1   1   4  952.80   35.80
   0  -1  -4    0.20    3.10
   0   1   4   -1.90    3.20
  -1  -1  -4 1908.91   73.09
  -1  -1  -4 1961.00   75.69
   1   1   4 1893.91   72.89
   1   1   4 1921.41   75.49
  -2  -1  -4    3.20    4.10
  -2  -1  -4    4.00    3.70
   2   1   4    3.40    3.50
   2   1   4    6.20    4.10
  -3  -1  -4    5.80    5.30
  -3  -1  -4    9.30    5.20
   3   1   4    8.90    5.60
   3   1   4   13.00    5.10
  -4  -1  -4   11.10    5.70
  -4  -1  -4   12.20    6.20
   4   1   4   15.40    5.60
   4   1   4   24.00    7.30
  -5  -1  -4  140.29   12.90
  -5  -1  -4  130.09   12.40
   5   1   4  136.69   11.90
   5   1   4  143.49   14.10
  -6  -1  -4    8.20    6.90
  -6  -1  -4    1.20    5.50
   6   1   4    9.60    6.10
   6   1   4    8.90    7.20
  -7  -1  -4   79.19   12.00
  -7  -1  -4  116.99   13.90
   7   1   4   77.49   11.00
   7   1   4   81.59   14.10
  -8  -1  -4   12.50    7.60
  -8  -1  -4    9.80    9.10
   8   1   4   13.30    7.20
  -9  -1  -4  178.18   19.00
  -9  -1  -4  139.99   19.00
   9   1   4  140.29   20.50
   9   1   4  162.88   16.50
 -10  -1  -4   49.90   15.20
  10   1   4   -2.10    7.40
 -11  -1  -4   14.60   13.30
  11   1   4    5.30    8.00
 -12  -1  -4  -13.70   11.30
  12   1   4   -3.80   10.10
 -13  -1  -4    6.30   12.90
  13   1   4   -7.30    9.10
  14  -2  -4   54.29   16.60
 -14   2   4   31.50   15.90
  13  -2  -4   13.10   11.30
 -13   2   4   32.30   15.00
  12  -2  -4   -1.80    9.00
 -12   2   4   -9.80    9.50
  11  -2  -4    0.40    6.90
 -11   2   4    4.50    9.90
  10  -2  -4  146.99   17.30
  10  -2  -4  145.29   15.60
 -10   2   4  116.99   17.60
   9  -2  -4    4.20    6.10
   9  -2  -4    9.10    7.50
   9  -2  -4    8.60    7.00
  -9   2   4    4.60    8.40
   8  -2  -4  124.19   14.50
   8  -2  -4  132.69   15.00
   8  -2  -4  128.69   13.80
  -8   2   4  128.69   15.30
   7  -2  -4   49.99   10.10
   7  -2  -4   29.70    8.50
   7  -2  -4   36.50    9.50
  -7   2   4   38.40    9.80
   6  -2  -4    6.50    5.60
   6  -2  -4   -2.00    5.40
   6  -2  -4    1.60    5.10
  -6   2   4    1.90    5.70
   5  -2  -4   12.40    6.20
   5  -2  -4   -0.10    4.30
  -5   2   4    6.00    5.30
  -5   2   4    7.00    5.00
   4  -2  -4  168.68   12.70
   4  -2  -4  173.48   12.10
  -4   2   4  169.28   12.50
  -4   2   4  158.18   12.70
   3  -2  -4   -2.10    3.80
   3  -2  -4   -4.00    3.60
  -3   2   4    7.30    4.70
  -3   2   4    0.10    3.80
   2  -2  -4  614.74   28.20
   2  -2  -4  626.74   25.90
  -2   2   4  629.64   26.80
  -2   2   4  594.44   28.30
   1  -2  -4    4.00    2.50
   1  -2  -4    3.20    3.90
  -1   2   4    5.70    3.90
  -1   2   4    0.90    4.70
   0  -2  -4   56.89    4.00
   0  -2  -4   52.19    6.60
   0   2   4   53.29    6.70
  -1  -2  -4   31.80    4.60
  -1  -2  -4   30.10    5.80
   1   2   4   48.50    6.00
   1   2   4   38.40    6.10
  -2  -2  -4  280.17   16.10
  -2  -2  -4  287.67   14.60
   2   2   4  303.97   16.10
   2   2   4  283.87   15.80
  -3  -2  -4   28.00    6.00
  -3  -2  -4   48.60    9.20
   3   2   4   35.60    7.50
   3   2   4   36.10    6.70
  -4  -2  -4  292.77   18.00
  -4  -2  -4  278.97   17.40
   4   2   4  282.17   17.10
   4   2   4  314.17   21.80
  -5  -2  -4   10.20    5.40
  -5  -2  -4    6.10    6.10
   5   2   4    5.20    4.70
   5   2   4   13.00    7.70
  -6  -2  -4  156.58   14.80
  -6  -2  -4  169.18   15.30
   6   2   4  169.88   14.10
   6   2   4  170.88   17.40
  -7  -2  -4   38.80   10.60
  -7  -2  -4   35.20    9.20
   7   2   4   43.80    9.60
   7   2   4   41.90   12.30
  -8  -2  -4   17.60   10.80
  -8  -2  -4    5.60    7.60
   8   2   4    1.80    5.90
   8   2   4    6.30   12.50
  -9  -2  -4    6.80    8.80
  -9  -2  -4   15.40   10.90
   9   2   4   31.30   10.40
   9   2   4   22.30   15.00
 -10  -2  -4   51.59   15.50
 -10  -2  -4   27.70   14.50
  10   2   4    9.80    8.40
  11   2   4   48.30   12.10
 -12  -2  -4   52.39   17.80
  12   2   4   28.90   12.50
  14  -3  -4   10.10   11.30
 -14   3   4   21.90   14.20
  13  -3  -4   21.80   10.50
 -13   3   4   27.50   14.80
  12  -3  -4    4.50    8.80
 -12   3   4    7.40   10.70
  11  -3  -4   99.59   18.80
 -11   3   4   97.89   20.90
  10  -3  -4    7.00    8.00
 -10   3   4   -6.70    6.80
   9  -3  -4  234.98   21.40
   9  -3  -4  267.57   21.00
   9  -3  -4  256.77   21.80
  -9   3   4  283.67   23.50
   8  -3  -4   19.90    8.10
   8  -3  -4   17.10    7.80
   8  -3  -4   11.30    8.30
  -8   3   4   23.30    9.60
   7  -3  -4  749.13   38.30
   7  -3  -4  793.02   38.60
   7  -3  -4  757.62   39.50
  -7   3   4  701.23   38.80
   6  -3  -4   -6.90    4.50
   6  -3  -4   -3.70    4.70
   6  -3  -4    6.50    4.90
  -6   3   4    2.50    6.60
   5  -3  -4 1286.07   55.49
   5  -3  -4 1351.96   57.29
  -5   3   4 1335.07   57.29
  -5   3   4 1218.38   56.79
   4  -3  -4    3.30    4.10
   4  -3  -4    2.90    4.60
  -4   3   4    4.30    5.40
  -4   3   4    6.50    4.80
   3  -3  -4    5.50    4.20
   3  -3  -4    2.70    3.70
  -3   3   4    3.00    4.50
  -3   3   4    5.50    6.00
   2  -3  -4    4.00    4.50
   2  -3  -4    3.30    3.90
  -2   3   4    1.60    5.20
  -2   3   4   -4.80    4.00
   1  -3  -4    9.30    4.50
   1  -3  -4   15.90    4.60
   1  -3  -4    9.80    6.00
  -1   3   4   10.10    4.50
   0  -3  -4   17.90    4.60
   0  -3  -4   14.80    4.40
   0   3   4   18.20    5.30
  -1  -3  -4  709.63   31.00
  -1  -3  -4  657.23   28.80
   1   3   4  691.13   30.60
   1   3   4  695.63   30.80
  -2  -3  -4   10.30    5.20
  -2  -3  -4    1.30    3.60
   2   3   4    6.10    3.90
   2   3   4    3.70    5.20
  -3  -3  -4    8.50    5.40
  -3  -3  -4   22.00    6.10
   3   3   4    9.20    6.90
   3   3   4    6.80    4.40
  -4  -3  -4    4.00    5.00
  -4  -3  -4    2.70    5.20
   4   3   4    0.10    3.70
   4   3   4    7.50    6.80
  -5  -3  -4  140.09   13.10
  -5  -3  -4  104.59   11.70
   5   3   4  118.79   11.10
   5   3   4  106.79   14.70
  -6  -3  -4   50.69    9.80
   6   3   4   69.19    9.60
   6   3   4   43.70   13.00
  -7  -3  -4  104.29   14.20
  -7  -3  -4  106.79   13.80
   7   3   4   91.79   11.70
   7   3   4   79.19   17.30
  -8  -3  -4    1.40    7.80
  -8  -3  -4   -5.90    8.40
   8   3   4   14.20   13.20
   8   3   4   12.60    6.80
  -9  -3  -4   40.20   12.60
  -9  -3  -4   63.19   15.20
   9   3   4   71.49   13.10
 -10  -3  -4   66.39   17.10
 -10  -3  -4   25.40   12.10
  10   3   4   44.50   11.60
 -11  -3  -4   93.19   20.80
  11   3   4   97.89   15.60
 -12  -3  -4   18.60   14.00
  12   3   4   17.40   10.80
  14  -4  -4   94.69   20.10
 -14   4   4  127.89   27.90
  13  -4  -4    3.00    8.70
 -13   4   4    3.30   13.20
  12  -4  -4  152.98   20.60
 -12   4   4  129.09   21.90
  11  -4  -4    6.20    9.10
 -11   4   4   16.70   12.80
  10  -4  -4  418.56   30.40
 -10   4   4  397.26   31.70
   9  -4  -4   12.10    8.70
   9  -4  -4   11.40    7.60
   9  -4  -4   -0.40    7.00
  -9   4   4   -6.10    7.40
   8  -4  -4  284.97   22.40
   8  -4  -4  324.17   24.90
   8  -4  -4  352.26   23.70
  -8   4   4  351.56   26.00
   7  -4  -4    1.70    4.90
   7  -4  -4    0.30    4.70
   7  -4  -4    0.40    6.00
  -7   4   4    5.30    7.90
   6  -4  -4  238.88   17.30
   6  -4  -4  241.18   17.90
   6  -4  -4  236.18   18.90
  -6   4   4  230.58   19.40
   5  -4  -4   -5.10    4.20
   5  -4  -4   -1.50    4.30
  -5   4   4   20.30    8.20
   4  -4  -4 1288.87   53.59
   4  -4  -4 1241.68   55.49
  -4   4   4 1233.88   55.49
  -4   4   4 1295.47   56.79
   3  -4  -4   34.30    6.80
   3  -4  -4   18.90    5.90
  -3   4   4   24.00    8.70
  -3   4   4   29.90    7.50
   2  -4  -4   91.39    9.10
   2  -4  -4   99.29    9.70
  -2   4   4   89.59    9.80
  -2   4   4  115.79   12.20
   1  -4  -4   78.79    9.80
   1  -4  -4   80.69    8.50
   1  -4  -4   81.49    9.70
  -1   4   4   52.29    8.10
   0  -4  -4 3614.74  141.99
   0  -4  -4 3682.73  141.19
   0  -4  -4 3626.74  140.59
   0   4   4 3699.93  141.39
  -1  -4  -4   34.80    6.50
  -1  -4  -4   31.80    6.80
   1   4   4   53.19    7.40
   1   4   4   52.99    9.40
  -2  -4  -4    2.20    5.00
  -2  -4  -4   10.30    4.50
   2   4   4   10.00    4.70
   2   4   4   12.70    7.10
  -3  -4  -4   48.60    7.80
  -3  -4  -4   39.00    7.70
   3   4   4   44.00    7.20
   3   4   4   38.10    9.90
  -4  -4  -4  204.08   15.10
  -4  -4  -4  195.18   15.20
   4   4   4  218.78   18.70
   4   4   4  224.78   14.60
  -5  -4  -4   40.00    9.70
  -5  -4  -4   31.10    7.70
   5   4   4   42.80    8.20
   5   4   4   37.10   12.00
  -6  -4  -4   30.50   10.00
  -6  -4  -4   25.10    8.10
   6   4   4   34.80    9.20
   6   4   4   25.10   11.80
  -7  -4  -4   19.50   10.60
  -7  -4  -4   31.10    9.10
   7   4   4   17.80   13.70
   7   4   4   28.30    8.40
  -8  -4  -4   22.60   11.50
  -8  -4  -4   -5.20    7.60
   8   4   4   20.00    8.20
   8   4   4   16.10   14.40
  -9  -4  -4   43.90   12.80
  -9  -4  -4   92.19   17.10
   9   4   4  100.29   13.80
 -10  -4  -4   -0.80    9.70
 -10  -4  -4  -20.40    8.80
  10   4   4   13.20    9.20
 -11  -4  -4   19.90   14.50
  11   4   4   11.50    9.80
 -12  -4  -4    4.00   13.50
  12   4   4   12.20   10.60
  14  -5  -4    2.60   10.50
 -14   5   4    5.10   12.70
  13  -5  -4   17.40   11.50
 -13   5   4    8.70   13.80
  12  -5  -4   47.50   15.50
 -12   5   4   27.60   14.50
  11  -5  -4  139.79   19.90
 -11   5   4  123.29   21.40
  10  -5  -4   -8.10    5.30
 -10   5   4    5.10   10.90
   9  -5  -4   26.50   10.60
   9  -5  -4   15.50    9.10
  -9   5   4   14.40   11.80
   8  -5  -4   -6.50    5.80
   8  -5  -4   -0.90    4.70
   8  -5  -4   -6.30    5.30
  -8   5   4   -4.10    8.70
   7  -5  -4   10.60    6.80
   7  -5  -4   12.80    6.70
   7  -5  -4    7.30    6.50
  -7   5   4    5.80    8.30
   6  -5  -4   -2.10    5.10
   6  -5  -4   -0.90    4.90
   6  -5  -4    0.20    3.90
  -6   5   4   -4.80    7.00
   5  -5  -4   34.90    8.60
   5  -5  -4   25.50    7.60
  -5   5   4   21.30    9.50
  -5   5   4   25.60    8.00
   4  -5  -4    3.00    4.50
   4  -5  -4    8.30    5.40
  -4   5   4    1.00    7.30
   3  -5  -4  357.16   20.00
   3  -5  -4  379.46   21.50
  -3   5   4  349.67   23.60
  -3   5   4  324.97   21.00
   2  -5  -4  158.28   12.60
   2  -5  -4  156.98   13.00
   2  -5  -4  170.98   15.70
  -2   5   4  156.18   13.10
   1  -5  -4  489.25   26.40
   1  -5  -4  494.85   25.10
   1  -5  -4  493.45   26.70
  -1   5   4  481.15   25.20
   0  -5  -4    9.60    7.60
   0  -5  -4   -0.50    5.80
   0  -5  -4    3.00    3.90
   0   5   4   -2.80    3.80
  -1  -5  -4   59.09    9.80
  -1  -5  -4   63.89    8.00
   1   5   4   52.79    7.80
   1   5   4   77.69   12.70
  -2  -5  -4  171.28   13.10
  -2  -5  -4  142.29   11.70
   2   5   4  160.58   12.20
   2   5   4  143.29   15.10
  -3  -5  -4  245.88   15.70
  -3  -5  -4  196.88   15.50
   3   5   4  232.28   14.90
   3   5   4  184.98   20.60
  -4  -5  -4   13.40    7.50
  -4  -5  -4    9.20    5.00
   4   5   4   16.20    5.60
   4   5   4   14.10   10.10
  -5  -5  -4  160.38   14.40
  -5  -5  -4  147.99   15.10
   5   5   4  128.79   12.40
   5   5   4  112.99   18.20
  -6  -5  -4  183.08   17.60
  -6  -5  -4  166.38   16.00
   6   5   4  129.29   21.20
  -7  -5  -4   18.20    9.20
  -7  -5  -4   25.50   12.70
   7   5   4   24.40    8.70
   7   5   4   16.80   17.90
  -8  -5  -4   11.90    8.50
  -8  -5  -4   24.10   12.20
   8   5   4   40.30   10.20
   8   5   4   28.90   17.80
  -9  -5  -4  -23.10    8.80
  -9  -5  -4   -5.20    8.70
   9   5   4   -2.10    7.20
 -10  -5  -4    3.20   12.90
 -10  -5  -4   18.10   11.80
  10   5   4   10.00    9.00
 -11  -5  -4   24.40   13.60
  11   5   4    7.40    9.40
  13  -6  -4   15.40   10.80
 -13   6   4    6.40   16.60
  12  -6  -4   -1.20    8.90
 -12   6   4   48.80   20.30
  11  -6  -4   11.50   10.20
 -11   6   4   16.20   13.10
  10  -6  -4  237.78   23.80
 -10   6   4  218.48   25.90
   9  -6  -4    7.80    7.50
   9  -6  -4   20.70    9.80
  -9   6   4   14.90   12.00
   8  -6  -4  133.69   15.70
   8  -6  -4  154.88   18.30
  -8   6   4  162.38   21.10
   7  -6  -4    6.90    6.70
   7  -6  -4    9.80    7.10
   7  -6  -4    0.20    5.50
  -7   6   4    3.80    9.40
   6  -6  -4  676.13   46.70
   6  -6  -4  717.43   35.80
   6  -6  -4  659.23   38.20
  -6   6   4  675.93   41.10
   5  -6  -4   14.80    6.60
   5  -6  -4   12.90    7.40
  -5   6   4   38.30   12.60
  -5   6   4   17.50    6.90
   4  -6  -4  791.12   38.30
   4  -6  -4  707.53   36.30
  -4   6   4  774.12   42.20
  -4   6   4  782.52   38.80
   3  -6  -4  136.19   12.80
   3  -6  -4  110.99   14.10
  -3   6   4   97.09   14.50
  -3   6   4  139.39   13.80
   2  -6  -4   67.79   11.10
   2  -6  -4   94.09   15.00
   2  -6  -4   55.99    8.70
  -2   6   4   54.99    9.40
   1  -6  -4   65.19   12.50
   1  -6  -4   52.09   10.90
   1  -6  -4   53.49    8.20
  -1   6   4   37.50    8.00
   0  -6  -4  214.38   17.80
   0  -6  -4  257.87   16.10
   0  -6  -4  231.28   20.10
   0   6   4  266.27   16.70
  -1  -6  -4   -2.90    6.50
  -1  -6  -4   10.00    5.10
   1   6   4    1.50    8.40
   1   6   4    7.00    4.90
  -2  -6  -4   22.40    6.40
  -2  -6  -4   21.30    8.20
   2   6   4   43.40    7.70
  -3  -6  -4   -1.70    4.60
  -3  -6  -4   -1.70    6.40
   3   6   4    2.30    4.90
   3   6   4    9.90   10.40
  -4  -6  -4    4.20    5.30
  -4  -6  -4   14.70    8.10
   4   6   4   -9.10    9.30
   4   6   4    5.80    5.20
  -5  -6  -4  243.78   17.80
  -5  -6  -4  200.58   18.60
   5   6   4  200.78   23.80
   5   6   4  202.88   15.80
  -6  -6  -4  297.67   23.10
  -6  -6  -4  236.28   19.80
   6   6   4  278.57   28.80
   6   6   4  268.17   19.10
  -7  -6  -4   20.80   10.10
  -7  -6  -4   11.20   10.50
   7   6   4   19.80   17.70
   7   6   4    3.10    7.40
  -8  -6  -4   16.30   12.30
  -8  -6  -4   14.10   10.50
   8   6   4   39.70   25.80
   8   6   4    3.60    8.00
  -9  -6  -4   38.70   13.10
  -9  -6  -4   18.30   13.80
   9   6   4   24.30   10.30
 -10  -6  -4   67.99   16.80
  10   6   4   62.89   13.10
 -11  -6  -4    3.50   14.50
  11   6   4   13.10   10.20
  13  -7  -4   11.60   11.30
 -13   7   4    1.70   13.60
  12  -7  -4    7.20    9.30
 -12   7   4   10.90   14.60
  11  -7  -4  179.08   22.60
  10  -7  -4   11.70   14.10
 -10   7   4   13.60   12.60
   9  -7  -4  146.39   19.60
  -9   7   4  182.98   24.40
   8  -7  -4    3.70    6.80
   8  -7  -4    5.20    7.10
  -8   7   4   -2.70   10.10
   7  -7  -4  395.36   30.60
   7  -7  -4  359.06   25.40
   7  -7  -4  445.86   30.10
  -7   7   4  445.36   34.00
   6  -7  -4   14.00    7.80
   6  -7  -4    9.00    7.00
   6  -7  -4   35.30   10.00
  -6   7   4   14.10   11.90
   5  -7  -4  829.42   53.79
   5  -7  -4  893.11   43.00
  -5   7   4  853.51   49.99
  -5   7   4  897.61   45.00
   4  -7  -4   23.70    8.60
   4  -7  -4   13.60    6.40
  -4   7   4    9.90    6.30
  -4   7   4   37.40   13.50
   3  -7  -4  183.08   19.60
   3  -7  -4  148.89   15.10
   3  -7  -4  142.59   14.10
  -3   7   4  147.89   14.60
   2  -7  -4  124.99   12.70
   2  -7  -4  164.18   17.70
   2  -7  -4  174.78   16.40
  -2   7   4  127.49   13.50
   1  -7  -4  476.55   29.20
   1  -7  -4  405.46   24.20
   1  -7  -4  466.45   40.60
  -1   7   4  464.15   28.00
   0  -7  -4   17.10   13.60
   0  -7  -4   25.40    6.80
   0  -7  -4   21.00    9.00
   0   7   4   26.20    7.10
  -1  -7  -4   -7.80    6.20
  -1  -7  -4    2.90    4.50
   1   7   4   -4.90    4.20
  -2  -7  -4  101.79   11.00
  -2  -7  -4  120.09   14.20
   2   7   4   97.79   18.00
   2   7   4  102.49   11.30
  -3  -7  -4  142.29   13.50
  -3  -7  -4  175.18   16.40
   3   7   4  145.99   19.70
   3   7   4  151.78   13.20
  -4  -7  -4   60.49   15.00
  -4  -7  -4   72.19   11.40
   4   7   4   59.99   15.80
   4   7   4   62.69   10.20
  -5  -7  -4  174.88   18.20
  -5  -7  -4  139.29   15.60
   5   7   4  150.68   25.80
   5   7   4  200.68   20.70
  -6  -7  -4   20.60    9.40
  -6  -7  -4   -0.90   10.60
   6   7   4   10.40    7.70
   6   7   4    1.80   15.40
  -7  -7  -4   26.20   13.30
  -7  -7  -4   -0.80    9.00
   7   7   4   53.09   21.60
   7   7   4   13.60    8.30
  -8  -7  -4   92.99   16.10
  -8  -7  -4  124.79   20.20
   8   7   4   98.69   14.40
  -9  -7  -4   21.10   15.70
  -9  -7  -4   14.30   12.20
   9   7   4   15.90    9.90
 -10  -7  -4    9.10   12.70
 -10  -7  -4    5.60   14.20
  10   7   4   17.90   11.00
  12  -8  -4   43.40   17.00
 -12   8   4   33.40   19.60
  11  -8  -4   10.80   10.20
 -11   8   4    8.30   16.30
  10  -8  -4    8.60    8.90
 -10   8   4   -3.60   12.90
   9  -8  -4   -3.30    8.20
  -9   8   4   21.90   15.00
   8  -8  -4   66.59   14.10
   8  -8  -4   56.19   14.10
  -8   8   4   56.79   19.20
   7  -8  -4    5.10    8.40
   7  -8  -4   -2.60    6.70
  -7   8   4   -6.60   10.50
   6  -8  -4   77.99   14.60
   6  -8  -4   56.99   13.50
   6  -8  -4  107.49   18.00
  -6   8   4   67.59   18.20
   5  -8  -4   57.69   12.40
   5  -8  -4   37.10    9.80
  -5   8   4   73.59   18.20
  -5   8   4   61.29   12.00
   4  -8  -4  312.17   21.70
   4  -8  -4  274.47   22.10
  -4   8   4  271.67   21.50
   3  -8  -4   -2.10    9.90
   3  -8  -4    3.20    7.30
   3  -8  -4    7.70    6.60
  -3   8   4   -2.60    4.90
   2  -8  -4  182.08   19.00
   2  -8  -4  173.78   20.00
   2  -8  -4  218.08   16.60
  -2   8   4  179.58   16.40
   1  -8  -4   19.20   10.80
   1  -8  -4    1.70    4.90
   1  -8  -4    2.50    9.50
  -1   8   4    7.90    5.90
   0  -8  -4   -3.50    4.90
   0  -8  -4   -2.90    9.00
   0  -8  -4   -0.60   10.90
   0   8   4    0.30    5.20
  -1  -8  -4  133.69   16.50
  -1  -8  -4  112.79   12.10
  -1  -8  -4  139.39   20.70
   1   8   4  126.59   18.20
  -2  -8  -4    6.10    5.90
  -2  -8  -4   16.70   10.50
   2   8   4   29.40   14.70
   2   8   4   20.70    9.10
  -3  -8  -4   56.89   14.30
  -3  -8  -4   46.80    9.60
   3   8   4   38.80   11.20
   3   8   4   68.39   18.40
  -4  -8  -4   10.40    7.40
  -4  -8  -4   20.40   11.30
   4   8   4   26.00   15.60
  -5  -8  -4   22.60    9.40
  -5  -8  -4    1.00   10.10
   5   8   4   -1.10    6.40
   5   8   4   -2.70   15.40
  -6  -8  -4    5.90    8.70
  -6  -8  -4   20.50   13.70
   6   8   4   -1.50    7.00
   6   8   4    7.00   18.50
  -7  -8  -4   60.29   13.60
  -7  -8  -4   75.19   17.20
   7   8   4   90.49   13.40
  -8  -8  -4    5.80   13.30
  -8  -8  -4    3.70   10.90
   8   8   4    3.00    8.30
  -9  -8  -4    7.80   12.30
   9   8   4   -8.90    8.10
  12  -9  -4    8.10   10.50
 -12   9   4   -4.90   16.00
  11  -9  -4   61.19   17.40
 -11   9   4  105.09   31.20
  10  -9  -4   -9.50    7.30
 -10   9   4   -1.60   14.80
   9  -9  -4  146.69   21.00
  -9   9   4  160.18   31.40
   8  -9  -4    9.50    9.40
  -8   9   4    1.30   13.30
   7  -9  -4  248.58   21.90
   7  -9  -4  285.47   25.40
  -7   9   4  291.47   30.80
   6  -9  -4    5.40    7.60
  -6   9   4    3.40   13.60
   5  -9  -4  140.29   21.30
   5  -9  -4  155.08   16.80
   4  -9  -4   16.80    9.30
   4  -9  -4   47.50   12.70
   4  -9  -4   51.29   17.60
  -4   9   4   31.50   10.40
   3  -9  -4  512.65   43.00
   3  -9  -4  540.25   33.80
   3  -9  -4  534.95   31.70
  -3   9   4  601.94   33.20
   2  -9  -4   78.09   17.60
   2  -9  -4   87.09   17.00
   2  -9  -4   59.09   11.60
  -2   9   4   86.69   13.10
   1  -9  -4  285.97   25.40
   1  -9  -4  272.67   19.40
   1  -9  -4  237.88   25.10
  -1   9   4  248.88   19.60
   0  -9  -4  112.59   18.20
   0  -9  -4  131.49   13.40
   0  -9  -4  124.89   22.10
   0   9   4  116.79   13.90
  -1  -9  -4  122.19   23.50
  -1  -9  -4  162.28   14.70
  -1  -9  -4  160.28   19.10
   1   9   4  142.59   14.60
  -2  -9  -4   14.10   11.50
  -2  -9  -4   19.40    7.10
   2   9   4   29.20    8.20
   2   9   4   27.90   16.90
  -3  -9  -4    9.10   11.20
  -3  -9  -4    3.70    7.30
   3   9   4   21.40    8.50
   3   9   4   20.20   17.10
  -4  -9  -4    6.50   11.50
  -4  -9  -4    8.20    8.70
   4   9   4   35.70   18.60
   4   9   4   18.50    8.20
  -5  -9  -4   37.90   13.70
  -5  -9  -4   62.19   12.70
   5   9   4   52.29   23.40
   5   9   4   38.40   10.30
  -6  -9  -4    7.30   12.10
  -6  -9  -4    5.20    8.80
   6   9   4   -1.30    7.20
   6   9   4   -5.10   19.00
  -7  -9  -4    6.00   13.70
  -7  -9  -4   -1.90   10.30
   7   9   4    7.80    8.20
  -8  -9  -4   28.70   15.00
  -8  -9  -4    5.30   13.40
   8   9   4    4.40    8.70
  11 -10  -4   -5.60    8.90
 -11  10   4   11.50   16.50
  10 -10  -4   86.89   18.60
 -10  10   4  139.79   34.00
   9 -10  -4    7.50   10.70
  -9  10   4   31.30   19.20
   8 -10  -4   70.09   16.90
  -8  10   4   62.69   22.40
   7 -10  -4   19.60   10.70
  -7  10   4    6.00   15.20
   6 -10  -4  109.49   15.90
   6 -10  -4  127.99   18.60
  -6  10   4  162.28   29.70
   5 -10  -4   46.80   19.50
   5 -10  -4   34.00   11.80
   4 -10  -4    4.50   14.30
   4 -10  -4   -3.70    8.00
  -4  10   4   10.70    8.10
   3 -10  -4   27.40   15.30
   3 -10  -4   50.29   12.10
   3 -10  -4   34.70   13.10
  -3  10   4   21.50    8.90
   2 -10  -4   79.99   18.10
   2 -10  -4   97.29   15.70
   2 -10  -4   65.59   18.70
  -2  10   4   80.49   14.60
   1 -10  -4   46.70   15.30
   1 -10  -4   94.49   16.30
   1 -10  -4   73.39   17.10
  -1  10   4   55.99   11.30
   0 -10  -4  280.97   29.10
   0 -10  -4  253.37   25.80
   0 -10  -4  316.57   21.50
   0  10   4  312.57   22.30
  -1 -10  -4   45.00   15.60
  -1 -10  -4   25.30   17.00
  -1 -10  -4   53.79   10.80
   1  10   4   72.89   12.90
  -2 -10  -4   75.99   21.60
  -2 -10  -4  125.79   14.70
  -2 -10  -4  161.68   20.40
   2  10   4  120.79   14.50
  -3 -10  -4   18.10    8.80
  -3 -10  -4    1.50   11.30
   3  10   4    6.00    8.30
   3  10   4   -1.60   18.60
  -4 -10  -4   17.60   11.90
  -4 -10  -4   50.29   11.30
   4  10   4   48.90   10.80
   4  10   4   47.30   25.10
  -5 -10  -4   15.00   13.00
  -5 -10  -4   11.90    9.40
   5  10   4    8.80   21.50
   5  10   4   10.80    8.30
  -6 -10  -4   11.70   14.10
  -6 -10  -4    2.10   10.00
   6  10   4   -1.80    8.00
  -7 -10  -4   74.29   19.40
  -7 -10  -4   50.69   14.80
   7  10   4   55.39   12.30
  10 -11  -4    4.60   10.90
 -10  11   4    0.60   15.00
   9 -11  -4    4.80   10.10
  -9  11   4   13.50   18.30
   8 -11  -4   -6.80    7.90
  -8  11   4   24.60   17.80
   7 -11  -4  144.19   21.20
   6 -11  -4   -0.40    8.80
   6 -11  -4    2.50   15.60
   5 -11  -4   23.20   10.70
   5 -11  -4   15.10   15.90
   5 -11  -4   14.20    9.80
   4 -11  -4   39.40   17.60
   4 -11  -4   48.40   14.40
   4 -11  -4   38.20   11.80
   3 -11  -4   -5.30   12.40
   3 -11  -4   27.00   13.80
  -3  11   4    9.10    9.10
   2 -11  -4    6.00    8.00
   2 -11  -4    6.80   14.40
   2 -11  -4   21.70   13.40
  -2  11   4    3.80    8.80
   1 -11  -4   10.50   13.20
   1 -11  -4   -0.80    7.10
   1 -11  -4    1.30   13.10
  -1  11   4   -4.50    8.00
   0 -11  -4   26.90    9.30
   0 -11  -4   48.60   17.70
   0 -11  -4   20.10   13.60
   0  11   4   42.70   10.70
  -1 -11  -4   22.70   13.00
  -1 -11  -4   44.10   19.70
  -1 -11  -4   19.60   14.30
   1  11   4   29.80   10.30
  -2 -11  -4   96.49   14.90
  -2 -11  -4   77.39   17.80
   2  11   4  116.89   15.40
  -3 -11  -4    0.70    8.90
  -3 -11  -4    3.90   12.70
   3  11   4   -0.50    7.70
  -4 -11  -4   -0.80   13.20
  -4 -11  -4    8.40    9.90
   4  11   4   13.10    8.90
   4  11   4   10.40   23.90
  -5 -11  -4    4.10   10.50
  -5 -11  -4    0.90   13.70
   5  11   4    0.90    8.40
  -6 -11  -4  123.29   22.80
  -6 -11  -4   64.69   16.10
   6  11   4   85.49   14.20
   9 -12  -4   83.49   20.10
  -9  12   4   70.99   27.50
   8 -12  -4    7.30   10.70
   8 -12  -4    2.50   21.10
   7 -12  -4   31.80   20.50
   7 -12  -4   39.50   15.00
   6 -12  -4  180.58   30.70
   6 -12  -4  111.69   20.30
   5 -12  -4  143.69   28.70
   5 -12  -4   71.19   20.70
   4 -12  -4   10.40   10.30
   4 -12  -4   10.50   16.30
   4 -12  -4    1.50   11.40
   3 -12  -4    7.00   14.30
   3 -12  -4   10.80   13.00
   2 -12  -4   59.49   17.70
   2 -12  -4   53.19   18.90
  -2  12   4  112.09   16.90
   1 -12  -4   38.10   17.70
   1 -12  -4   46.20   18.30
  -1  12   4   63.09   13.40
   0 -12  -4   -4.20   13.70
   0 -12  -4    9.00    8.90
   0 -12  -4   29.80   17.90
   0  12   4  -14.10    7.60
  -1 -12  -4   48.20   17.80
  -1 -12  -4   36.30   11.40
  -1 -12  -4    8.40   17.60
   1  12   4   33.20   11.90
  -2 -12  -4    0.50    8.90
  -2 -12  -4   -4.20   13.10
  -2 -12  -4    6.80   19.10
   2  12   4    7.40   10.60
  -3 -12  -4   -3.10   24.80
  -3 -12  -4   10.30   14.30
  -3 -12  -4    3.80   13.30
   3  12   4   -4.40    8.10
  -4 -12  -4   12.10   15.00
  -4 -12  -4    0.90   12.50
   4  12   4    0.30   10.00
   7 -13  -4  163.18   28.90
   7 -13  -4  192.48   39.20
   6 -13  -4   26.50   19.10
   6 -13  -4   18.20   13.00
   5 -13  -4    7.00   10.80
   5 -13  -4    5.60   17.30
   4 -13  -4    3.60    9.70
   4 -13  -4    3.50   15.80
   3 -13  -4   61.19   21.90
   3 -13  -4   60.49   16.40
   2 -13  -4   28.40   19.10
   2 -13  -4   -3.20    8.60
   1 -13  -4   40.80   19.30
   1 -13  -4   18.70   20.20
  -1  13   4   24.10   11.40
   0 -13  -4  -10.10   14.20
   0 -13  -4   25.80   23.10
   0  13   4   24.40   12.60
  -1 -13  -4    6.00   14.30
  -1 -13  -4  -16.60   13.00
   1  13   4    3.50   10.60
  -2 -13  -4   -4.30   13.90
  -2 -13  -4    9.40   12.00
   2  13   4    7.10   10.10
  -2 -15   5    0.60   21.00
  -1 -15   5   72.79   30.60
  -1 -15   5   29.20    8.40
  -1 -15   5   25.80    7.60
   0 -15   5   10.20   22.20
   0 -15   5    1.40    7.50
   0 -15   5    1.20    8.10
   1 -15   5   10.60    9.40
   1 -15   5   14.70   10.30
   1 -15   5   20.70   22.60
   2 -15   5   -3.20    9.50
   2 -15   5   22.30   11.20
   2 -15   5   23.70   21.90
   3 -15   5   38.80   24.70
   3 -15   5    8.20   10.10
   4 -15   5   -4.60    9.60
   4 -15   5    7.40   21.20
   5 -15   5   34.20   27.70
   5 -15   5   49.30   14.80
  -5 -14   5   30.30   21.60
  -4 -14   5   13.70   20.90
  -3 -14   5    9.90   21.60
  -2 -14   5  108.39   31.80
  -1 -14   5   15.00   21.80
  -1 -14   5   -2.00    6.20
  -1 -14   5   -0.50    6.00
   0 -14   5   18.50   20.50
   0 -14   5   14.40    9.00
   0 -14   5   11.70    6.90
   1 -14   5   47.20   11.50
   1 -14   5   34.20   23.20
   1 -14   5   24.10    9.50
   2 -14   5   62.19   13.60
   2 -14   5   62.89   13.70
   2 -14   5   86.09   32.10
   3 -14   5   14.30   21.40
   3 -14   5    7.60    9.00
   3 -14   5   -1.20    8.10
   4 -14   5   15.30   10.50
   4 -14   5   11.40   20.40
   5 -14   5   28.10   22.30
   5 -14   5   30.80   13.60
   6 -14   5   21.90   12.90
   6 -14   5   34.00   24.20
   7 -14   5   20.90   25.20
   7 -14   5    9.90   11.50
  -6 -13   5   44.40   22.60
  -5 -13   5   10.80   18.80
  -4 -13   5  -21.40   18.10
  -3 -13   5   40.00   21.60
  -2 -13   5   11.60    4.20
  -2 -13   5   -1.60   19.30
  -1 -13   5   44.40   39.00
  -1 -13   5   12.40    5.80
  -1 -13   5   14.10    6.50
   0 -13   5  154.08   14.00
   0 -13   5  166.48   36.00
   0 -13   5  166.28   15.30
   1 -13   5   37.20   10.20
   1 -13   5   48.30    9.70
   1 -13   5   72.89   26.90
   2 -13   5    6.30    7.80
   2 -13   5   34.50   33.70
   2 -13   5   11.00    8.40
   3 -13   5   10.80    7.80
   3 -13   5   25.90   10.70
   3 -13   5    4.60   20.30
   4 -13   5   62.69   13.60
   4 -13   5   65.79   25.00
   5 -13   5   -5.90    7.70
   5 -13   5   -3.90   17.60
   6 -13   5   91.39   17.70
   6 -13   5  105.89   31.30
   7 -13   5    8.80   10.00
   7 -13   5    6.00   21.90
   8 -13   5  -33.50   21.20
   8 -13   5    7.80   10.60
  -9  13  -5  -19.60   19.40
   9 -13   5   16.40   13.00
  -8 -12   5    1.00   21.80
  -7 -12   5   14.30   18.40
  -6 -12   5  109.39   26.20
  -5 -12   5    1.50   16.80
  -3 -12   5   42.60   21.10
  -2 -12   5  114.39    7.90
  -2 -12   5  167.08   31.00
  -2 -12   5  141.79    9.00
  -1 -12   5   -0.50    5.40
  -1 -12   5   -3.20    4.80
  -1 -12   5   17.50   18.10
   0 -12   5    4.10    5.80
   0 -12   5   -1.00    6.20
   0 -12   5   -7.50   15.20
   1 -12   5    4.10    7.20
   1 -12   5   15.70   18.70
   1 -12   5    2.70    6.80
   2 -12   5   -4.00   14.80
   2 -12   5    3.70    7.20
   2 -12   5   -5.80    6.20
   3 -12   5   31.70   19.10
   3 -12   5   15.20   10.40
   3 -12   5   27.60   10.60
   4 -12   5  131.69   31.00
   4 -12   5   97.29   15.40
   4 -12   5   77.09   13.90
   5 -12   5  116.09   17.20
   5 -12   5  160.08   54.19
   6 -12   5   -6.60   18.80
   6 -12   5   -2.00    8.20
   7 -12   5    0.60   21.60
   7 -12   5   -0.60   11.80
  -8  12  -5   69.59   27.40
   8 -12   5   16.80   10.50
  -9  12  -5   67.79   31.20
   9 -12   5  116.39   21.00
 -10  12  -5   -8.30   17.70
  10 -12   5   13.30   11.90
  -9 -11   5   29.90   19.80
  -8 -11   5    7.80   18.20
  -7 -11   5  102.59   26.10
  -6 -11   5   -8.00   13.90
  -5 -11   5   -5.10   14.20
  -4 -11   5   31.30   18.10
  -3 -11   5  110.89   24.80
  -2 -11   5    6.00    3.60
  -2 -11   5   16.80   16.70
  -2 -11   5    3.40    3.00
  -1 -11   5  190.38   13.10
  -1 -11   5  177.88   28.90
  -1 -11   5  179.78   12.20
   0 -11   5    4.70    5.40
   0 -11   5   -1.40    5.30
   0 -11   5   13.40   16.50
   1 -11   5   44.30   19.10
   1 -11   5   37.40    8.50
   1 -11   5   17.80    8.10
   2 -11   5   -8.10    6.60
   2 -11   5   11.80   15.80
   2 -11   5    2.10    6.40
   3 -11   5  101.29   13.80
   3 -11   5   84.99   25.80
   3 -11   5   81.69   12.70
   4 -11   5   18.50    8.80
   4 -11   5   23.60    9.40
   4 -11   5   26.20   19.60
   5 -11   5   -0.20    7.30
   5 -11   5   -6.70   14.70
   5 -11   5   16.30    9.40
  -6  11  -5    8.90   19.40
   6 -11   5   15.70    9.40
   6 -11   5    1.50   16.10
  -7  11  -5   30.60   21.60
   7 -11   5   12.50    9.50
  -8  11  -5   -1.60   20.00
   8 -11   5    6.40    8.60
  -9  11  -5   -6.50   19.40
   9 -11   5    5.50    9.40
 -10  11  -5   26.80   24.40
  10 -11   5    2.60    9.80
 -11  11  -5   10.10   20.30
 -10 -10   5   44.80   21.70
  -9 -10   5    4.30   15.80
  -8 -10   5    9.70   16.80
  -7 -10   5   -8.40   21.20
  -6 -10   5   10.40   14.50
  -5 -10   5   38.20   18.20
  -4 -10   5   34.20   18.20
   3  10  -5   77.89   31.90
  -3 -10   5   57.69   21.20
   2  10  -5   20.90   17.40
  -2 -10   5   30.50    4.40
  -2 -10   5   49.60    5.20
  -2 -10   5   65.69   20.90
   1  10  -5   63.39   21.40
  -1 -10   5   76.59    7.70
  -1 -10   5   84.69    8.50
  -1 -10   5   85.89   22.20
   0 -10   5   39.10   18.90
   0 -10   5   27.00    7.00
   0 -10   5   25.70   16.60
   1 -10   5   68.29   10.70
   1 -10   5   45.10    9.00
   1 -10   5   81.79   23.30
   1 -10   5   84.89   25.30
   2 -10   5    6.80    6.20
   2 -10   5   33.80   17.90
   2 -10   5    2.80    5.40
   2 -10   5   12.50   14.60
   3 -10   5   35.50   10.00
   3 -10   5   71.29   22.00
   3 -10   5   10.20   16.70
   3 -10   5   42.90    9.50
   4 -10   5   -1.10   15.90
   4 -10   5    3.50    7.10
   4 -10   5   11.70    7.90
   5 -10   5  203.98   32.20
   5 -10   5  224.78   19.80
   5 -10   5  219.18   20.60
  -6  10  -5   -5.40   14.70
   6 -10   5   -2.10    7.10
  -7  10  -5   72.19   24.60
   7 -10   5   61.29   13.70
  -8  10  -5   23.40   20.80
   8 -10   5    6.10    9.30
  -9  10  -5  316.77   41.80
   9 -10   5  273.17   26.50
 -10  10  -5   -9.30   17.40
  10 -10   5   20.10   10.80
 -11  10  -5    7.80   21.10
  11 -10   5    5.90    9.20
 -11  -9   5   -4.60   15.60
 -10  -9   5   20.30   18.80
  -9  -9   5   31.70   18.40
  -8  -9   5  -11.20   16.00
  -7  -9   5   19.00   16.70
  -6  -9   5    4.50   14.30
  -5  -9   5   14.60   15.60
   4   9  -5  352.26   36.20
  -4  -9   5  359.16   32.70
   3   9  -5   34.40   17.80
  -3  -9   5   39.80   17.20
   2   9  -5   49.30   18.90
  -2  -9   5   50.39   17.90
  -2  -9   5   58.69    4.60
  -2  -9   5   53.89    5.00
   1   9  -5  151.68   42.00
  -1  -9   5  111.89    9.60
  -1  -9   5  158.18   23.10
  -1  -9   5   83.09    8.70
   0  -9   5  209.88   26.40
   0  -9   5  153.88   12.00
   0  -9   5  168.48   12.90
   0  -9   5  201.18   27.20
   1  -9   5   22.50    6.50
   1  -9   5   18.30   14.20
   1  -9   5   25.10    7.30
   1  -9   5   44.10   18.20
   2  -9   5   67.29   10.50
   2  -9   5  136.69   26.60
   2  -9   5   95.59   11.80
   3  -9   5   56.69   18.40
   3  -9   5   52.69   10.30
   3  -9   5   50.39   15.90
   3  -9   5   38.10    8.40
  -4   9  -5  367.36   24.80
   4  -9   5  334.67   30.90
   4  -9   5  332.27   35.10
   4  -9   5  350.66   24.20
  -5   9  -5    4.00    7.50
  -5   9  -5   -4.90   12.60
   5  -9   5    8.10   12.30
   5  -9   5    6.40    7.30
  -6   9  -5  -17.40   11.90
  -6   9  -5   -3.80    6.20
   6  -9   5   -4.80    6.20
  -7   9  -5   13.80   18.50
   7  -9   5   13.10    8.50
  -8   9  -5   56.69   22.80
   8  -9   5   38.80   12.60
  -9   9  -5   -7.80   15.20
   9  -9   5    6.50    9.80
 -10   9  -5   77.39   28.90
  10  -9   5   63.19   16.70
 -11   9  -5   -4.50   17.50
  11  -9   5    1.30    9.20
 -12   9  -5   28.50   27.20
  12  -9   5   31.50   14.80
 -11  -8   5    4.80   14.10
 -10  -8   5  -13.00   13.70
  -9  -8   5   11.60   14.00
  -8  -8   5  243.58   27.90
  -7  -8   5  120.29   24.10
  -6  -8   5    2.40   12.90
   5   8  -5  193.68   31.90
  -5  -8   5  212.68   24.50
   4   8  -5   67.59   19.40
  -4  -8   5   75.59   19.30
   3   8  -5   -7.80   12.20
  -3  -8   5   12.60   12.90
   2   8  -5  171.98   23.30
  -2  -8   5  189.88   23.30
  -2  -8   5  161.98    8.40
   1   8  -5   24.50   15.40
  -1  -8   5    2.60    3.80
  -1  -8   5   23.30   14.60
  -1  -8   5   24.50    4.70
   0  -8   5    9.50   11.70
   0  -8   5   -3.00    3.70
   0  -8   5   -3.10   11.10
   0  -8   5    3.70    4.00
   1  -8   5  119.19   11.00
   1  -8   5  137.79   21.70
   1  -8   5   83.09   20.60
  -2   8  -5  162.28   14.20
   2  -8   5  170.98   23.80
   2  -8   5  151.28   13.50
   2  -8   5  172.18   23.40
  -3   8  -5  319.77   21.10
   3  -8   5  325.57   29.30
   3  -8   5  314.37   30.50
   3  -8   5  278.87   20.20
  -4   8  -5   81.89   21.20
  -4   8  -5  110.99   13.50
   4  -8   5  114.89   13.20
   4  -8   5   65.69   25.20
  -5   8  -5   64.69   12.70
  -5   8  -5   94.49   22.80
   5  -8   5   82.89   13.50
   5  -8   5   71.19   17.90
  -6   8  -5    7.40    7.80
  -6   8  -5   32.60   17.50
   6  -8   5   27.70    9.80
   6  -8   5   45.60   14.20
  -7   8  -5   15.60   15.80
   7  -8   5    8.30    8.60
  -8   8  -5   22.40   17.40
   8  -8   5    6.80    7.60
  -9   8  -5   14.20   19.30
   9  -8   5   12.60    9.10
 -10   8  -5  -14.80   13.50
  10  -8   5    6.80    8.80
 -11   8  -5   35.30   21.30
  11  -8   5    6.80   10.00
 -12   8  -5   14.20   22.30
  12  -8   5   11.70   12.10
  12   7  -5   -4.60    5.50
  12   7  -5    1.80    7.20
 -12  -7   5   10.20   15.50
  11   7  -5    8.80    5.60
  11   7  -5    8.70    5.50
 -11  -7   5   44.00   18.10
  10   7  -5   48.80    7.10
  10   7  -5   39.60    6.20
 -10  -7   5   57.49   17.90
   9   7  -5  159.48    8.50
   9   7  -5  120.09    8.40
  -9  -7   5  171.38   24.00
  -8  -7   5   -5.80   11.40
  -7  -7   5    7.10   12.00
   6   7  -5  111.49   25.20
  -6  -7   5   83.49   18.50
  -5  -7   5  185.18   21.70
   4   7  -5  152.08   22.20
  -4  -7   5  110.99   18.90
   3   7  -5  140.19   20.10
  -3  -7   5  104.49   17.90
   2   7  -5   88.99   21.00
  -2  -7   5   72.79    4.60
  -2  -7   5   82.99   17.50
  -2  -7   5   71.99    4.70
   1   7  -5   -4.90    9.00
  -1  -7   5   11.90   11.90
  -1  -7   5   -2.80    2.90
  -1  -7   5    1.60    3.00
   0   7  -5  432.46   22.00
   0  -7   5  441.66   34.60
   0  -7   5  458.05   21.90
  -1   7  -5  336.47   19.90
   1  -7   5  343.97   19.70
   1  -7   5  402.76   32.10
  -2   7  -5  250.87   17.70
   2  -7   5  261.47   26.00
   2  -7   5  227.28   25.80
   2  -7   5  279.67   17.70
  -3   7  -5   68.79   19.10
  -3   7  -5   85.89   11.70
   3  -7   5   77.69   10.60
   3  -7   5   69.89   18.10
  -4   7  -5  546.25   30.60
  -4   7  -5  517.65   39.60
   4  -7   5  491.05   34.70
   4  -7   5  536.35   30.00
  -5   7  -5    0.00    5.80
  -5   7  -5    8.70   12.70
   5  -7   5    6.50    8.20
   5  -7   5   -2.00    4.70
  -6   7  -5  262.37   30.00
  -6   7  -5  262.17   21.90
   6  -7   5  257.07   23.50
   6  -7   5  262.47   21.10
  -7   7  -5  -15.40   10.30
  -7   7  -5   -3.20    5.30
   7  -7   5    4.60    7.70
   7  -7   5   -0.10    6.80
  -8   7  -5  231.08   30.40
   8  -7   5  201.08   20.50
  -9   7  -5   -5.00   13.20
   9  -7   5    5.40    8.40
 -10   7  -5  335.87   38.10
  10  -7   5  265.07   25.70
 -11   7  -5    1.30   19.00
  11  -7   5   17.80   11.30
 -12   7  -5   43.90   23.90
  12  -7   5    6.60    9.70
  12   6  -5   62.59   10.90
  12   6  -5   26.70    8.70
 -12  -6   5   43.50   17.40
  11   6  -5   93.39   11.60
  11   6  -5   72.59   11.10
 -11  -6   5   78.29   20.10
  10   6  -5   28.60    7.50
 -10  -6   5   17.20   16.80
   9   6  -5   41.90    7.20
   9   6  -5   47.00    7.50
  -9  -6   5   21.70   15.10
   8   6  -5   11.00    4.10
   8   6  -5   13.40    4.30
  -8  -6   5   23.20   13.00
   7   6  -5  141.89    7.50
   7   6  -5  140.49   25.70
   7   6  -5  119.99    7.70
  -7  -6   5  166.48   20.60
   6   6  -5  108.89   25.40
  -6  -6   5  175.18   20.20
   5   6  -5  404.56   32.60
  -5  -6   5  398.66   29.40
   4   6  -5   19.00   10.70
  -4  -6   5   39.10   13.60
   3   6  -5  258.57   24.30
   2   6  -5   64.79   16.10
  -2  -6   5   55.19    4.00
  -2  -6   5   77.49   17.10
   1   6  -5  530.55   35.90
   1   6  -5  564.34   25.10
  -1  -6   5  632.14   37.90
  -1  -6   5  582.44   24.60
   0   6  -5   11.60    4.80
   0   6  -5   17.20   10.60
   0  -6   5    7.50    4.00
   0  -6   5    5.10    9.50
  -1   6  -5  435.86   22.00
   1  -6   5  397.16   20.90
   1  -6   5  372.56   30.30
   1  -6   5  386.66   31.20
  -2   6  -5    5.90    5.40
   2  -6   5   26.70   13.00
   2  -6   5   32.30   11.90
   2  -6   5   14.50    6.20
  -3   6  -5  424.16   38.00
  -3   6  -5  367.86   22.60
   3  -6   5  388.86   29.00
   3  -6   5  365.76   22.30
  -4   6  -5   12.70   11.90
  -4   6  -5   17.20    7.10
   4  -6   5   16.00    7.50
   4  -6   5    6.30    9.00
  -5   6  -5   15.40    7.00
  -5   6  -5    9.00   13.00
   5  -6   5    3.70    5.50
   5  -6   5    0.60    7.90
  -6   6  -5   24.20    9.30
  -6   6  -5   42.20   15.80
   6  -6   5   34.50   14.00
   6  -6   5   30.80    8.90
  -7   6  -5  484.95   32.10
  -7   6  -5  510.25   39.90
   7  -6   5  490.25   31.40
   7  -6   5  550.54   33.70
  -8   6  -5    6.80   12.90
   8  -6   5   -5.70    5.70
  -9   6  -5    3.40   12.80
   9  -6   5    1.80    7.90
 -10   6  -5   -5.70   14.60
  10  -6   5   23.40   13.60
 -11   6  -5   -4.50   13.70
  11  -6   5   12.40   11.40
 -12   6  -5   -3.20   15.80
  12  -6   5   -0.50    9.60
 -13   6  -5   65.09   25.60
  13  -6   5   63.39   16.70
  13   5  -5  104.09   14.70
  13   5  -5   46.20   14.80
 -13  -5   5  160.78   24.90
  12   5  -5    3.40    7.70
  12   5  -5   -3.00    7.40
 -12  -5   5   -3.20   13.10
  11   5  -5    1.70    7.10
  11   5  -5    6.90    7.20
 -11  -5   5   16.30   14.00
  10   5  -5    8.30    6.90
  10   5  -5    0.80    5.40
 -10  -5   5    0.80   10.00
   9   5  -5  199.08   14.20
   9   5  -5  200.68   15.10
  -9  -5   5  163.88   22.00
   8   5  -5   10.80   14.90
   8   5  -5   46.90    7.70
   8   5  -5   39.80    6.90
  -8  -5   5   47.30   14.80
   7   5  -5   44.90   16.10
   7   5  -5   53.19    7.00
   7   5  -5   61.89    6.60
  -7  -5   5   86.19   16.40
   6   5  -5    7.20    3.00
   6   5  -5    7.10   10.90
   6   5  -5   11.30    3.40
  -6  -5   5   23.40   10.30
   5   5  -5   98.09    5.40
   5   5  -5  138.29   18.10
  -5  -5   5  144.79   17.00
   4   5  -5   93.59   18.40
  -4  -5   5   63.49   13.70
   3   5  -5  362.96   27.50
  -3  -5   5  371.96   26.50
   2   5  -5   12.90    2.80
   2   5  -5    3.00    8.50
  -2  -5   5   18.60    9.90
  -2  -5   5   18.70    2.70
   1   5  -5   25.40   10.10
   1   5  -5   28.10    4.70
  -1  -5   5   37.10   13.40
  -1  -5   5   27.40    4.20
   0   5  -5  540.65   25.40
   0   5  -5  530.25   33.90
   0  -5   5  588.24   25.30
   0  -5   5  574.84   35.30
  -1   5  -5  198.48   13.40
   1  -5   5  229.88   22.40
   1  -5   5  209.98   21.20
   1  -5   5  195.08   13.50
  -2   5  -5  179.08   21.40
  -2   5  -5  193.48   14.50
   2  -5   5  234.88   21.30
   2  -5   5  201.78   14.00
  -3   5  -5    5.50   10.90
  -3   5  -5   17.50    6.50
   3  -5   5   17.20    9.90
   3  -5   5   10.00    5.30
  -4   5  -5  139.69   19.70
  -4   5  -5  129.79   12.90
   4  -5   5  112.59   12.40
   4  -5   5  100.89   15.10
  -5   5  -5   -3.50    8.80
  -5   5  -5    4.60    5.60
   5  -5   5    0.70    6.40
   5  -5   5   -2.10    4.90
  -6   5  -5   49.70   11.60
  -6   5  -5   67.39   18.00
   6  -5   5   47.10   11.80
   6  -5   5   69.29   12.30
  -7   5  -5   15.10    7.70
  -7   5  -5   28.10   14.30
   7  -5   5   17.90   10.00
   7  -5   5   -1.40    5.00
  -8   5  -5   30.90   16.30
  -8   5  -5   -1.50    6.40
   8  -5   5   -5.50    6.00
   8  -5   5    4.70    7.40
  -9   5  -5   14.80   13.30
   9  -5   5   24.50   10.10
 -10   5  -5   50.39   18.30
  10  -5   5   37.00   12.40
 -11   5  -5   33.50   16.20
  11  -5   5   17.70   11.00
 -12   5  -5   -2.70   13.60
  12  -5   5   -9.00    7.00
 -13   5  -5   -4.50   13.80
  13  -5   5    5.70   10.10
  13   4  -5   -6.30    8.40
  13   4  -5    1.00    8.10
 -13  -4   5   -4.40   13.30
  12   4  -5   12.40    9.10
  12   4  -5   10.10    8.40
 -12  -4   5   17.40   12.70
  11   4  -5   96.09   13.20
  11   4  -5   63.79   11.40
 -11  -4   5  105.99   21.00
  10   4  -5  119.49   12.90
  10   4  -5  136.89   13.80
 -10  -4   5  131.19   19.90
   9   4  -5   -5.30    4.90
   9   4  -5   -2.80    4.80
  -9  -4   5   30.00   12.10
   8   4  -5   19.50    6.40
   8   4  -5   12.60   12.80
  -8  -4   5   15.90   11.60
   7   4  -5  143.29   10.80
   7   4  -5  149.09   11.30
   7   4  -5  177.08   21.30
  -7  -4   5  140.59   17.50
   6   4  -5  104.69   16.80
   6   4  -5   90.59    8.40
   6   4  -5  108.19    8.50
  -6  -4   5  106.39   15.30
   5   4  -5  205.18   10.30
   5   4  -5  173.58   10.60
   5   4  -5  215.08   20.70
  -5  -4   5  212.78   29.40
   4   4  -5   85.39   14.50
   4   4  -5   84.49    6.60
   4   4  -5  109.89    6.20
  -4  -4   5  120.19   14.90
   3   4  -5    1.30    1.80
   3   4  -5    1.70    9.70
  -3  -4   5   -0.90    2.10
  -3  -4   5   -5.50    7.90
   2   4  -5   81.79   13.80
   2   4  -5   76.69    5.60
  -2  -4   5   86.89   14.30
  -2  -4   5   63.69    4.90
   1   4  -5 2033.70  105.29
   1   4  -5 2176.28   82.09
  -1  -4   5 2133.59   91.49
  -1  -4   5 2139.09   81.69
   0   4  -5  182.28   11.40
   0   4  -5  185.08   18.70
   0  -4   5  169.08   10.90
   0  -4   5  192.08   19.00
  -1   4  -5  402.46   20.70
   1  -4   5  430.96   34.30
   1  -4   5  394.16   27.60
   1  -4   5  415.86   20.60
  -2   4  -5    2.20    9.20
  -2   4  -5   -4.40    3.00
   2  -4   5    0.80    3.80
   2  -4   5   10.20    9.60
  -3   4  -5  442.66   24.10
  -3   4  -5  413.36   29.40
   3  -4   5  438.46   23.70
   3  -4   5  423.26   27.00
  -4   4  -5    6.70    5.20
  -4   4  -5    3.70    9.40
   4  -4   5    9.80    6.90
   4  -4   5    1.20    5.20
  -5   4  -5  387.36   24.30
   5  -4   5  397.26   24.30
   5  -4   5  386.46   25.30
  -6   4  -5   10.10   10.40
  -6   4  -5   20.30    7.70
   6  -4   5   18.00    7.60
   6  -4   5    8.00    7.20
  -7   4  -5  106.69   17.80
  -7   4  -5  151.78   17.00
   7  -4   5  125.19   14.80
   7  -4   5  118.99   16.50
  -8   4  -5    1.60    6.90
  -8   4  -5   14.90   12.60
   8  -4   5   14.80    7.80
   8  -4   5   18.90    9.50
  -9   4  -5  247.68   27.50
   9  -4   5  221.08   21.50
 -10   4  -5    0.90   13.00
  10  -4   5   -7.70    6.20
 -11   4  -5   28.50   15.80
  11  -4   5   17.20   10.60
 -12   4  -5   38.00   17.10
  12  -4   5   32.90   13.80
 -13   4  -5  132.99   29.50
  13  -4   5   96.19   19.60
  14   3  -5    1.70   10.20
 -14  -3   5   -7.60   11.50
  13   3  -5   21.60   10.50
  13   3  -5   33.40   12.00
 -13  -3   5   25.20   15.00
  12   3  -5  109.89   14.80
  12   3  -5   55.09   11.90
 -12  -3   5   93.49   21.50
  11   3  -5   29.50    9.10
  11   3  -5   30.50    9.70
 -11  -3   5   34.00   14.30
  10   3  -5  139.19   15.10
  10   3  -5  132.09   14.10
 -10  -3   5  174.68   20.80
   9   3  -5   21.70   14.10
   9   3  -5    7.00    5.40
   9   3  -5   11.50    6.00
  -9  -3   5    8.70    9.40
   8   3  -5  280.37   17.70
   8   3  -5  282.47   25.90
   8   3  -5  275.17   18.20
  -8  -3   5  291.17   23.50
   7   3  -5   57.49    8.90
   7   3  -5   40.10   11.60
   7   3  -5   35.90    7.50
  -7  -3   5   48.40   12.20
   6   3  -5 1167.78   50.99
   6   3  -5 1228.38   60.59
   6   3  -5 1246.98   50.69
  -6  -3   5 1282.87   57.59
   5   3  -5   42.50    6.00
   5   3  -5   43.30    6.90
  -5  -3   5   80.19   13.40
   4   3  -5  627.14   25.60
   4   3  -5  612.44   34.40
  -4  -3   5  592.94   26.00
  -4  -3   5  578.24   32.40
   3   3  -5    4.40    7.30
   3   3  -5    3.40    2.50
  -3  -3   5   -0.60    6.60
  -3  -3   5   -1.00    2.50
   2   3  -5 2312.87  103.09
   2   3  -5 2641.94   95.49
  -2  -3   5 2544.05   95.39
  -2  -3   5 2507.75  102.79
   1   3  -5   12.70    8.40
   1   3  -5   20.20    4.20
  -1  -3   5   10.80    7.80
  -1  -3   5   14.00    3.60
   0   3  -5    8.60    9.40
   0   3  -5   11.60    4.20
   0  -3   5    5.70    3.90
   0  -3   5   15.50    9.00
  -1   3  -5   25.20    5.40
   1  -3   5   30.70    5.80
   1  -3   5   28.70   10.50
   1  -3   5   30.90   10.80
  -2   3  -5   29.30    7.20
  -2   3  -5   38.80   12.10
   2  -3   5   37.60   10.50
   2  -3   5   51.09    7.70
  -3   3  -5   -2.40    4.20
  -3   3  -5    6.60    9.40
   3  -3   5    1.00    4.20
   3  -3   5    3.00    5.90
  -4   3  -5  424.56   28.50
  -4   3  -5  434.86   24.60
   4  -3   5  419.56   23.90
   4  -3   5  435.26   25.20
  -5   3  -5   29.30    7.90
  -5   3  -5    3.40    8.50
   5  -3   5   25.30    8.20
   5  -3   5   26.00    9.00
  -6   3  -5  490.15   29.30
  -6   3  -5  485.35   32.70
   6  -3   5  524.35   29.30
   6  -3   5  504.45   29.10
  -7   3  -5    2.80    9.10
  -7   3  -5   -5.40    4.90
   7  -3   5    5.70    6.90
   7  -3   5   -5.60    4.30
  -8   3  -5  217.78   23.60
  -8   3  -5  164.48   18.50
   8  -3   5  186.48   18.70
   8  -3   5  225.08   19.20
  -9   3  -5   10.80   11.60
   9  -3   5    0.00    7.30
 -10   3  -5   48.10   16.90
  10  -3   5   26.50   10.80
 -11   3  -5    7.60   19.10
 -12   3  -5   75.29   21.90
  12  -3   5   53.69   14.80
 -13   3  -5    3.20   15.60
  13  -3   5   -2.40    8.90
  14   2  -5   73.09   15.80
 -14  -2   5   30.70   15.10
  13   2  -5   43.80   12.90
 -13  -2   5   16.70   12.90
  12   2  -5   15.70    9.30
  12   2  -5    4.00    7.80
 -12  -2   5   12.20   11.60
  11   2  -5   55.99   11.80
  11   2  -5   60.99   12.90
 -11  -2   5   69.49   17.40
  10   2  -5    1.80    6.30
  10   2  -5    3.10    6.30
 -10  -2   5    0.60    9.50
   9   2  -5   29.30    8.00
   9   2  -5   16.90   12.20
   9   2  -5   27.20    8.40
  -9  -2   5   29.20   11.50
   8   2  -5  126.39   12.00
   8   2  -5  101.49   12.10
  -8  -2   5  148.99   16.60
   7   2  -5   30.10   12.70
   7   2  -5   33.10    7.80
   7   2  -5   37.80    7.50
  -7  -2   5   48.50   12.70
   6   2  -5   10.30    4.10
   6   2  -5   24.00    6.50
   6   2  -5    3.20    7.60
  -6  -2   5   36.00    9.60
   5   2  -5   38.70    6.30
   5   2  -5   54.49   12.30
  -5  -2   5   48.70   11.40
   4   2  -5  111.39    8.40
   4   2  -5  118.19   14.00
  -4  -2   5  104.99    8.60
  -4  -2   5  133.59   13.10
   3   2  -5   21.50    9.00
   3   2  -5   18.30    4.10
  -3  -2   5   36.80    9.00
  -3  -2   5   20.10    4.40
   2   2  -5   67.19    5.90
   2   2  -5   53.29   10.30
  -2  -2   5   81.79   10.90
  -2  -2   5   59.29    6.00
   1   2  -5 1036.30   41.70
   1   2  -5 1014.90   46.60
  -1  -2   5 1079.39   41.80
  -1  -2   5  993.50   46.10
   0   2  -5  183.48   11.30
   0  -2   5  192.68   16.00
   0  -2   5  189.88   11.20
   0  -2   5  209.88   17.40
  -1   2  -5  144.39   16.30
  -1   2  -5  156.58   11.10
   1  -2   5  153.88   10.60
   1  -2   5  160.78   14.60
  -2   2  -5   54.19   11.50
  -2   2  -5   61.99    8.20
   2  -2   5   72.29    8.30
   2  -2   5   73.19   10.30
  -3   2  -5  237.88   18.50
  -3   2  -5  201.38   14.70
   3  -2   5  220.68   15.60
   3  -2   5  238.98   15.20
  -4   2  -5    1.60    4.20
  -4   2  -5   -8.80    6.10
   4  -2   5    1.80    4.70
   4  -2   5    0.80    5.50
  -5   2  -5   11.20    8.00
  -5   2  -5    8.20    5.40
   5  -2   5    7.10    6.10
   5  -2   5    3.50    5.30
  -6   2  -5    5.50    5.70
  -6   2  -5   -1.20    6.90
   6  -2   5   -2.10    4.90
   6  -2   5    3.10    5.50
  -7   2  -5  108.89   14.00
  -7   2  -5  110.79   16.40
   7  -2   5  123.29   14.30
   7  -2   5  132.09   14.70
  -8   2  -5    2.30   10.40
  -8   2  -5   -5.20    5.80
   8  -2   5   -1.00    6.10
   8  -2   5    2.80    7.30
  -9   2  -5   16.30   12.50
   9  -2   5   -3.60   10.10
   9  -2   5    3.70    7.00
 -10   2  -5    8.00   10.60
  10  -2   5   -7.80    6.10
 -11   2  -5   23.90   27.30
  11  -2   5   52.89   14.10
 -12   2  -5   11.80   15.00
  12  -2   5    7.30    9.90
 -13   2  -5   16.00   18.80
  13  -2   5   18.80   13.00
  14   1  -5   18.80   12.20
 -14  -1   5    9.40   12.50
  13   1  -5    7.20    8.90
 -13  -1   5   -8.40    7.50
  12   1  -5   10.20    9.10
  12   1  -5   12.00    9.50
 -12  -1   5    4.30   10.50
  11   1  -5    3.90    6.70
  11   1  -5   -4.70    7.20
 -11  -1   5    9.20   10.40
  10   1  -5   50.29   11.20
  10   1  -5   10.40    7.30
 -10  -1   5   36.70   13.90
   9   1  -5    9.80    6.00
   9   1  -5   10.70    9.90
   9   1  -5    5.00    5.60
  -9  -1   5    2.50    8.00
   8   1  -5   99.89   11.50
   8   1  -5  106.29   16.00
   8   1  -5   95.29   12.20
  -8  -1   5  128.69   15.20
   7   1  -5  124.69   12.70
   7   1  -5  114.19   11.50
   7   1  -5  121.99   15.50
  -7  -1   5  147.69   15.10
   6   1  -5  489.35   29.30
   6   1  -5  458.55   25.40
   6   1  -5  507.35   24.90
  -6  -1   5  491.25   27.70
   5   1  -5   56.79    7.60
   5   1  -5   70.89   12.40
  -5  -1   5   60.49   10.80
  -5  -1   5   46.30    7.60
   4   1  -5   12.70    7.10
   4   1  -5    9.30    4.20
  -4  -1   5    7.90    6.30
  -4  -1   5    2.60    3.50
   3   1  -5   15.10    4.30
   3   1  -5   37.70    9.70
  -3  -1   5   34.90    7.90
  -3  -1   5   28.20    5.00
   2   1  -5  862.51   39.00
   2   1  -5  903.31   36.30
  -2  -1   5  875.51   36.30
  -2  -1   5  854.31   38.10
   1   1  -5   93.19   10.70
   1   1  -5   89.49    7.60
  -1  -1   5   93.79    7.60
  -1  -1   5  110.09   10.30
   0   1  -5   37.80    5.90
   0  -1   5   65.49   10.40
   0  -1   5   55.99   10.10
   0  -1   5   40.70    6.00
  -1   1  -5   40.60    9.20
  -1   1  -5   19.30    4.90
   1  -1   5   17.60    4.70
   1  -1   5   15.60    6.40
  -2   1  -5  297.97   19.00
  -2   1  -5  310.67   17.30
   2  -1   5  287.17   16.70
   2  -1   5  303.27   16.90
  -3   1  -5  104.29   10.30
  -3   1  -5  100.19   12.10
   3  -1   5  102.19   10.10
   3  -1   5  104.99    9.80
  -4   1  -5 1219.88   55.29
  -4   1  -5 1267.47   54.59
   4  -1   5 1228.08   53.89
   4  -1   5 1248.78   53.29
  -5   1  -5    4.50    6.80
  -5   1  -5    5.50    5.20
   5  -1   5    0.70    5.10
   5  -1   5   13.00    6.40
  -6   1  -5  125.59   17.70
  -6   1  -5  128.99   14.00
   6  -1   5  155.28   14.30
   6  -1   5  146.19   14.00
  -7   1  -5   -2.70    5.00
  -7   1  -5   -4.80    7.60
   7  -1   5   15.80    7.40
   7  -1   5   -3.00    6.20
  -8   1  -5  408.46   29.50
  -8   1  -5  403.96   27.60
   8  -1   5  387.26   26.40
   8  -1   5  402.66   28.10
  -9   1  -5   -6.50    8.20
  -9   1  -5   -5.20    6.40
   9  -1   5  -15.00    7.40
   9  -1   5   -0.50    7.10
 -10   1  -5    7.60   12.60
  10  -1   5    7.20    9.10
 -11   1  -5   -4.40   13.90
  11  -1   5    0.60    8.60
 -12   1  -5   83.89   22.20
  12  -1   5  111.79   19.20
 -13   1  -5   26.00   17.60
  13  -1   5   32.00   13.50
  14   0  -5    9.60   10.80
 -14   0   5    3.20   11.30
  13   0  -5  300.47   26.50
 -13   0   5  287.57   28.40
  12   0  -5   23.70   11.80
 -12   0   5   21.00   11.30
  11   0  -5   14.30    7.90
  11   0  -5    3.00    7.90
 -11   0   5   17.10   11.10
  10   0  -5   26.30    9.50
  10   0  -5    9.40   12.40
 -10   0   5    9.50    8.90
   9   0  -5  356.16   23.30
   9   0  -5  392.36   25.40
   9   0  -5  348.97   28.00
  -9   0   5  343.07   26.00
   8   0  -5   79.29   16.60
   8   0  -5   71.59   13.00
   8   0  -5   57.49   10.50
  -8   0   5   67.59   13.90
   7   0  -5  525.65   27.90
   7   0  -5  538.65   29.10
   7   0  -5  514.15   31.20
  -7   0   5  538.65   30.10
   6   0  -5   -1.20    7.10
   6   0  -5    4.00    4.20
   6   0  -5   -3.50    4.20
  -6   0   5    8.10    6.70
   5   0  -5  148.59   13.90
   5   0  -5  141.89   11.40
  -5   0   5  144.79   13.00
  -5   0   5  128.89   11.20
   4   0  -5    3.70    5.30
   4   0  -5    7.70    4.00
  -4   0   5   14.80    5.00
  -4   0   5   21.10    6.70
   3   0  -5  404.06   20.10
   3   0  -5  401.76   21.40
  -3   0   5  415.36   20.70
  -3   0   5  413.26   20.30
   2   0  -5    6.90    3.80
   2   0  -5   14.50    6.10
  -2   0   5   17.30    5.20
  -2   0   5   20.00    5.60
   1   0  -5 2862.31  107.59
   1   0  -5 2773.82  107.09
  -1   0   5 2734.63  106.09
  -1   0   5 2799.62  107.49
   0   0  -5   -1.30    3.00
   0   0   5    0.20    4.20
   0   0   5   -7.00    4.40
   0   0   5   -2.50    3.00
  -1   0  -5  573.74   27.50
  -1   0  -5  627.74   27.60
   1   0   5  610.54   27.50
   1   0   5  611.14   25.70
  -2   0  -5    2.60    4.90
  -2   0  -5    6.60    4.20
   2   0   5    2.30    3.60
   2   0   5    0.60    4.10
  -3   0  -5  566.84   28.30
  -3   0  -5  610.84   29.00
   3   0   5  601.44   28.60
   3   0   5  568.04   27.00
  -4   0  -5   10.70    5.70
  -4   0  -5   21.30    7.50
   4   0   5    7.90    5.40
  -5   0  -5   31.40    8.20
  -5   0  -5   34.90    8.40
   5   0   5   39.80    8.50
   5   0   5   49.30    9.50
  -6   0  -5   -0.30    5.50
  -6   0  -5    7.80    7.20
   6   0   5   -1.10    4.80
   6   0   5    7.30    7.00
  -7   0  -5  153.68   16.60
  -7   0  -5  161.18   16.50
   7   0   5  213.08   18.20
   7   0   5  132.09   14.30
  -8   0  -5    6.70    8.70
  -8   0  -5    0.60    6.70
   8   0   5    6.00   11.80
   8   0   5   -4.30    5.60
  -9   0  -5   18.90   10.50
  -9   0  -5   -1.10    9.80
   9   0   5    2.90    7.30
   9   0   5    4.80   10.30
 -10   0  -5   13.70   12.30
  10   0   5    2.60    8.30
 -11   0  -5  -14.00   11.30
  11   0   5   17.30    9.80
 -12   0  -5    8.60   14.90
  12   0   5   21.90   11.80
 -13   0  -5   85.99   22.60
  13   0   5   63.49   16.00
  14  -1  -5    2.90   10.20
 -14   1   5    9.80   13.10
  13  -1  -5    0.20    8.80
 -13   1   5    7.50   11.30
  12  -1  -5  241.58   23.60
 -12   1   5  308.37   29.10
  11  -1  -5   50.69   12.40
 -11   1   5   26.10   10.80
  10  -1  -5  414.76   26.90
  10  -1  -5  374.86   27.80
 -10   1   5  418.16   29.40
   9  -1  -5   58.79   12.40
   9  -1  -5   40.60   11.90
   9  -1  -5   44.60   10.60
  -9   1   5   47.60   12.10
   8  -1  -5  218.28   18.40
   8  -1  -5  207.68   19.30
   8  -1  -5  246.38   17.80
  -8   1   5  210.38   18.80
   7  -1  -5    3.80    5.00
   7  -1  -5   11.10    5.80
   7  -1  -5    9.10    7.10
  -7   1   5    3.30    6.20
   6  -1  -5    4.50    4.90
   6  -1  -5   -0.10    5.90
  -6   1   5    0.90    5.80
  -6   1   5   -5.70    3.70
   5  -1  -5   -1.10    5.30
   5  -1  -5    0.10    4.00
  -5   1   5   -0.70    4.30
  -5   1   5    3.50    5.30
   4  -1  -5   92.49    9.20
   4  -1  -5   98.29   10.10
  -4   1   5   89.89    9.60
  -4   1   5   94.69    9.50
   3  -1  -5   -0.10    3.40
   3  -1  -5   -4.20    4.10
  -3   1   5   -4.50    3.60
  -3   1   5    3.90    3.60
   2  -1  -5  124.19    9.70
   2  -1  -5  127.99    8.70
  -2   1   5  122.79    8.10
  -2   1   5  131.09   10.10
   1  -1  -5    3.00    3.20
   1  -1  -5    0.20    2.80
  -1   1   5    2.50    2.40
  -1   1   5   -3.70    3.60
   0  -1  -5  111.89    9.30
   0   1   5  133.49    9.50
  -1  -1  -5    2.20    4.00
  -1  -1  -5   -2.20    3.40
   1   1   5    5.00    3.80
   1   1   5    7.80    3.10
  -2  -1  -5   16.20    7.90
  -2  -1  -5   14.80    4.70
   2   1   5   24.50    5.80
   2   1   5   12.90    4.60
  -3  -1  -5    0.50    4.70
  -3  -1  -5   -3.80    3.50
   3   1   5    0.80    3.30
  -4  -1  -5    5.70    6.00
  -4  -1  -5   10.50    6.10
   4   1   5    3.80    5.80
   4   1   5    6.70    5.10
  -5  -1  -5   12.60    6.70
  -5  -1  -5    8.40    5.40
   5   1   5   18.20    7.40
   5   1   5    7.00    5.20
  -6  -1  -5   71.09   11.50
  -6  -1  -5  100.09   12.60
   6   1   5   90.09   13.40
   6   1   5   92.99   11.20
  -7  -1  -5    2.50    6.00
  -7  -1  -5    2.70    8.00
   7   1   5   -2.90    8.00
   7   1   5    2.00    5.50
  -8  -1  -5   13.50    9.30
  -8  -1  -5    1.20    9.10
   8   1   5    4.30   11.30
   8   1   5    0.90    6.00
  -9  -1  -5   39.70   12.00
  -9  -1  -5    8.80   10.10
   9   1   5   32.10   15.20
   9   1   5   23.60    8.90
 -10  -1  -5   89.59   19.40
  10   1   5   85.29   15.40
  11   1   5  -10.60    6.40
 -12  -1  -5   10.00   12.20
  12   1   5   10.80   10.60
  14  -2  -5   -8.80    7.80
 -14   2   5   -1.70   12.20
  13  -2  -5   57.59   15.90
 -13   2   5   32.80   13.80
  12  -2  -5    2.10    8.80
 -12   2   5   -6.60    9.30
  11  -2  -5   20.70   10.80
 -11   2   5   43.00   15.60
  10  -2  -5   38.10   11.20
  10  -2  -5   22.80    9.10
 -10   2   5   27.60   10.80
   9  -2  -5    3.80    8.40
   9  -2  -5    7.30    6.20
   9  -2  -5   -2.20    4.80
  -9   2   5    1.10    7.50
   8  -2  -5   -1.70    4.80
   8  -2  -5    1.10    6.40
   8  -2  -5    5.50    6.30
  -8   2   5    1.50    6.90
   7  -2  -5  271.27   20.20
   7  -2  -5  268.57   18.90
   7  -2  -5  258.77   19.60
  -7   2   5  273.87   22.60
   6  -2  -5    0.60    4.30
   6  -2  -5    3.80    5.90
  -6   2   5    1.90    6.30
  -6   2   5    0.60    4.70
   5  -2  -5    5.30    5.00
   5  -2  -5   22.00    6.90
  -5   2   5   25.80    7.70
  -5   2   5   13.80    6.10
   4  -2  -5   -0.90    4.00
   4  -2  -5   -3.30    3.60
  -4   2   5  -11.40    3.30
  -4   2   5    3.60    4.20
   3  -2  -5  790.72   33.20
   3  -2  -5  757.62   34.90
  -3   2   5  791.82   33.50
  -3   2   5  732.73   35.10
   2  -2  -5   30.80    4.90
   2  -2  -5   33.70    8.80
  -2   2   5   32.60    6.30
  -2   2   5   35.80    5.50
   1  -2  -5   63.89    7.30
   1  -2  -5   49.40    3.80
  -1   2   5   67.39    7.70
   0  -2  -5    4.80    3.90
   0   2   5    9.60    4.40
  -1  -2  -5  136.59    7.50
   1   2   5  139.09   10.60
   1   2   5  135.59    8.50
  -2  -2  -5    5.40    3.70
  -2  -2  -5    2.40    4.00
   2   2   5   13.60    4.70
   2   2   5   13.90    5.30
  -3  -2  -5  373.56   20.40
  -3  -2  -5  352.56   18.60
   3   2   5  360.66   19.90
   3   2   5  344.37   19.70
  -4  -2  -5   28.40    7.30
  -4  -2  -5   24.50    6.30
   4   2   5   42.30    8.40
   4   2   5   27.40    9.40
  -5  -2  -5   38.40    9.00
  -5  -2  -5   38.40    8.90
   5   2   5   40.00    8.10
   5   2   5   36.10    9.70
  -6  -2  -5   19.20    8.70
  -6  -2  -5    0.50    5.60
   6   2   5   22.50   10.50
   6   2   5   -1.70    4.60
  -7  -2  -5  227.48   19.60
  -7  -2  -5  221.78   19.40
   7   2   5  267.57   19.00
   7   2   5  238.48   22.60
  -8  -2  -5   18.90   10.20
  -8  -2  -5   42.70   12.00
   8   2   5   36.20    9.70
   8   2   5   30.60   13.90
  -9  -2  -5   78.49   16.40
  -9  -2  -5   77.59   15.80
   9   2   5   79.39   14.20
   9   2   5   44.70   18.60
 -10  -2  -5   -0.60   11.30
  10   2   5   -3.10    7.00
 -11  -2  -5   43.60   25.00
  11   2   5   63.89   14.50
 -12  -2  -5   34.50   16.20
  12   2   5   39.30   13.60
  14  -3  -5   72.69   18.00
 -14   3   5  112.19   25.70
  13  -3  -5    4.10    8.70
 -13   3   5   18.60   13.10
  12  -3  -5   36.70   13.00
 -12   3   5   48.30   15.80
  11  -3  -5   -9.50    7.00
 -11   3   5    9.10    9.70
  10  -3  -5    4.20    7.40
 -10   3   5   11.70   10.70
   9  -3  -5    0.20    6.20
   9  -3  -5   -6.30    4.20
   9  -3  -5   20.50   10.30
  -9   3   5    2.00    8.50
   8  -3  -5  690.03   49.50
   8  -3  -5  684.03   37.90
   8  -3  -5  723.23   39.50
  -8   3   5  720.23   39.30
   7  -3  -5    7.40    5.90
   7  -3  -5    1.10    5.30
   7  -3  -5    7.30    6.60
  -7   3   5    3.30    7.10
   6  -3  -5  305.27   19.40
   6  -3  -5  306.67   20.30
  -6   3   5  265.17   19.70
  -6   3   5  277.87   19.90
   5  -3  -5    8.10    5.70
   5  -3  -5   11.20    5.90
  -5   3   5    2.00    4.80
  -5   3   5   26.70    8.10
   4  -3  -5 3281.37  127.69
   4  -3  -5 3190.08  125.29
  -4   3   5 3302.47  126.99
  -4   3   5 3144.09  127.79
   3  -3  -5   19.10    6.10
   3  -3  -5   34.30    6.20
  -3   3   5   39.50    7.90
  -3   3   5   32.60    7.60
   2  -3  -5 1366.06   53.29
   2  -3  -5 1356.06   56.89
  -2   3   5 1346.07   55.39
  -2   3   5 1360.06   57.19
   1  -3  -5   54.19    6.30
   1  -3  -5   45.10    4.60
   1  -3  -5   31.80    6.40
  -1   3   5   49.30    7.40
   0  -3  -5    5.50    4.60
   0  -3  -5   12.10    3.30
   0  -3  -5    6.60    4.10
   0   3   5   -0.30    3.90
  -1  -3  -5    0.00    3.80
  -1  -3  -5    1.90    2.90
   1   3   5    2.30    3.80
   1   3   5   -1.60    4.60
  -2  -3  -5  911.71   38.10
  -2  -3  -5  937.11   41.00
   2   3   5  906.41   40.50
   2   3   5  923.61   40.00
  -3  -3  -5   28.10    6.30
  -3  -3  -5   28.00    6.00
   3   3   5   19.10    7.20
   3   3   5   16.90    5.60
  -4  -3  -5   33.60    8.10
  -4  -3  -5   42.70    8.30
   4   3   5   13.80    8.80
   4   3   5   31.80    6.90
  -5  -3  -5   58.79   10.50
  -5  -3  -5   74.59   10.50
   5   3   5   54.49    9.30
   5   3   5   54.59   12.30
  -6  -3  -5  250.37   19.70
   6   3   5  245.38   23.00
   6   3   5  300.67   19.30
  -7  -3  -5   24.70    9.90
  -7  -3  -5   33.90   10.50
   7   3   5   30.20   14.90
   7   3   5   31.20    9.00
  -8  -3  -5   -2.10    7.70
  -8  -3  -5   13.60   11.40
   8   3   5  -14.00   11.60
   8   3   5    8.00    7.30
  -9  -3  -5   15.30   11.10
  -9  -3  -5    7.50   10.30
   9   3   5   -1.60    6.80
 -10  -3  -5   10.50   12.60
  10   3   5    1.70    7.70
 -11  -3  -5   53.99   16.90
  11   3   5   47.70   12.20
 -12  -3  -5    4.40   12.90
  12   3   5   13.90   11.10
  14  -4  -5   -2.10   10.50
 -14   4   5   -3.10   12.10
  13  -4  -5  134.49   20.70
 -13   4   5  164.28   30.60
  12  -4  -5   11.80   10.50
 -12   4   5   21.60   13.70
  11  -4  -5  118.99   18.90
 -11   4   5  142.29   21.10
  10  -4  -5  -10.10    6.30
 -10   4   5    8.20   10.50
   9  -4  -5  119.79   15.50
   9  -4  -5  112.69   14.60
   9  -4  -5  114.59   16.10
  -9   4   5  146.29   18.60
   8  -4  -5   -3.30    4.30
   8  -4  -5   -3.50    5.60
   8  -4  -5    4.60    6.20
  -8   4   5   10.80    8.30
   7  -4  -5   12.00    7.10
   7  -4  -5   13.40    8.00
   7  -4  -5   -3.00    4.70
  -7   4   5   18.10    8.30
   6  -4  -5   -2.20    3.90
   6  -4  -5   -5.70    4.10
  -6   4   5   -3.80    4.60
  -6   4   5   -0.90    6.20
   5  -4  -5  222.48   16.90
   5  -4  -5  230.68   15.30
  -5   4   5  218.48   17.50
  -5   4   5  198.68   16.40
   4  -4  -5    9.30    5.20
   4  -4  -5    9.60    5.50
  -4   4   5   -1.20    3.80
  -4   4   5    4.50    6.10
   3  -4  -5  754.12   36.10
   3  -4  -5  762.22   33.20
  -3   4   5  741.33   36.40
  -3   4   5  781.02   36.60
   2  -4  -5   19.70    5.80
   2  -4  -5   20.00    5.30
  -2   4   5    6.40    5.10
  -2   4   5   16.10    7.30
   1  -4  -5  820.52   34.20
   1  -4  -5  778.02   35.40
   1  -4  -5  834.82   36.90
  -1   4   5  794.52   36.90
   0  -4  -5   77.09    9.70
   0  -4  -5   70.89    8.40
   0  -4  -5   74.79    7.70
   0   4   5   69.99    8.80
  -1  -4  -5  262.17   15.90
  -1  -4  -5  232.88   13.30
   1   4   5  261.77   15.80
   1   4   5  235.08   15.40
  -2  -4  -5   -3.60    4.30
  -2  -4  -5    7.00    4.30
   2   4   5    1.10    4.10
   2   4   5   10.10    6.80
  -3  -4  -5   62.99    9.30
  -3  -4  -5   82.99   10.00
   3   4   5   97.79   12.10
   3   4   5  101.49   10.10
  -4  -4  -5  177.88   14.30
  -4  -4  -5  157.78   13.40
   4   4   5  172.08   13.60
   4   4   5  152.48   16.10
  -5  -4  -5  329.27   21.50
  -5  -4  -5  310.37   20.70
   5   4   5  321.17   25.00
   5   4   5  349.96   26.10
  -6  -4  -5   47.90   10.50
  -6  -4  -5   34.10    9.60
   6   4   5   51.29    9.90
   6   4   5   31.90   13.30
  -7  -4  -5   50.99   12.70
  -7  -4  -5   49.50   12.50
   7   4   5   13.90   13.30
   7   4   5   54.69   10.70
  -8  -4  -5   51.99   13.80
  -8  -4  -5  101.09   16.20
   8   4   5   85.79   21.60
   8   4   5   79.79   12.50
  -9  -4  -5  -10.00    9.30
  -9  -4  -5    6.80   10.30
   9   4   5   11.50    8.90
 -10  -4  -5   44.30   15.10
  10   4   5   49.20   12.00
 -11  -4  -5   10.70   12.50
  11   4   5   10.10    9.90
  14  -5  -5   -3.70    9.40
 -14   5   5   -7.40   11.40
  13  -5  -5    2.30   10.10
 -13   5   5    3.80   12.60
  12  -5  -5  253.67   27.10
 -12   5   5  256.27   29.20
  11  -5  -5   43.10   16.80
 -11   5   5   24.50   14.00
  10  -5  -5   48.30   14.00
 -10   5   5   42.00   14.90
   9  -5  -5    2.70    7.50
   9  -5  -5    4.40    7.40
  -9   5   5    5.50   10.40
   8  -5  -5  236.58   19.50
   8  -5  -5  239.88   21.50
   8  -5  -5  233.78   19.80
  -8   5   5  216.18   22.20
   7  -5  -5   -0.80    6.00
   7  -5  -5    6.50    6.10
   7  -5  -5   -0.50    5.70
  -7   5   5    7.50    8.30
   6  -5  -5   25.20    8.00
   6  -5  -5    7.40    6.10
  -6   5   5   12.40    9.50
  -6   5   5   19.40    8.20
   5  -5  -5   26.50    7.80
   5  -5  -5   16.40    7.30
  -5   5   5   17.90    7.70
  -5   5   5   33.80   10.70
   4  -5  -5   90.99   11.20
  -4   5   5  102.29   11.80
  -4   5   5  104.79   13.40
   3  -5  -5   38.30    8.60
   3  -5  -5   47.00    7.70
  -3   5   5   45.90   11.40
  -3   5   5   55.79   11.50
   2  -5  -5  679.03   31.40
   2  -5  -5  661.93   33.30
   2  -5  -5  707.13   34.60
  -2   5   5  708.43   34.20
   1  -5  -5   19.10    5.90
   1  -5  -5   29.90    8.10
   1  -5  -5   21.40    7.90
  -1   5   5   30.90    7.10
   0  -5  -5   54.49   11.20
   0  -5  -5   62.19    8.20
   0  -5  -5   35.20    7.70
   0   5   5   54.19    9.00
  -1  -5  -5   23.00    6.20
  -1  -5  -5   23.40    6.50
   1   5   5   31.60    9.30
   1   5   5   20.20    5.70
  -2  -5  -5  331.67   19.90
  -2  -5  -5  325.27   18.90
   2   5   5  358.36   22.20
   2   5   5  351.16   20.10
  -3  -5  -5  229.48   16.70
  -3  -5  -5  274.47   16.80
   3   5   5  275.07   25.80
   3   5   5  222.78   16.20
  -4  -5  -5    9.40    6.80
  -4  -5  -5    3.40    6.00
   4   5   5   17.90    6.80
   4   5   5   16.40   10.40
  -5  -5  -5   59.49   11.70
  -5  -5  -5    9.40    7.20
   5   5   5   31.70   12.20
   5   5   5   11.60    6.70
  -6  -5  -5   49.00   12.80
  -6  -5  -5   27.70   10.40
   6   5   5   38.80    9.30
   6   5   5   60.09   17.10
  -7  -5  -5   32.60   10.40
  -7  -5  -5   34.70   11.90
   7   5   5   56.59   11.30
   7   5   5   56.79   19.00
  -8  -5  -5   34.10   11.60
  -8  -5  -5   65.99   15.30
   8   5   5   24.20   18.50
   8   5   5   48.80   11.70
  -9  -5  -5   -4.50    9.90
  -9  -5  -5   17.60   11.60
   9   5   5  -13.10    6.80
 -10  -5  -5    4.90   12.80
  10   5   5   -7.90    8.10
 -11  -5  -5    9.00   14.70
  11   5   5   30.10   11.50
  13  -6  -5   25.80   12.40
 -13   6   5   64.19   21.30
  12  -6  -5  -13.20    7.00
 -12   6   5    7.80   12.10
  11  -6  -5    5.50   10.10
 -11   6   5    7.70   12.90
  10  -6  -5    4.80    8.80
 -10   6   5    5.40   10.80
   9  -6  -5  588.74   35.30
   9  -6  -5  561.34   38.30
  -9   6   5  642.14   42.10
   8  -6  -5   -0.60    6.40
   8  -6  -5   -1.10    7.10
  -8   6   5    8.30   10.80
   7  -6  -5  168.28   16.90
   7  -6  -5  164.68   15.70
   7  -6  -5  165.98   18.30
  -7   6   5  194.08   20.70
   6  -6  -5    6.00    5.30
   6  -6  -5    1.60    5.90
  -6   6   5   -2.80    4.90
   5  -6  -5  682.73   35.10
   5  -6  -5  825.22   39.10
  -5   6   5  723.63   41.10
  -5   6   5  703.33   38.20
   4  -6  -5   70.39    9.50
   4  -6  -5   59.69   11.00
  -4   6   5   62.49   13.80
  -4   6   5   86.19   11.50
   3  -6  -5 1555.44   66.79
   3  -6  -5 1475.95   64.19
  -3   6   5 1573.44   67.29
   2  -6  -5   11.00    5.00
   2  -6  -5    9.40    6.00
   2  -6  -5   18.80    8.30
  -2   6   5    9.90    5.90
   1  -6  -5  220.58   17.80
   1  -6  -5  279.37   17.60
   1  -6  -5  267.37   18.70
  -1   6   5  270.97   18.90
   0  -6  -5   30.70    6.70
   0  -6  -5   26.00   10.00
   0  -6  -5   28.50    8.40
   0   6   5   24.70    6.90
  -1  -6  -5  228.48   16.30
  -1  -6  -5  268.07   17.00
   1   6   5  234.98   16.50
   1   6   5  241.68   19.30
  -2  -6  -5    1.80    5.00
  -2  -6  -5   20.20    6.90
   2   6   5    9.80    8.70
   2   6   5   24.50    6.70
  -3  -6  -5   25.80    7.40
  -3  -6  -5   24.10    8.50
   3   6   5   16.60   10.50
   3   6   5   13.80    6.70
  -4  -6  -5   83.49   12.10
  -4  -6  -5   52.59   10.20
   4   6   5   61.79   16.30
   4   6   5   53.89   11.00
  -5  -6  -5   52.69   22.30
  -5  -6  -5   58.69   12.00
   5   6   5   50.59   16.60
   5   6   5   85.19   11.90
  -6  -6  -5    1.40    9.80
  -6  -6  -5   27.00    9.50
   6   6   5   16.50    8.00
   6   6   5   21.80   16.90
  -7  -6  -5   42.10   12.70
  -7  -6  -5   54.39   14.80
   7   6   5   50.39   11.30
   7   6   5   45.90   19.40
  -8  -6  -5   16.50   10.30
  -8  -6  -5   19.70   11.30
   8   6   5   -3.80   23.70
   8   6   5    5.40    8.30
  -9  -6  -5    3.30   11.60
  -9  -6  -5   -5.20   10.50
   9   6   5    8.20    9.60
 -10  -6  -5   35.20   16.70
  10   6   5    0.50    9.40
  13  -7  -5    5.40   10.70
 -13   7   5   -7.30   11.70
  12  -7  -5   18.80   11.90
 -12   7   5   27.00   16.70
  11  -7  -5    3.80    8.00
 -11   7   5   -5.20   12.30
  10  -7  -5   68.49   16.30
 -10   7   5   83.09   22.80
   9  -7  -5    9.00    8.80
  -9   7   5    0.20   10.00
   8  -7  -5   59.59   12.90
   8  -7  -5   65.79   15.50
  -8   7   5   80.89   20.10
   7  -7  -5    6.10    6.40
   7  -7  -5   13.50    8.60
  -7   7   5  -10.80    9.70
   6  -7  -5  420.56   27.70
   6  -7  -5  405.16   25.00
  -6   7   5  428.86   28.00
  -6   7   5  371.96   30.30
   5  -7  -5   -3.00    5.90
   5  -7  -5   -0.80    5.50
  -5   7   5   -8.60    5.10
  -5   7   5    1.10    9.10
   4  -7  -5    8.70    6.10
   4  -7  -5   10.80    6.10
  -4   7   5   20.70   10.70
  -4   7   5    2.50    5.60
   3  -7  -5   11.50    6.90
   3  -7  -5    9.30    9.60
   3  -7  -5    8.10    6.80
  -3   7   5    4.10    5.90
   2  -7  -5    7.80    8.70
   2  -7  -5    3.40    4.90
  -2   7   5   -2.70    4.70
   1  -7  -5   14.00    5.60
   1  -7  -5   27.20   10.00
   1  -7  -5   25.20    9.00
  -1   7   5   28.30    7.80
   0  -7  -5   18.40    8.30
   0  -7  -5   14.70    6.00
   0  -7  -5   19.10   10.80
   0   7   5   17.00    6.70
  -1  -7  -5   28.50    8.70
  -1  -7  -5   17.80    6.40
   1   7   5   28.00    7.30
  -2  -7  -5    8.90    7.00
  -2  -7  -5    0.10    5.00
   2   7   5   11.40    6.30
   2   7   5   -1.80    9.10
  -3  -7  -5  103.19   12.30
  -3  -7  -5   98.99   13.40
   3   7   5   82.29   11.40
   3   7   5   94.59   18.00
  -4  -7  -5   13.50    9.80
  -4  -7  -5   -7.80    6.00
   4   7   5    4.80    6.50
   4   7   5   28.30   15.00
  -5  -7  -5   25.60    9.10
  -5  -7  -5   12.40   10.40
   5   7   5    9.00   14.20
   5   7   5    5.10    7.00
  -6  -7  -5   60.29   14.50
  -6  -7  -5   56.39   13.30
   6   7   5   68.69   12.20
   6   7   5   41.70   20.80
  -7  -7  -5   -1.00   11.00
  -7  -7  -5   26.00   13.20
   7   7   5   54.09   23.40
   7   7   5   39.90   10.40
  -8  -7  -5   27.60   13.60
  -8  -7  -5    2.80   10.70
   8   7   5   15.70    9.20
  -9  -7  -5   99.09   20.20
  -9  -7  -5   58.29   16.30
   9   7   5  106.29   16.30
  12  -8  -5   -7.90    9.60
 -12   8   5    9.30   15.00
  11  -8  -5    8.70    9.10
 -11   8   5   -0.80   14.00
  10  -8  -5    7.80    9.10
 -10   8   5   -1.90   11.90
   9  -8  -5  121.69   21.40
  -9   8   5  142.19   23.40
   8  -8  -5    6.10    8.90
   8  -8  -5    9.90    8.40
  -8   8   5   12.20   12.90
   7  -8  -5    5.00    8.50
  -7   8   5   22.80   14.90
   6  -8  -5   39.50   10.00
  -6   8   5   58.69   13.10
  -6   8   5   50.99   17.90
   5  -8  -5   -3.80    7.00
   5  -8  -5    5.60    7.00
  -5   8   5   -5.20   10.70
  -5   8   5    2.40    7.00
   4  -8  -5   10.60   11.40
   4  -8  -5   31.50    9.90
   4  -8  -5   22.80    8.20
  -4   8   5   31.20   10.20
   3  -8  -5  100.49   15.60
   3  -8  -5  120.99   17.80
   3  -8  -5   93.99   13.30
  -3   8   5  102.29   13.80
   2  -8  -5    6.00   10.00
   2  -8  -5    1.70    5.50
   2  -8  -5    1.90    8.40
  -2   8   5    6.10    7.00
   1  -8  -5    0.70    9.00
   1  -8  -5   19.50    7.50
   1  -8  -5    6.10    9.30
  -1   8   5   20.90    8.10
   0  -8  -5  -10.70    7.50
   0  -8  -5    1.50    5.30
   0  -8  -5    7.40   10.20
   0   8   5   -7.60    5.20
  -1  -8  -5    5.30   12.10
  -1  -8  -5   -6.40    5.10
  -1  -8  -5   -0.30    7.50
   1   8   5    6.90    6.80
  -2  -8  -5  108.69   14.60
  -2  -8  -5  108.19   12.90
   2   8   5   96.49   19.40
   2   8   5   90.29   12.20
  -3  -8  -5  301.07   21.50
  -3  -8  -5  335.97   23.50
   3   8   5  320.47   21.40
   3   8   5  298.97   29.50
  -4  -8  -5   16.00    8.20
  -4  -8  -5   27.70   10.90
   4   8   5   10.00   15.80
   4   8   5   16.20    7.90
  -5  -8  -5   29.20   10.30
  -5  -8  -5   39.50   12.80
   5   8   5   10.50   16.30
   5   8   5   16.50    9.00
  -6  -8  -5    4.90   11.50
  -6  -8  -5    0.10    8.90
   6   8   5   12.40    8.80
   6   8   5   39.10   22.30
  -7  -8  -5   67.39   17.20
  -7  -8  -5   61.59   16.30
   7   8   5   77.69   13.70
   7   8   5   67.79   28.50
  -8  -8  -5   62.49   15.80
  -8  -8  -5   56.39   16.60
   8   8   5   70.29   13.60
  -9  -8  -5   10.10   14.30
   9   8   5   12.70   10.70
  12  -9  -5   13.50   12.40
 -12   9   5    1.80   16.20
  11  -9  -5   17.60   11.20
 -11   9   5    5.20   16.20
  10  -9  -5  357.66   32.30
 -10   9   5  317.07   36.20
   9  -9  -5   19.40   11.10
  -9   9   5    7.90   14.60
   8  -9  -5   43.30   15.20
  -8   9   5   68.69   22.60
   7  -9  -5    2.00    9.30
   7  -9  -5    5.70    7.50
  -7   9   5  -11.60   10.30
   6  -9  -5   53.69   14.60
   6  -9  -5   27.70    9.50
  -6   9   5   59.09   18.80
   5  -9  -5   24.60   15.70
   5  -9  -5   23.40    9.30
  -5   9   5    8.60    8.20
   4  -9  -5  182.68   18.00
   4  -9  -5  192.18   18.90
   4  -9  -5  204.88   24.60
  -4   9   5  182.68   18.60
   3  -9  -5   63.09   13.50
   3  -9  -5   71.09   17.80
   3  -9  -5   63.39   12.40
  -3   9   5   55.99   12.30
   2  -9  -5  137.89   15.20
   2  -9  -5  133.29   17.70
   2  -9  -5  138.19   19.60
  -2   9   5  105.69   14.50
   1  -9  -5   43.40   14.00
   1  -9  -5   63.79   14.40
  -1   9   5   36.30   10.40
   0  -9  -5  574.54   34.50
   0  -9  -5  577.54   31.10
   0  -9  -5  542.55   36.20
   0   9   5  521.55   31.00
  -1  -9  -5  117.29   16.30
  -1  -9  -5   86.69   12.90
  -1  -9  -5   64.29   18.20
   1   9   5  104.89   13.70
  -2  -9  -5  220.28   21.80
  -2  -9  -5  241.68   19.40
   2   9   5  274.97   20.00
  -3  -9  -5   26.40   11.10
  -3  -9  -5   11.20    8.50
   3   9   5   -2.30    6.60
   3   9   5   35.30   18.60
  -4  -9  -5  156.58   19.40
  -4  -9  -5  150.48   17.10
   4   9   5  206.58   30.80
   4   9   5  172.18   16.70
  -5  -9  -5   20.20   11.50
  -5  -9  -5    4.80    9.00
   5   9   5   14.50    8.70
  -6  -9  -5   21.80   17.30
  -6  -9  -5    6.50   11.90
   6   9   5   -2.40   22.30
   6   9   5  -10.60    6.90
  -7  -9  -5   -8.30   12.00
  -7  -9  -5   -9.10   10.40
   7   9   5   -4.70    8.80
  -8  -9  -5    4.70   13.20
  -8  -9  -5   14.30   15.60
   8   9   5   11.80   10.20
  11 -10  -5  122.69   24.80
 -11  10   5  119.29   31.20
  10 -10  -5   -7.70    7.20
 -10  10   5   -2.50   13.70
   9 -10  -5  109.59   21.60
  -9  10   5   66.69   23.00
   8 -10  -5   29.80   13.30
  -8  10   5   21.40   18.20
   7 -10  -5    9.00    8.50
   7 -10  -5   21.70   12.20
  -7  10   5   44.50   19.20
   6 -10  -5   27.70   12.50
   6 -10  -5   11.20    8.90
   5 -10  -5  135.09   26.30
   5 -10  -5  106.79   15.00
  -5  10   5   83.09   16.30
   4 -10  -5    3.20    7.60
   4 -10  -5   13.70   12.60
  -4  10   5    4.90    7.20
   3 -10  -5   -2.60   11.20
   3 -10  -5   14.90   10.70
  -3  10   5    8.00    9.00
   2 -10  -5    6.90   11.00
   2 -10  -5   23.10    9.60
   2 -10  -5  -16.20    9.40
  -2  10   5   -2.60    6.60
   1 -10  -5   44.50   16.00
   1 -10  -5   52.49   24.50
   1 -10  -5   43.40   11.20
  -1  10   5   38.50   10.90
   0 -10  -5   41.50   10.80
   0 -10  -5   62.99   22.40
   0 -10  -5   44.40   16.30
   0  10   5   67.79   13.90
  -1 -10  -5    6.30   10.80
  -1 -10  -5   23.70   15.60
  -1 -10  -5   13.30    8.80
   1  10   5   27.90    9.60
  -2 -10  -5   30.00   17.20
  -2 -10  -5   32.50   12.90
   2  10   5   60.39   11.80
  -3 -10  -5   37.50   13.00
  -3 -10  -5   26.60   13.00
   3  10   5   24.70    9.50
   3  10   5   41.80   20.40
  -4 -10  -5   39.10   13.80
  -4 -10  -5   16.60   14.60
   4  10   5   41.60   11.70
   4  10   5   38.50   37.40
  -5 -10  -5   10.80   13.10
  -5 -10  -5   16.60   15.70
   5  10   5   41.20   11.70
   5  10   5   51.09   25.90
  -6 -10  -5   53.99   17.60
  -6 -10  -5   29.30   13.60
   6  10   5   47.70   12.10
  10 -11  -5   -3.30    9.20
 -10  11   5   -9.80   15.90
   9 -11  -5   -8.10    8.70
   8 -11  -5    6.10   11.10
  -8  11   5    6.10   15.40
   7 -11  -5   33.80   20.00
   7 -11  -5   20.40   10.80
   6 -11  -5   19.10   10.70
   6 -11  -5   11.30   15.00
   6 -11  -5   12.80    9.60
   5 -11  -5    5.60    9.00
   5 -11  -5   -2.90    7.90
   5 -11  -5   -8.50   13.50
   4 -11  -5   33.30   15.30
   4 -11  -5   22.10   18.80
  -4  11   5   32.90   10.90
   3 -11  -5   64.89   14.80
   3 -11  -5   37.20   16.50
  -3  11   5   21.20    9.60
   2 -11  -5   14.00   12.40
   2 -11  -5    4.50   12.90
  -2  11   5   25.30   11.60
   1 -11  -5   15.80   13.80
   1 -11  -5    2.80   12.50
   1 -11  -5   19.70   13.50
  -1  11   5    3.40    9.50
   0 -11  -5   33.30   11.40
   0 -11  -5    7.70   14.40
   0 -11  -5   16.10   13.00
   0  11   5   37.00   11.80
  -1 -11  -5   28.70   17.10
  -1 -11  -5   48.90   11.90
  -1 -11  -5   49.90   15.30
   1  11   5   50.39   12.90
  -2 -11  -5   10.20    9.40
  -2 -11  -5   10.10   17.70
  -2 -11  -5   -3.60   11.10
   2  11   5   -8.50    7.40
  -3 -11  -5   21.50   23.40
  -3 -11  -5    8.30   13.30
  -3 -11  -5   21.60   10.70
   3  11   5   12.10    9.80
  -4 -11  -5    9.50   12.70
  -4 -11  -5    5.10   10.20
   4  11   5   17.80    9.90
   4  11   5    9.70   23.30
  -5 -11  -5   34.20   15.20
  -5 -11  -5   20.80   13.00
   5  11   5   28.50   10.70
   8 -12  -5   21.50   12.70
   7 -12  -5   35.40   13.90
   7 -12  -5   33.10   20.40
   6 -12  -5   19.40   19.30
   6 -12  -5   31.20   13.20
   5 -12  -5  142.59   22.90
   5 -12  -5  223.48   31.40
   5 -12  -5  239.38   25.60
   4 -12  -5    9.90   20.50
   4 -12  -5   59.99   19.70
   4 -12  -5   52.79   13.90
   3 -12  -5  -11.90   13.30
   3 -12  -5    8.10   11.70
  -3  12   5   -5.20    8.20
   2 -12  -5   38.40   23.90
   2 -12  -5   33.70   17.50
  -2  12   5   44.00   13.20
   1 -12  -5   58.89   18.50
   1 -12  -5   64.19   30.60
  -1  12   5   78.09   15.30
   0 -12  -5   57.99   17.90
   0  12   5   89.09   16.00
  -1 -12  -5   19.50   14.00
  -1 -12  -5   23.10   19.10
   1  12   5    4.00    9.10
  -2 -12  -5    6.80   10.50
  -2 -12  -5   15.40   13.80
  -2 -12  -5   10.60   18.90
   2  12   5   18.30   11.20
  -3 -12  -5   -5.10   13.30
  -3 -12  -5   -3.40   20.00
  -3 -12  -5   13.60   11.70
   3  12   5   24.00   11.20
   6 -13  -5   82.59   20.00
   6 -13  -5  110.19   28.00
   5 -13  -5   27.30   19.90
   5 -13  -5   15.90   12.30
   4 -13  -5   14.10   17.60
   4 -13  -5   40.50   15.70
   3 -13  -5   47.30   19.40
   3 -13  -5   51.69   17.60
   3 -13  -5   57.39   17.50
   2 -13  -5   -3.50   13.90
   2 -13  -5   -0.40   13.00
  -2  13   5   20.20   10.90
   1 -13  -5   20.20   16.50
   1 -13  -5   -4.00   14.50
  -1  13   5   12.00   11.80
   0 -13  -5    5.60   16.00
   0 -13  -5   11.60   17.00
   0  13   5   13.50   11.70
  -1 -13  -5   11.20   15.50
  -1 -13  -5   13.20   19.80
   1  13   5   26.70   13.20
  -2 -15   6   16.40   23.60
  -1 -15   6   -6.90    5.70
  -1 -15   6   25.80   27.10
  -1 -15   6    1.80    5.20
   0 -15   6   33.30    9.00
   0 -15   6   46.90   10.80
   0 -15   6   51.99   26.40
   1 -15   6    8.20    8.70
   1 -15   6   -4.50    8.50
   1 -15   6    3.40   21.00
   2 -15   6   24.50   10.40
   2 -15   6   24.60   11.30
   2 -15   6   47.90   27.30
   3 -15   6   26.70   12.00
   3 -15   6    3.80   23.00
   4 -15   6   32.90   13.00
   4 -15   6   59.09   30.00
   5 -15   6    2.90    8.80
   5 -15   6   -2.90   20.40
  -5 -14   6   64.69   26.70
  -4 -14   6   38.60   25.50
  -3 -14   6   25.40   26.00
  -2 -14   6   -1.40   21.90
  -1 -14   6   50.79    8.60
  -1 -14   6    9.20   21.20
  -1 -14   6   56.39    8.00
   0 -14   6    6.20    7.80
   0 -14   6  -10.20   20.60
   0 -14   6   -4.40    6.00
   1 -14   6    7.60    8.20
   1 -14   6    5.80   21.50
   1 -14   6   17.60    9.40
   2 -14   6   52.19   15.50
   2 -14   6   53.99   27.60
   2 -14   6   23.00   10.60
   3 -14   6   70.39   14.30
   3 -14   6   62.19   13.30
   3 -14   6  105.39   36.20
   4 -14   6    6.90    9.70
   4 -14   6   33.70   24.10
   5 -14   6    1.40   20.10
   5 -14   6   27.60   12.30
   6 -14   6    9.20   20.20
   6 -14   6   44.10   14.70
   7 -14   6   11.90   25.90
   7 -14   6    0.60   10.00
  -6 -13   6   26.60   20.70
  -5 -13   6   -0.80   18.70
  -4 -13   6    9.60   19.10
  -3 -13   6   13.10   19.20
  -2 -13   6   26.50   21.40
  -1 -13   6    7.40    5.20
  -1 -13   6   17.50   20.10
  -1 -13   6   -1.10    5.50
   0 -13   6   51.59    9.60
   0 -13   6   50.89   10.30
   1 -13   6   -6.70    6.80
   1 -13   6    3.60    7.60
   2 -13   6   52.49   11.60
   2 -13   6   36.30   10.20
   2 -13   6   44.90   24.20
   3 -13   6   16.70    9.20
   3 -13   6    6.20    8.90
   3 -13   6   33.10   26.30
   4 -13   6   55.29   12.70
   4 -13   6   51.39   24.70
   5 -13   6   13.90   10.00
   5 -13   6   49.90   24.70
   6 -13   6    7.40    9.80
   6 -13   6   57.09   27.80
   7 -13   6  -12.80   20.90
   7 -13   6   16.60   10.60
   8 -13   6   16.20   25.60
   8 -13   6    4.10    9.90
  -8 -12   6   66.99   25.60
  -7 -12   6   11.60   19.60
  -6 -12   6   -8.50   16.60
  -5 -12   6  217.68   33.00
  -4 -12   6   33.10   24.10
  -3 -12   6   -4.10   17.00
  -2 -12   6   11.60   20.00
  -1 -12   6  412.86   41.00
  -1 -12   6  358.46   19.20
  -1 -12   6  404.26   20.70
   0 -12   6    5.40    6.40
   0 -12   6    5.50    5.80
   0 -12   6   -3.30   14.60
   1 -12   6   22.60   17.40
   1 -12   6   -3.30    6.10
   1 -12   6    3.40    6.60
   2 -12   6   -8.70    6.00
   2 -12   6   -2.00    6.30
   2 -12   6   -5.00   16.90
   3 -12   6   -6.80   17.00
   3 -12   6    5.40    8.80
   3 -12   6   -7.20    6.80
   4 -12   6   -1.50    6.70
   4 -12   6   25.90   22.70
   4 -12   6    0.30    7.30
   5 -12   6  162.78   18.90
   5 -12   6  125.49   34.10
   6 -12   6    8.70    9.10
   6 -12   6   16.30   20.00
   7 -12   6    3.50   24.00
   7 -12   6   15.10   10.90
  -8  12  -6    4.60   20.70
   8 -12   6   35.20   13.60
  -9  12  -6   22.60   22.20
   9 -12   6   50.99   15.40
  -9 -11   6    3.10   16.70
  -8 -11   6   56.79   22.10
  -7 -11   6   -8.40   16.20
  -6 -11   6   44.80   20.10
  -5 -11   6  -13.00   13.50
  -4 -11   6   81.59   23.00
  -3 -11   6  104.89   25.90
  -2 -11   6   80.59   23.30
  -2 -11   6   76.79    5.20
  -2 -11   6   61.59    5.40
  -1 -11   6   70.49   22.80
  -1 -11   6   62.89    8.60
  -1 -11   6   45.80    7.60
   0 -11   6    9.10   16.10
   0 -11   6    5.70    5.90
   0 -11   6    8.50    6.50
   1 -11   6  102.49   12.50
   1 -11   6  153.18   30.20
   1 -11   6   82.69   11.50
   2 -11   6    9.90    8.00
   2 -11   6   -3.10    5.80
   2 -11   6   -8.50   15.30
   3 -11   6   22.50    9.10
   3 -11   6   50.59   11.20
   3 -11   6   64.89   24.60
   4 -11   6   30.60   10.00
   4 -11   6   56.09   12.00
   4 -11   6   27.80   18.30
   5 -11   6   23.60   21.10
   5 -11   6    7.80    8.20
   5 -11   6    3.40    7.30
   6 -11   6    4.10    8.40
   6 -11   6   18.80   24.10
  -7  11  -6  185.98   38.20
   7 -11   6  160.88   20.60
  -8  11  -6   13.30   22.80
   8 -11   6   22.00   10.30
  -9  11  -6  -19.70   18.10
   9 -11   6   -4.30    8.50
 -10  11  -6   23.10   23.20
  10 -11   6   12.80   11.30
 -10 -10   6   -5.60   16.00
  -9 -10   6   90.59   24.30
  -8 -10   6    5.10   16.30
  -7 -10   6    4.70   16.80
  -6 -10   6    3.60   15.90
  -5 -10   6   95.79   24.10
  -4 -10   6  199.08   27.90
  -3 -10   6   30.00   18.70
   2  10  -6  115.49   27.80
  -2 -10   6  105.09   25.20
  -2 -10   6   93.49    6.00
  -2 -10   6   75.39    6.20
   1  10  -6   22.40   16.90
  -1 -10   6    9.50    4.50
  -1 -10   6   17.70   16.60
  -1 -10   6   12.10    5.30
   0 -10   6   -1.30    5.00
   0 -10   6    7.00   15.80
   0 -10   6   -2.50   13.50
   1 -10   6   18.60   16.80
   1 -10   6   -7.90    5.30
   1 -10   6   20.50    6.80
   1 -10   6    5.30   14.40
   2 -10   6  160.48   26.90
   2 -10   6  148.69   14.20
   2 -10   6  145.39   17.00
   2 -10   6  143.49   27.90
   3 -10   6    7.80   15.90
   3 -10   6   33.20   17.80
   3 -10   6   -4.90    4.80
   3 -10   6    3.30    6.70
   4 -10   6    5.90    6.90
   4 -10   6    8.50   17.90
  -5  10  -6   22.80   10.50
   5 -10   6   17.30    9.10
   5 -10   6   21.80   19.30
  -6  10  -6  101.99   27.70
   6 -10   6   92.89   16.60
  -7  10  -6  -10.40   16.30
   7 -10   6   16.90    9.50
  -8  10  -6  138.29   35.10
   8 -10   6  129.59   30.70
  -9  10  -6   30.60   24.80
   9 -10   6   23.00   11.50
 -10  10  -6  254.77   41.00
  10 -10   6  231.58   25.30
 -11  10  -6   -1.80   20.50
  11 -10   6   16.40   12.10
 -11  -9   6   -6.40   13.40
 -10  -9   6  115.99   25.60
  -9  -9   6    0.50   16.20
  -8  -9   6   95.29   22.60
  -7  -9   6   11.90   14.30
  -6  -9   6   -9.00   13.20
  -5  -9   6   26.40   13.40
   4   9  -6  326.47   35.00
  -4  -9   6  404.66   35.00
   3   9  -6   30.00   16.80
  -3  -9   6   67.29   19.40
   2   9  -6  146.69   24.70
  -2  -9   6  131.79    7.30
  -2  -9   6  168.98   24.80
  -2  -9   6  128.99    7.70
   1   9  -6   24.10   16.20
  -1  -9   6   18.40   14.40
  -1  -9   6   28.30    5.80
  -1  -9   6   22.80    5.70
   0  -9   6  125.49   10.60
   0  -9   6  105.99   10.70
   0  -9   6  197.98   25.90
   1  -9   6   28.50   15.50
   1  -9   6    3.10   15.00
   1  -9   6   22.60    6.80
  -2   9  -6   38.00    8.80
   2  -9   6   30.30   14.80
   2  -9   6   67.19   21.40
   2  -9   6   49.80    9.50
  -3   9  -6   72.99   12.70
   3  -9   6  114.19   27.50
   3  -9   6   54.89   18.10
   3  -9   6   74.49   11.70
  -4   9  -6   84.59   13.70
   4  -9   6   84.09   19.50
   4  -9   6   78.29   22.90
   4  -9   6  120.79   14.20
  -5   9  -6   12.10    8.60
  -5   9  -6   28.90   20.00
   5  -9   6   32.70   10.40
  -6   9  -6    7.90   17.30
  -6   9  -6   -1.70    7.20
   6  -9   6    0.30    6.70
  -7   9  -6   17.20   18.40
   7  -9   6   -1.30    6.60
  -8   9  -6    4.20   17.40
   8  -9   6   21.10   11.20
  -9   9  -6   58.39   25.20
   9  -9   6   80.89   17.10
 -10   9  -6   -9.20   15.80
  10  -9   6   10.40   10.40
 -11   9  -6    2.00   19.80
  11  -9   6   16.10   11.60
 -12   9  -6  -18.20   17.60
 -11  -8   6   12.00   16.10
 -10  -8   6   22.40   16.40
  -9  -8   6   10.00   15.90
  -8  -8   6   22.50   16.40
  -7  -8   6  310.67   30.10
  -6  -8   6   -7.80   11.10
   5   8  -6  145.79   30.70
  -5  -8   6   84.89   19.10
   4   8  -6  217.08   27.50
  -4  -8   6  241.28   26.70
   3   8  -6   22.20   15.70
  -3  -8   6   28.20   14.40
   2   8  -6    1.10   11.60
  -2  -8   6    0.60   10.90
  -2  -8   6    1.40    2.40
  -2  -8   6    1.00    2.40
   1   8  -6   92.09   20.70
  -1  -8   6   58.49    6.90
  -1  -8   6   64.49    6.90
  -1  -8   6   64.19   19.30
   0   8  -6   62.59    8.50
   0  -8   6   31.10   16.80
   0  -8   6   71.19   19.00
   0  -8   6   77.39    8.30
  -1   8  -6   23.60    6.50
   1  -8   6   36.70   15.00
   1  -8   6   28.60   14.30
   1  -8   6   50.99    8.20
  -2   8  -6  651.73   33.40
   2  -8   6  643.24   44.20
   2  -8   6  664.93   45.20
   2  -8   6  639.24   32.50
  -3   8  -6  100.59   13.10
   3  -8   6  104.29   23.50
   3  -8   6  120.59   22.00
  -4   8  -6  161.88   25.90
  -4   8  -6  156.48   16.30
   4  -8   6  150.18   15.20
   4  -8   6  153.08   21.00
  -5   8  -6   11.60   16.60
  -5   8  -6   22.40   12.70
   5  -8   6   20.60   12.40
   5  -8   6    2.60    6.60
  -6   8  -6  418.66   28.80
  -6   8  -6  379.66   38.80
   6  -8   6  403.96   27.70
   6  -8   6  377.66   33.50
  -7   8  -6   26.30   17.50
   7  -8   6   43.10   11.70
  -8   8  -6  201.18   35.90
   8  -8   6  149.69   18.80
  -9   8  -6   15.20   31.30
 -10   8  -6   80.29   27.90
  10  -8   6  108.89   20.70
 -11   8  -6   16.80   20.10
  11  -8   6   -8.00    8.00
 -12   8  -6   51.19   25.80
  12  -8   6   72.29   18.00
  12   7  -6    5.00    6.10
 -12  -7   6   11.90   15.80
  11   7  -6   20.80    5.70
  11   7  -6   17.10    5.70
 -11  -7   6   49.99   19.00
  10   7  -6   27.90    5.30
  10   7  -6   43.70    6.00
 -10  -7   6   20.80   13.70
  -9  -7   6  217.28   26.40
  -8  -7   6   49.99   16.40
  -7  -7   6    5.70   13.40
   6   7  -6   76.99   21.00
  -6  -7   6   85.29   18.50
   5   7  -6  254.67   28.70
  -5  -7   6  243.18   24.50
   4   7  -6   93.49   20.90
  -4  -7   6  111.49   18.70
   3   7  -6  155.08   21.70
  -3  -7   6  176.78   21.70
   2   7  -6   21.00   12.80
  -2  -7   6   -6.80    8.60
  -2  -7   6   13.90    2.80
   1   7  -6    5.50    3.40
   1   7  -6   -5.50   10.20
  -1  -7   6    3.00   11.40
  -1  -7   6   -2.30    2.80
   0   7  -6    0.70    4.10
   0  -7   6    8.60   11.80
   0  -7   6    4.80   10.90
   0  -7   6   -4.30    3.50
  -1   7  -6 2143.19   87.59
   1  -7   6 2017.90   99.09
   1  -7   6 2230.28   86.49
   1  -7   6 2138.39  100.29
  -2   7  -6  158.78   14.50
   2  -7   6  176.88   23.90
   2  -7   6  181.18   14.40
   2  -7   6  197.08   23.30
  -3   7  -6  176.38   15.30
  -3   7  -6  189.48   25.50
   3  -7   6  159.28   14.20
   3  -7   6  153.68   20.60
  -4   7  -6   80.59   20.40
  -4   7  -6   98.69   12.80
   4  -7   6  103.99   12.60
   4  -7   6   73.59   16.20
  -5   7  -6   65.09   19.00
  -5   7  -6   83.69   14.00
   5  -7   6   82.59   12.20
  -6   7  -6   12.90    7.70
  -6   7  -6   20.10   14.60
   6  -7   6   -2.50    5.90
   6  -7   6    2.00    8.40
  -7   7  -6   -7.90   13.50
  -7   7  -6   17.20   11.20
   7  -7   6    9.30    7.00
  -8   7  -6   29.10   16.40
   8  -7   6   33.50   11.30
  -9   7  -6   -1.40   16.30
   9  -7   6   35.60   12.60
 -10   7  -6   -0.40   15.60
  10  -7   6    3.50    8.10
 -11   7  -6  111.09   30.40
  11  -7   6  121.99   19.40
 -12   7  -6    3.90   17.10
  12  -7   6   17.70   13.60
  13   6  -6   25.80   10.10
  12   6  -6    3.50    7.30
  12   6  -6    1.60    6.90
 -12  -6   6    3.00   12.10
  11   6  -6  108.49   11.90
  11   6  -6  125.39   12.50
 -11  -6   6  156.98   24.10
  10   6  -6    8.30    6.10
  10   6  -6   14.20    8.00
 -10  -6   6   17.10   14.00
   9   6  -6   33.50    6.40
   9   6  -6   34.20    6.30
  -9  -6   6   30.40   13.80
   8   6  -6   -0.30    3.20
   8   6  -6    2.60    3.40
  -8  -6   6    0.20   10.60
   7   6  -6  262.77   11.80
   7   6  -6  279.27   29.50
   7   6  -6  249.38   12.00
  -7  -6   6  322.07   27.00
   6   6  -6   46.70   18.80
  -6  -6   6   59.79   14.80
   5   6  -6  147.09   21.30
  -5  -6   6  156.18   19.00
   4   6  -6  129.49   19.20
  -4  -6   6  111.29   17.90
   3   6  -6  156.38   19.90
  -3  -6   6  133.29   18.60
   2   6  -6   20.90   11.40
   2   6  -6   18.80    3.50
  -2  -6   6   22.20   11.80
  -2  -6   6   27.20    3.60
   1   6  -6   89.89    7.60
   1   6  -6   87.99   17.20
  -1  -6   6   85.19    7.10
  -1  -6   6   59.29   15.10
   0   6  -6  325.87   17.70
   0  -6   6  339.87   28.10
   0  -6   6  291.17   28.30
   0  -6   6  336.77   17.30
  -1   6  -6   10.70    5.40
   1  -6   6   21.10   11.80
   1  -6   6   26.50   12.70
   1  -6   6   15.00    5.50
  -2   6  -6    4.00    5.10
   2  -6   6   -3.00    9.80
   2  -6   6    5.30    5.20
   2  -6   6   26.70   12.30
  -3   6  -6  109.59   23.30
  -3   6  -6   72.99   10.40
   3  -6   6   61.09   15.40
   3  -6   6   86.29   10.70
  -4   6  -6  129.39   21.10
  -4   6  -6   89.49   12.10
   4  -6   6  118.69   12.60
   4  -6   6  100.39   16.10
  -5   6  -6    2.90    6.10
  -5   6  -6   -5.80    9.50
   5  -6   6   10.20    6.80
   5  -6   6   -0.50    8.10
  -6   6  -6  301.87   30.20
  -6   6  -6  237.98   22.30
   6  -6   6  241.08   22.60
   6  -6   6  266.67   20.80
  -7   6  -6   11.60   13.80
  -7   6  -6   17.50    9.50
   7  -6   6    0.50    8.20
   7  -6   6   15.80    8.40
  -8   6  -6   -6.80   13.20
   8  -6   6    3.40    7.90
  -9   6  -6   39.60   19.30
   9  -6   6   -0.70    6.70
 -10   6  -6   16.40   27.10
  10  -6   6   29.20   12.80
 -11   6  -6   43.90   22.30
  11  -6   6   17.00    9.90
 -12   6  -6   45.90   23.20
  12  -6   6   61.19   15.50
  13   5  -6   35.80   11.50
  13   5  -6   23.10    9.90
 -13  -5   6   43.00   16.50
  12   5  -6   70.19   12.50
  12   5  -6   45.90   10.90
 -12  -5   6   56.59   17.50
  11   5  -6   50.29   10.30
  11   5  -6   68.19   11.30
 -11  -5   6   54.69   16.90
  10   5  -6   28.40    7.90
  10   5  -6   21.40    7.10
 -10  -5   6   45.40   16.40
   9   5  -6   15.60    6.10
  -9  -5   6   25.20   13.10
   8   5  -6    3.10    5.30
   8   5  -6   12.60    4.90
   8   5  -6   17.60   13.80
  -8  -5   6   34.00   12.40
   7   5  -6   24.80    5.30
   7   5  -6   27.20    4.90
   7   5  -6   19.20   12.90
  -7  -5   6   23.90   12.60
   6   5  -6   29.40    4.40
   6   5  -6   36.30    5.00
   6   5  -6   30.20   13.00
  -6  -5   6   56.59   13.90
   5   5  -6   53.19   15.40
   5   5  -6   64.09    5.30
   5   5  -6   71.09    4.80
  -5  -5   6   67.99   15.70
   4   5  -6  167.88    8.10
   4   5  -6  171.68   20.10
   3   5  -6  126.09   18.20
   3   5  -6  140.79    7.60
  -3  -5   6  149.88    7.50
  -3  -5   6  145.79   17.70
   2   5  -6   92.19    6.50
   2   5  -6   69.99   15.30
  -2  -5   6   88.69   17.50
  -2  -5   6   87.19    6.00
   1   5  -6   28.90    5.10
   1   5  -6   27.80   11.90
  -1  -5   6   50.29    5.60
  -1  -5   6   32.30   11.70
   0   5  -6   59.59    7.40
   0   5  -6   60.49    7.40
   0   5  -6   49.10   13.30
   0  -5   6   75.09    7.50
   0  -5   6   63.59   15.70
  -1   5  -6  792.22   35.80
   1  -5   6  736.63   44.00
   1  -5   6  760.62   44.10
   1  -5   6  814.52   35.30
  -2   5  -6  156.48   20.90
  -2   5  -6  147.79   13.00
   2  -5   6  175.78   19.40
   2  -5   6  156.08   12.90
  -3   5  -6   71.99   10.20
  -3   5  -6  104.69   19.80
   3  -5   6   75.39    9.90
   3  -5   6   86.69   15.00
  -4   5  -6   -6.30    3.90
   4  -5   6    2.30    5.40
   4  -5   6   -4.10    7.30
  -5   5  -6  475.65   28.80
  -5   5  -6  509.05   36.20
   5  -5   6  488.15   28.40
   5  -5   6  475.95   30.50
  -6   5  -6    0.10    5.50
  -6   5  -6    5.10   11.10
   6  -5   6   10.40    7.90
   6  -5   6    4.10    7.70
  -7   5  -6  547.95   34.30
  -7   5  -6  546.75   40.80
   7  -5   6  524.85   33.80
   7  -5   6  612.64   34.40
  -8   5  -6   55.29   18.40
   8  -5   6   39.50   15.90
   8  -5   6   43.70   11.70
  -9   5  -6    9.50   15.50
   9  -5   6   25.60   10.50
 -10   5  -6  -14.20   11.70
  10  -5   6    9.70   10.50
 -11   5  -6  192.88   36.40
  11  -5   6  204.58   23.20
 -12   5  -6   -0.40   15.20
  12  -5   6   10.60   11.60
 -13   5  -6  -20.70   14.10
  13  -5   6   -1.80   10.50
  13   4  -6   -4.00    9.10
  13   4  -6   13.90   10.00
 -13  -4   6   -0.90   13.90
  12   4  -6    7.10    8.10
  12   4  -6   12.00    8.60
 -12  -4   6   -4.10   11.10
  11   4  -6   53.69   10.70
  11   4  -6   35.50    9.30
 -11  -4   6   37.90   12.90
  10   4  -6  132.69   13.50
  10   4  -6  129.29   13.50
 -10  -4   6  136.59   20.50
   9   4  -6   97.69   10.90
   9   4  -6   85.39   10.90
  -9  -4   6  125.19   18.40
   8   4  -6   99.19   10.50
   8   4  -6   99.89   21.60
   8   4  -6  100.79   11.60
  -8  -4   6   93.49   17.50
   7   4  -6   17.40   13.20
   7   4  -6   12.20    4.80
   7   4  -6   14.20    5.10
  -7  -4   6   16.90   10.10
   6   4  -6  853.71   47.40
   6   4  -6  807.12   35.30
   6   4  -6  803.92   34.50
  -6  -4   6  848.12   44.00
   5   4  -6   33.10    5.30
   5   4  -6   59.19   14.20
   5   4  -6   45.40    5.10
  -5  -4   6   37.00   14.70
   4   4  -6 2078.79   76.59
   4   4  -6 1895.71   88.39
  -4  -4   6 1995.10   86.39
  -4  -4   6 1986.00   76.89
   3   4  -6   34.10   10.60
   3   4  -6   53.99    4.90
  -3  -4   6   48.10    5.00
  -3  -4   6   51.29   12.60
   2   4  -6 1340.27   65.49
   2   4  -6 1484.55   55.89
  -2  -4   6 1397.26   65.09
  -2  -4   6 1434.06   55.59
   1   4  -6  180.28   18.40
   1   4  -6  191.48   11.10
  -1  -4   6  173.68   10.50
  -1  -4   6  188.48   18.50
   0   4  -6 1602.94   76.99
   0   4  -6 1574.14   64.19
   0  -4   6 1611.24   63.89
   0  -4   6 1620.04   72.99
  -1   4  -6   13.00    4.90
   1  -4   6   24.90    6.10
   1  -4   6   27.20   12.80
   1  -4   6   31.80   12.10
  -2   4  -6   10.30    5.70
  -2   4  -6    2.90   11.30
   2  -4   6   19.30    6.20
   2  -4   6   -8.10    8.10
  -3   4  -6    9.80    5.50
  -3   4  -6    9.20   10.10
   3  -4   6   -3.80    7.30
   3  -4   6    8.40    5.80
  -4   4  -6  705.13   36.20
  -4   4  -6  732.83   42.50
   4  -4   6  720.63   38.00
   4  -4   6  701.43   35.50
  -5   4  -6   -4.50    5.20
  -5   4  -6   -3.50    8.60
   5  -4   6   -5.80    4.30
   5  -4   6   -1.70    6.90
  -6   4  -6  338.27   29.10
  -6   4  -6  330.97   23.70
   6  -4   6  344.47   23.40
   6  -4   6  376.76   24.90
  -7   4  -6    7.90   10.50
  -7   4  -6   -2.10    4.80
   7  -4   6    4.00    9.60
   7  -4   6    4.90    5.80
  -8   4  -6  381.26   32.40
  -8   4  -6  367.46   29.30
   8  -4   6  367.76   26.80
   8  -4   6  356.96   26.20
  -9   4  -6    1.60   11.60
   9  -4   6   -8.00    6.60
 -10   4  -6   21.10   15.10
  10  -4   6   22.80   10.70
 -11   4  -6   13.30   15.40
  11  -4   6   -6.40    8.20
 -12   4  -6   12.90   16.90
  12  -4   6    3.70   10.50
 -13   4  -6   12.10   18.30
  13  -4   6    7.00   11.30
  14   3  -6   -5.20    8.80
 -14  -3   6   -9.40   11.50
  13   3  -6    3.30    8.50
  13   3  -6   -3.30    7.10
 -13  -3   6    2.70   13.40
  12   3  -6  105.29   14.60
  12   3  -6   52.49   11.00
 -12  -3   6   35.00   14.10
  11   3  -6   26.40    9.40
  11   3  -6   29.70    8.90
 -11  -3   6   52.89   15.80
  10   3  -6   87.49   12.50
  10   3  -6   84.19   11.80
 -10  -3   6   74.59   16.40
   9   3  -6   -2.40    4.60
   9   3  -6   11.80    6.50
  -9  -3   6   11.50   11.30
   8   3  -6   59.09    9.70
   8   3  -6   63.59   17.50
   8   3  -6   67.39    9.20
  -8  -3   6   93.69   15.20
   7   3  -6  103.19   10.70
   7   3  -6  115.29   17.60
   7   3  -6  131.49   17.00
  -7  -3   6  139.79   16.70
   6   3  -6  397.86   21.50
   6   3  -6  425.76   29.80
   6   3  -6  421.06   20.70
  -6  -3   6  426.86   26.90
   5   3  -6  211.18   12.10
   5   3  -6  200.98   19.40
  -5  -3   6  197.98   18.20
  -5  -3   6  208.98   12.70
   4   3  -6   51.59    5.40
   4   3  -6   45.70   11.80
  -4  -3   6   35.00    5.70
  -4  -3   6   78.19   12.50
   3   3  -6  390.46   25.90
   3   3  -6  411.66   18.40
  -3  -3   6  366.56   24.60
  -3  -3   6  423.96   18.70
   2   3  -6  319.07   22.20
   2   3  -6  296.57   14.50
  -2  -3   6  297.87   20.90
  -2  -3   6  280.97   14.30
   1   3  -6   92.29    7.60
   1   3  -6   91.59   13.20
  -1  -3   6   74.39   12.70
  -1  -3   6   93.89    7.50
   0   3  -6   33.50    6.00
   0  -3   6   37.70   13.00
   0  -3   6   22.70    5.20
   0  -3   6   27.50   10.10
  -1   3  -6  154.38   11.70
   1  -3   6  150.48   17.10
   1  -3   6  157.28   11.40
   1  -3   6  178.38   17.40
  -2   3  -6   10.40   10.20
  -2   3  -6    6.20    4.20
   2  -3   6    2.80    4.60
   2  -3   6   -2.70    6.80
  -3   3  -6    2.50    8.40
  -3   3  -6   -2.30    4.50
   3  -3   6    2.40    6.20
   3  -3   6   12.50    6.20
  -4   3  -6   45.00   14.00
  -4   3  -6   10.20    6.20
   4  -3   6   31.00    8.00
   4  -3   6   24.70    8.60
  -5   3  -6   74.29   11.30
  -5   3  -6  109.19   17.70
   5  -3   6   96.69   12.40
   5  -3   6   95.99   11.50
  -6   3  -6    8.20    7.10
  -6   3  -6   11.10    9.70
   6  -3   6   20.40    8.80
   6  -3   6    7.40    6.50
  -7   3  -6  117.59   20.60
  -7   3  -6  123.69   15.20
   7  -3   6  135.79   15.60
   7  -3   6  142.49   15.40
  -8   3  -6   19.50   12.00
  -8   3  -6    2.00    7.50
   8  -3   6    0.20    6.90
   8  -3   6    1.70    8.00
  -9   3  -6   42.80   17.10
   9  -3   6   29.80   10.60
 -10   3  -6   20.90   14.70
  10  -3   6   10.20    9.50
 -11   3  -6   36.70   18.00
  11  -3   6   64.39   15.70
 -12   3  -6   -0.10   14.30
  12  -3   6    4.90   10.20
 -13   3  -6  -12.20   14.40
  13  -3   6    2.00   10.80
  14   2  -6   20.90   11.50
 -14  -2   6   30.40   15.30
  13   2  -6   72.59   14.40
 -13  -2   6   54.99   16.90
  12   2  -6   20.90    9.60
  12   2  -6    1.70    8.30
 -12  -2   6   31.80   15.00
  11   2  -6   40.10   10.40
  11   2  -6   12.60    9.40
 -11  -2   6   18.90   13.80
  10   2  -6   14.80    7.90
  10   2  -6   -3.60    5.20
 -10  -2   6   -3.80    9.00
   9   2  -6  241.08   18.10
   9   2  -6  234.28   22.80
   9   2  -6  275.87   26.50
  -9  -2   6  281.57   23.20
   8   2  -6  172.38   14.30
   8   2  -6  207.68   15.90
  -8  -2   6  182.18   18.70
   7   2  -6    4.80    7.60
   7   2  -6    4.00    4.40
   7   2  -6    2.20    4.60
  -7  -2   6   -6.50    5.90
   6   2  -6   31.20   10.30
   6   2  -6   34.70    6.90
  -6  -2   6   48.70   14.50
   5   2  -6   46.40    6.90
   5   2  -6   66.09   14.40
  -5  -2   6   47.20    7.30
  -5  -2   6   50.59   10.80
   4   2  -6   22.70    4.80
   4   2  -6   26.10    9.70
  -4  -2   6   14.40    8.30
  -4  -2   6   28.50    5.50
   3   2  -6   65.69   11.20
   3   2  -6   71.09    6.50
  -3  -2   6   50.69    6.50
  -3  -2   6   64.09   10.30
   2   2  -6  301.97   20.10
   2   2  -6  288.97   14.70
  -2  -2   6  276.87   14.70
  -2  -2   6  295.57   18.90
   1   2  -6   86.89    7.40
   1   2  -6   76.49   11.90
  -1  -2   6   85.09   11.90
  -1  -2   6   91.89    7.70
   0   2  -6 1220.58   49.90
   0  -2   6 1220.08   49.70
   0  -2   6 1203.28   53.89
   0  -2   6 1201.68   54.39
  -1   2  -6    5.20    4.20
  -1   2  -6    6.90    8.70
   1  -2   6    7.30    4.30
   1  -2   6    2.40    6.60
  -2   2  -6   78.39   13.30
  -2   2  -6   90.09    9.60
   2  -2   6   93.39    9.40
   2  -2   6   86.39   10.90
  -3   2  -6    9.60    5.00
  -3   2  -6   25.70   10.10
   3  -2   6   16.40    7.90
   3  -2   6   26.60    6.40
  -4   2  -6 2184.58   92.69
  -4   2  -6 2172.68   90.19
   4  -2   6 2215.08   89.39
   4  -2   6 2143.39   89.39
  -5   2  -6   -7.30    6.90
  -5   2  -6   19.90    7.30
   5  -2   6    3.90    6.00
   5  -2   6   -6.40    3.90
  -6   2  -6    6.60    9.10
  -6   2  -6   16.40    7.40
   6  -2   6   23.90    9.00
   6  -2   6   17.30    7.60
  -7   2  -6   15.90   10.00
  -7   2  -6   -0.20    9.40
   7  -2   6    7.90    7.70
   7  -2   6   10.80    7.60
  -8   2  -6   28.90   10.60
  -8   2  -6   30.30   14.00
   8  -2   6   41.90   11.60
   8  -2   6   21.80    9.00
  -9   2  -6  -16.90    9.50
   9  -2   6   11.30    8.30
 -10   2  -6  161.98   24.40
  10  -2   6  160.78   19.20
 -11   2  -6   -0.40   13.40
  11  -2   6    5.10    9.30
 -12   2  -6   -7.60   13.70
  12  -2   6   11.30   10.70
 -13   2  -6   -1.60   15.50
  13  -2   6   10.60   11.60
  14   1  -6   33.40   13.10
 -14  -1   6   18.10   12.50
  13   1  -6    6.00    9.00
 -13  -1   6    8.00    9.50
  12   1  -6   -0.80    7.90
 -12  -1   6  -10.80    8.30
  11   1  -6  142.79   16.00
  11   1  -6  152.58   17.40
 -11  -1   6  150.38   20.10
  10   1  -6   -3.00    6.40
  10   1  -6   -1.00    5.90
 -10  -1   6    8.90   10.50
   9   1  -6  143.99   19.90
   9   1  -6  123.69   13.20
   9   1  -6  102.69   13.50
  -9  -1   6  120.29   16.80
   8   1  -6   41.40    8.90
   8   1  -6   21.90    6.60
   8   1  -6   37.60   13.10
  -8  -1   6   40.00   11.00
   7   1  -6  342.07   26.00
   7   1  -6  395.66   21.80
   7   1  -6  373.86   22.60
  -7  -1   6  380.16   24.70
   6   1  -6   15.30    5.40
   6   1  -6   10.00    8.00
  -6  -1   6    9.60    5.30
  -6  -1   6   13.80    7.20
   5   1  -6  907.91   44.40
  -5  -1   6  931.01   42.90
  -5  -1   6  906.11   40.40
   4   1  -6   54.79    7.10
  -4  -1   6   69.99    7.90
  -4  -1   6   73.59   10.40
   3   1  -6   58.59    9.70
   3   1  -6   36.30    6.00
  -3  -1   6   49.30    7.20
  -3  -1   6   58.69   10.10
   2   1  -6   10.60    6.90
   2   1  -6    7.90    3.90
  -2  -1   6    4.70    3.70
  -2  -1   6    5.50    5.70
   1   1  -6 1971.00   76.79
   1   1  -6 1916.41   78.79
  -1  -1   6 1989.50   76.69
  -1  -1   6 1904.31   77.79
   0   1  -6    1.50    3.10
   0  -1   6    8.30    6.70
   0  -1   6   -2.40    3.20
   0  -1   6   -5.50    6.20
  -1   1  -6   17.90    8.10
  -1   1  -6    9.20    4.80
   1  -1   6   15.10    4.50
   1  -1   6   -4.00    5.00
  -2   1  -6   12.60    7.90
  -2   1  -6    6.70    4.40
   2  -1   6    1.80    4.00
   2  -1   6   -0.80    4.80
  -3   1  -6   33.00    8.00
  -3   1  -6   41.80    9.30
   3  -1   6   30.80    7.30
   3  -1   6   35.60    7.40
  -4   1  -6    6.80    5.10
  -4   1  -6    1.50    6.50
   4  -1   6    1.70    4.90
   4  -1   6    1.30    4.70
  -5   1  -6 1487.45   65.39
  -5   1  -6 1454.35   64.09
   5  -1   6 1439.56   63.39
   5  -1   6 1398.16   61.89
  -6   1  -6    1.50    6.10
   6  -1   6   11.90    6.80
   6  -1   6    9.90    6.70
  -7   1  -6    7.60   12.10
  -7   1  -6    3.60    9.40
   7  -1   6    2.40    7.00
   7  -1   6   16.90    7.90
  -8   1  -6    3.50    8.70
  -8   1  -6   11.80    8.10
   8  -1   6    3.20    9.10
   8  -1   6    3.80    6.70
  -9   1  -6  158.58   21.20
   9  -1   6  133.69   16.70
   9  -1   6  131.79   32.60
 -10   1  -6    0.30   10.10
  10  -1   6   11.30    8.70
 -12   1  -6   39.00   17.90
  12  -1   6   -3.80    8.90
 -13   1  -6   28.20   19.00
  13  -1   6   46.80   15.20
  14   0  -6    7.50   10.40
 -14   0   6    1.80   10.60
  13   0  -6   21.80   11.70
 -13   0   6    8.20   10.60
  12   0  -6  282.47   24.80
 -12   0   6  235.88   24.90
  11   0  -6    5.70    8.10
  11   0  -6    8.40    6.50
 -11   0   6    5.60    9.60
  10   0  -6    6.90    6.80
  10   0  -6   26.60    9.40
 -10   0   6   21.10   12.00
   9   0  -6   24.90    7.70
   9   0  -6   26.60    9.10
   9   0  -6   26.20   12.90
  -9   0   6   24.60   11.00
   8   0  -6  286.57   23.10
   8   0  -6  261.97   18.60
   8   0  -6  233.78   19.20
  -8   0   6  283.97   21.50
   7   0  -6   16.60    6.20
   7   0  -6   35.00   12.00
   7   0  -6   20.80    7.40
  -7   0   6   27.00    8.90
   6   0  -6  368.86   23.10
   6   0  -6  343.17   20.00
  -6   0   6  308.07   19.90
  -6   0   6  329.47   21.10
   5   0  -6   -3.50    3.60
   5   0  -6   -1.70    6.10
  -5   0   6    1.00    5.30
  -5   0   6   -1.40    3.90
   4   0  -6   12.40    6.50
   4   0  -6   -2.40    3.20
  -4   0   6    6.80    4.30
  -4   0   6    2.90    5.30
   3   0  -6    5.40    3.90
   3   0  -6    5.70    5.60
  -3   0   6    6.40    4.20
  -3   0   6   11.40    5.30
   2   0  -6   87.19    8.00
   2   0  -6   84.89    8.90
  -2   0   6   80.89    8.10
  -2   0   6   83.09    8.50
   1   0  -6   -1.00    3.10
   1   0  -6    0.90    5.00
  -1   0   6    2.30    4.30
  -1   0   6    6.70    4.10
   0   0  -6  555.84   26.70
   0   0   6  574.14   25.40
   0   0   6  593.64   27.00
   0   0   6  589.84   25.70
  -1   0  -6    8.60    6.60
  -1   0  -6   16.10    6.70
   1   0   6    4.80    3.60
   1   0   6    8.20    4.00
  -2   0  -6  887.31   40.20
  -2   0  -6  880.11   39.50
   2   0   6  937.21   40.10
   2   0   6  901.91   37.60
  -3   0  -6   -1.10    5.90
  -3   0  -6    2.90    4.50
   3   0   6    3.50    4.50
   3   0   6    2.60    4.40
  -4   0  -6   80.99   10.60
  -4   0  -6   91.39   11.80
   4   0   6   95.29   11.40
   4   0   6  118.09   11.40
  -5   0  -6   23.30    8.60
  -5   0  -6   19.60    7.20
   5   0   6   30.70    8.20
   5   0   6   24.20    7.60
  -6   0  -6   28.70   10.60
  -6   0  -6   24.60    8.80
   6   0   6   41.30    8.80
   6   0   6   19.70    8.90
  -7   0  -6   11.20   10.40
  -7   0  -6    8.60    8.30
   7   0   6   21.10    8.50
   7   0   6   16.60    9.40
  -8   0  -6   89.89   17.30
  -8   0  -6   89.69   15.80
   8   0   6   47.60   11.50
   8   0   6   71.29   16.00
  -9   0  -6  -10.50    9.50
   9   0   6   11.00   12.70
   9   0   6    0.50    7.20
 -10   0  -6    4.70   12.20
  10   0   6   11.40   10.20
  11   0   6   35.00   13.80
 -12   0  -6   27.20   15.10
  12   0   6   16.50   10.20
  14  -1  -6   22.90   12.50
 -14   1   6   14.30   12.50
  13  -1  -6   12.10   11.30
 -13   1   6   21.40   14.10
  12  -1  -6    5.70    8.50
 -12   1   6   12.00   12.50
  11  -1  -6   26.90   10.90
 -11   1   6    7.60    9.30
  10  -1  -6   40.60   11.80
  10  -1  -6   16.60    8.20
 -10   1   6   29.50   10.80
   9  -1  -6  555.44   32.90
   9  -1  -6  522.55   31.20
   9  -1  -6  488.05   33.70
  -9   1   6  574.94   33.60
   8  -1  -6   26.50    7.80
   8  -1  -6   22.60    7.40
   8  -1  -6    9.50    8.10
  -8   1   6   19.50    8.60
   7  -1  -6   65.19   12.30
   7  -1  -6   59.09    9.50
   7  -1  -6   80.29   14.20
  -7   1   6   56.19   11.60
   6  -1  -6   -5.00    5.30
   6  -1  -6    0.10    4.20
  -6   1   6   -6.10    4.90
  -6   1   6    2.80    4.70
   5  -1  -6  129.09   12.40
   5  -1  -6  102.69   10.60
  -5   1   6  104.69   11.40
  -5   1   6  133.89   11.90
   4  -1  -6   22.50    5.50
   4  -1  -6   19.80    6.80
  -4   1   6    3.50    4.90
  -4   1   6   15.20    5.40
   3  -1  -6   11.20    5.40
   3  -1  -6   25.60    6.40
  -3   1   6   16.80    5.60
  -3   1   6   17.30    5.50
   2  -1  -6   35.40    5.70
   2  -1  -6   26.10    5.80
  -2   1   6   38.80    7.00
  -2   1   6   32.10    5.00
   1  -1  -6   19.80    4.20
  -1   1   6   21.40    5.70
  -1   1   6   18.70    3.40
   0  -1  -6    9.30    4.50
   0   1   6   11.90    4.70
  -1  -1  -6 1547.75   60.59
  -1  -1  -6 1561.34   63.59
   1   1   6 1551.54   63.29
   1   1   6 1522.35   59.19
  -2  -1  -6   16.30    5.80
  -2  -1  -6   17.40    5.20
   2   1   6    7.70    4.90
   2   1   6   23.40    5.10
  -3  -1  -6  240.28   15.50
  -3  -1  -6  196.58   13.80
   3   1   6  215.98   14.80
   3   1   6  182.98   13.10
  -4  -1  -6    4.50    4.90
  -4  -1  -6    2.50    5.80
   4   1   6    3.20    9.60
   4   1   6   -2.30    3.80
  -5  -1  -6  217.68   17.10
  -5  -1  -6  229.88   17.20
   5   1   6  222.88   16.90
   5   1   6  217.18   16.60
  -6  -1  -6   25.30    8.50
  -6  -1  -6   11.60    6.90
   6   1   6   47.90   11.50
   6   1   6   14.90    6.70
  -7  -1  -6   11.20    8.30
  -7  -1  -6   13.20    8.10
   7   1   6  -10.20    7.80
   7   1   6   12.00    7.70
  -8  -1  -6    9.30    9.50
  -8  -1  -6    1.40    6.90
   8   1   6    2.60    7.40
   8   1   6    8.40   10.80
  -9  -1  -6   74.59   16.40
   9   1   6  126.09   15.40
   9   1   6  118.29   23.40
 -10  -1  -6   56.49   16.50
  10   1   6   58.89   13.80
 -11  -1  -6   33.80   20.00
  11   1   6   49.70   14.00
 -12  -1  -6   22.60   15.80
  12   1   6    1.80    9.70
  14  -2  -6   37.40   14.60
 -14   2   6   25.40   15.80
  13  -2  -6    2.20    9.30
 -13   2   6    8.10   11.60
  12  -2  -6  357.86   29.40
 -12   2   6  337.07   38.30
  11  -2  -6    4.40    8.00
 -11   2   6   10.10    9.80
  10  -2  -6   84.49   14.20
  10  -2  -6   98.59   15.30
 -10   2   6  116.59   20.70
   9  -2  -6   49.90   11.20
   9  -2  -6   53.49   12.60
   9  -2  -6    8.70    8.60
  -9   2   6   33.20   11.10
   8  -2  -6    5.70    7.00
   8  -2  -6    6.20    6.10
   8  -2  -6   -1.10    6.40
  -8   2   6    3.50    6.80
   7  -2  -6    4.90    7.20
   7  -2  -6   16.90    6.60
  -7   2   6    2.80    5.30
  -7   2   6    1.60    6.60
   6  -2  -6  761.42   38.00
   6  -2  -6  822.22   38.60
  -6   2   6  755.92   37.50
  -6   2   6  765.12   38.60
   5  -2  -6    0.90    4.20
   5  -2  -6    3.70    6.00
  -5   2   6    1.60    5.60
  -5   2   6    3.70    4.20
   4  -2  -6   51.89    8.70
   4  -2  -6   54.19    9.00
  -4   2   6   63.49    9.50
  -4   2   6   53.49    9.20
   3  -2  -6   10.30    4.90
   3  -2  -6   13.30    4.90
  -3   2   6   17.30    5.10
  -3   2   6   11.10    5.10
   2  -2  -6 1205.88   48.90
   2  -2  -6 1232.08   52.79
  -2   2   6 1265.37   53.09
  -2   2   6 1289.67   49.20
   1  -2  -6   80.59    8.50
  -1   2   6   61.49    8.10
   0  -2  -6 3222.58  124.09
   0   2   6 3131.49  123.79
  -1  -2  -6   16.00    5.00
  -1  -2  -6   23.20    4.20
   1   2   6   16.70    5.10
   1   2   6   18.40    3.90
  -2  -2  -6  296.87   17.70
  -2  -2  -6  261.27   14.40
   2   2   6  288.27   17.10
   2   2   6  295.17   15.70
  -3  -2  -6   10.80    4.80
  -3  -2  -6   14.60    5.80
   3   2   6   11.80    5.70
   3   2   6   26.30    6.90
  -4  -2  -6  262.87   16.30
  -4  -2  -6  247.58   17.50
   4   2   6  257.47   17.00
   4   2   6  194.78   20.10
  -5  -2  -6    3.30    6.00
  -5  -2  -6    2.20    5.10
   5   2   6   18.10    8.70
   5   2   6   18.50    6.80
  -6  -2  -6   87.99   12.50
  -6  -2  -6   84.39   12.80
   6   2   6  104.19   15.30
   6   2   6   79.79   11.00
  -7  -2  -6    9.50   10.40
  -7  -2  -6    0.00    6.80
   7   2   6   -0.60   10.20
   7   2   6   17.10    7.80
  -8  -2  -6   97.99   17.60
  -8  -2  -6   87.49   17.00
   8   2   6   82.99   20.30
   8   2   6  123.39   14.80
  -9  -2  -6   68.89   15.80
   9   2   6   28.30    9.60
 -10  -2  -6   46.20   15.80
  10   2   6   87.49   15.60
 -11  -2  -6   -5.30   11.00
  11   2   6    3.30   10.10
 -12  -2  -6   22.30   15.30
  12   2   6   21.70   11.50
  14  -3  -6    9.20   10.70
 -14   3   6   -0.40   11.20
  13  -3  -6   54.59   15.30
 -13   3   6   47.80   17.10
  12  -3  -6    0.00    9.50
 -12   3   6   26.60   14.90
  11  -3  -6  112.39   17.70
 -11   3   6  109.89   18.80
  10  -3  -6   -3.90    6.60
 -10   3   6   -2.20    9.50
   9  -3  -6   12.40    8.10
   9  -3  -6    3.40    7.30
   9  -3  -6    2.70    7.30
  -9   3   6    1.90    9.10
   8  -3  -6   -5.30    4.30
   8  -3  -6   -7.00    4.80
   8  -3  -6   11.80    8.00
  -8   3   6    9.80    8.30
   7  -3  -6 1011.20   49.40
   7  -3  -6 1037.40   48.90
  -7   3   6 1032.30   49.90
  -7   3   6 1055.29   53.99
   6  -3  -6   -2.20    4.60
   6  -3  -6    7.80    6.00
  -6   3   6   -0.20    5.20
  -6   3   6    0.40    5.20
   5  -3  -6   63.39   10.40
   5  -3  -6   63.49    9.10
  -5   3   6   58.49    9.40
  -5   3   6   59.39    9.30
   4  -3  -6    5.10    4.60
   4  -3  -6   18.40    7.00
  -4   3   6    8.20    4.90
  -4   3   6    4.10    5.80
   3  -3  -6 2103.29   83.09
   3  -3  -6 2100.69   86.89
  -3   3   6 2192.08   84.99
  -3   3   6 2143.79   87.29
   2  -3  -6   62.69    8.70
   2  -3  -6   72.79    5.80
  -2   3   6   74.29    8.00
  -2   3   6   73.69    9.20
   1  -3  -6  369.56   13.90
   1  -3  -6  329.07   19.20
   1  -3  -6  329.97   15.60
  -1   3   6  316.57   19.40
   0  -3  -6    5.10    4.70
   0   3   6   16.10    5.50
  -1  -3  -6  272.37   16.50
  -1  -3  -6  269.67   11.90
   1   3   6  220.58   13.30
   1   3   6  258.47   16.20
  -2  -3  -6   78.29    9.30
  -2  -3  -6   63.79    6.80
   2   3   6   54.49    8.40
   2   3   6   69.19    8.70
  -3  -3  -6  483.45   25.60
  -3  -3  -6  459.45   22.80
   3   3   6  481.15   25.20
   3   3   6  464.85   25.10
  -4  -3  -6    5.90    5.60
  -4  -3  -6    1.80    4.80
   4   3   6   16.60    8.80
   4   3   6  -13.40   10.40
  -5  -3  -6  163.98   14.20
  -5  -3  -6  153.18   14.80
   5   3   6  131.09   16.30
   5   3   6  144.99   13.70
  -6  -3  -6   97.39   13.70
   6   3   6  111.69   12.80
   6   3   6  103.39   17.80
  -7  -3  -6  100.19   25.00
  -7  -3  -6   90.59   15.60
   7   3   6   69.09   16.60
   7   3   6   84.69   13.30
  -8  -3  -6   13.30   10.20
  -8  -3  -6   11.40   10.60
   8   3   6   27.40    9.80
   8   3   6   -1.30   12.80
  -9  -3  -6  -13.00    9.50
   9   3   6   -1.60    6.70
 -10  -3  -6    1.20   10.80
  10   3   6    6.60    8.90
 -11  -3  -6   31.20   15.90
  11   3   6   14.40   11.00
  14  -4  -6   52.59   17.60
 -14   4   6   36.20   18.90
  13  -4  -6   31.90   13.70
 -13   4   6   21.50   15.10
  12  -4  -6    0.20    8.60
 -12   4   6    3.30   11.60
  11  -4  -6    4.00    8.70
 -11   4   6   13.20   11.90
  10  -4  -6   93.39   18.80
 -10   4   6   83.49   19.40
   9  -4  -6   19.00    9.60
   9  -4  -6   -7.40    6.10
  -9   4   6   -3.20    7.90
   8  -4  -6   27.20    9.80
   8  -4  -6   32.50   10.00
   8  -4  -6   39.40   11.10
  -8   4   6   30.80   12.10
   7  -4  -6   -2.10    5.10
   7  -4  -6    2.90    5.30
  -7   4   6   -0.40    4.80
  -7   4   6   -1.10    7.20
   6  -4  -6  442.76   25.60
   6  -4  -6  488.75   28.10
  -6   4   6  496.45   28.40
  -6   4   6  460.05   28.20
   5  -4  -6   -0.70    3.90
   5  -4  -6    5.00    5.10
  -5   4   6    4.60    5.10
  -5   4   6  -14.20    4.70
   4  -4  -6  105.59    9.50
   4  -4  -6   89.29   10.80
  -4   4   6  106.59   11.70
  -4   4   6   79.59   11.00
   3  -4  -6    4.00    4.70
   3  -4  -6    2.80    3.60
  -3   4   6   -4.00    5.30
  -3   4   6    3.90    5.10
   2  -4  -6  482.75   20.80
   2  -4  -6  448.16   24.80
  -2   4   6  453.85   25.20
   1  -4  -6   58.79    9.30
   1  -4  -6   37.10    6.40
   1  -4  -6   35.80    4.90
  -1   4   6   43.20    8.20
   0  -4  -6  104.09    7.10
   0  -4  -6   98.69    8.70
   0  -4  -6  102.89   10.20
   0   4   6  111.19   10.60
  -1  -4  -6   15.50    4.00
  -1  -4  -6   11.40    5.70
   1   4   6   22.00    6.50
   1   4   6   11.70    6.50
  -2  -4  -6   17.60    6.10
  -2  -4  -6   16.50    4.90
   2   4   6   23.70    6.60
   2   4   6   19.00    6.90
  -3  -4  -6   65.09    9.60
  -3  -4  -6   69.79    8.70
   3   4   6   75.49    9.70
   3   4   6   64.59   11.20
  -4  -4  -6  237.18   17.80
  -4  -4  -6  269.97   16.80
   4   4   6  241.68   17.30
   4   4   6  232.78   19.40
  -5  -4  -6  228.38   17.40
  -5  -4  -6  231.68   18.50
   5   4   6  237.08   21.80
   5   4   6  231.88   17.50
  -6  -4  -6   63.99   12.50
  -6  -4  -6   83.49   13.60
   6   4   6   73.99   12.10
   6   4   6   90.09   18.30
  -7  -4  -6   15.30   10.30
  -7  -4  -6   -6.30    7.60
   7   4   6   13.90    7.90
   7   4   6    2.80   12.20
  -8  -4  -6  157.38   18.80
  -8  -4  -6  175.98   20.60
   8   4   6  136.39   16.30
   8   4   6  131.39   25.10
  -9  -4  -6   49.50   14.90
   9   4   6   31.60   10.40
 -10  -4  -6    3.30   11.60
  10   4   6    1.20    8.20
 -11  -4  -6   -0.30   12.20
  11   4   6   -6.70    8.80
  13  -5  -6   57.79   17.60
 -13   5   6   85.19   22.80
  12  -5  -6    9.30   11.50
 -12   5   6    4.20   12.20
  11  -5  -6  248.18   28.70
 -11   5   6  259.67   27.60
  10  -5  -6    5.90    8.80
 -10   5   6   15.20   12.40
   9  -5  -6   38.20   13.10
   9  -5  -6   19.30    9.80
  -9   5   6   59.69   16.60
   8  -5  -6   -2.50    8.00
   8  -5  -6    3.40    7.00
   8  -5  -6    3.20    6.50
  -8   5   6   -8.00    7.20
   7  -5  -6  952.30   49.30
   7  -5  -6 1016.30   47.60
  -7   5   6  996.90   50.09
  -7   5   6 1003.90   51.69
   6  -5  -6    8.60    6.30
   6  -5  -6    2.00    4.80
  -6   5   6    7.30    6.30
  -6   5   6    1.80    7.30
   5  -5  -6  105.99   12.70
   5  -5  -6   95.29   10.60
  -5   5   6   85.79   13.40
  -5   5   6   96.79   12.80
   4  -5  -6   10.60    4.90
   4  -5  -6   10.10    5.80
  -4   5   6   -5.20    6.40
  -4   5   6   27.00    7.60
   3  -5  -6  870.51   37.40
   3  -5  -6  872.81   41.40
  -3   5   6  861.91   41.60
  -3   5   6  850.11   41.70
   2  -5  -6   16.50    6.00
   2  -5  -6   20.90    5.50
   2  -5  -6   23.40    7.20
  -2   5   6   12.80    6.10
   1  -5  -6  306.27   19.10
   1  -5  -6  308.77   17.70
   1  -5  -6  294.87   16.30
  -1   5   6  333.47   22.10
   0  -5  -6    5.00    4.70
   0  -5  -6    7.40    4.60
   0  -5  -6    0.70    6.20
   0   5   6    1.40    5.00
  -1  -5  -6   86.29    8.20
  -1  -5  -6   70.19    9.50
   1   5   6   74.79   10.00
  -2  -5  -6   92.99   10.90
  -2  -5  -6  105.79    9.60
   2   5   6   82.49   12.50
   2   5   6  103.39   12.60
  -3  -5  -6  786.72   35.60
  -3  -5  -6  792.92   38.40
   3   5   6  774.12   37.90
   3   5   6  759.52   39.20
  -4  -5  -6  127.39   13.80
   4   5   6  141.79   17.30
   4   5   6  125.49   13.20
  -5  -5  -6   23.20    9.40
  -5  -5  -6   25.60    9.40
   5   5   6   18.50    7.60
   5   5   6   25.30   13.30
  -6  -5  -6   13.20    8.60
  -6  -5  -6   18.70   10.00
   6   5   6    2.80    7.20
   6   5   6   22.70   13.70
  -7  -5  -6    3.00    9.10
  -7  -5  -6   -3.80    7.90
   7   5   6    0.90    8.00
   7   5   6    3.30   14.90
  -8  -5  -6    7.80   10.60
  -8  -5  -6   15.30   11.40
   8   5   6   40.20   11.60
   8   5   6   -3.70   16.20
  -9  -5  -6   21.40   12.70
   9   5   6   15.20   10.00
 -10  -5  -6   10.90   14.60
  10   5   6   -4.00    8.30
  13  -6  -6    1.40    9.40
 -13   6   6    3.20   13.30
  12  -6  -6   65.19   17.30
 -12   6   6   71.69   20.50
  11  -6  -6   23.80   11.80
 -11   6   6    2.30   11.50
  10  -6  -6   38.60   18.00
 -10   6   6   25.80   14.80
   9  -6  -6    6.40    9.30
   9  -6  -6    3.00    7.70
  -9   6   6   20.40   13.10
   8  -6  -6  240.68   23.00
  -8   6   6  244.58   24.20
   7  -6  -6   -6.80    4.60
   7  -6  -6   -0.40    8.20
  -7   6   6   12.70    7.60
  -7   6   6    0.50    9.00
   6  -6  -6   66.99   10.30
   6  -6  -6   80.69   13.30
  -6   6   6   93.99   18.20
  -6   6   6   84.39   14.50
   5  -6  -6    2.30    6.20
   5  -6  -6    6.90    5.10
  -5   6   6    1.50    5.70
  -5   6   6    2.40    8.00
   4  -6  -6  107.99   12.70
   4  -6  -6  117.89   10.70
  -4   6   6  105.39   13.10
  -4   6   6  100.89   14.90
   3  -6  -6   25.70    8.00
   3  -6  -6   28.10    6.50
  -3   6   6   15.10    6.40
   2  -6  -6  450.65   22.50
   2  -6  -6  412.76   25.30
   2  -6  -6  431.86   25.10
  -2   6   6  428.26   25.70
   1  -6  -6   11.90    6.80
   1  -6  -6    6.70    5.60
   1  -6  -6    9.90    6.50
  -1   6   6    4.70    5.50
   0  -6  -6   89.89   11.00
   0  -6  -6  100.09   12.60
   0  -6  -6  132.89   11.50
   0   6   6   97.59   11.50
  -1  -6  -6   59.99    9.60
  -1  -6  -6   58.09    8.80
   1   6   6   63.09   10.00
  -2  -6  -6  163.28   12.70
  -2  -6  -6  156.28   14.00
   2   6   6  140.39   16.00
   2   6   6  142.59   13.90
  -3  -6  -6    1.40    5.60
  -3  -6  -6   -0.20    6.10
   3   6   6    0.70    9.20
   3   6   6   -0.40    5.20
  -4  -6  -6   74.09   12.40
  -4  -6  -6   68.49   11.90
   4   6   6   85.99   11.60
   4   6   6   85.89   17.50
  -5  -6  -6    3.30    7.90
  -5  -6  -6    4.90   10.50
   5   6   6   -6.30   12.30
   5   6   6   -5.30    5.90
  -6  -6  -6   22.90   13.70
  -6  -6  -6   20.60   10.30
   6   6   6   17.20    8.90
   6   6   6    4.70   14.20
  -7  -6  -6   10.80   10.10
  -7  -6  -6   14.40    9.80
   7   6   6   16.90   18.30
   7   6   6   18.20    9.40
  -8  -6  -6   33.40   14.10
  -8  -6  -6   46.50   14.40
   8   6   6   19.80    9.90
   8   6   6   52.39   23.40
  -9  -6  -6   22.50   13.80
   9   6   6   37.90   12.50
 -10  -6  -6   34.10   16.60
  10   6   6    8.30   10.10
  13  -7  -6    8.70   12.50
 -13   7   6    5.80   14.90
  12  -7  -6   24.10   12.50
 -12   7   6   37.90   17.50
  11  -7  -6   67.99   17.80
 -11   7   6  125.79   29.10
  10  -7  -6    2.30    8.50
 -10   7   6    0.50   11.60
   9  -7  -6    1.70    7.10
   9  -7  -6   -5.00    6.70
  -9   7   6  -22.80    8.20
   8  -7  -6   -5.30    5.60
   8  -7  -6   -4.90    5.40
  -8   7   6    6.70   11.40
   7  -7  -6    1.20    6.20
  -7   7   6    1.50    6.90
  -7   7   6   14.90   12.40
   6  -7  -6    0.80    6.20
   6  -7  -6    4.30    8.00
  -6   7   6   16.70   11.80
  -6   7   6    2.60    6.70
   5  -7  -6    0.30    4.90
   5  -7  -6    6.60    7.30
  -5   7   6    2.20    6.10
  -5   7   6   -3.70    7.90
   4  -7  -6  107.19   13.30
   4  -7  -6  102.59   11.20
  -4   7   6  115.89   16.50
  -4   7   6   87.39   12.80
   3  -7  -6  118.29   13.20
   3  -7  -6  109.69   15.70
   3  -7  -6  100.79   16.10
  -3   7   6   87.99   13.10
   2  -7  -6    1.90    7.50
   2  -7  -6   13.00    7.10
   2  -7  -6   14.60    6.70
  -2   7   6    9.10    6.60
   1  -7  -6  374.76   23.70
   1  -7  -6  388.76   23.50
   1  -7  -6  365.86   22.80
  -1   7   6  376.46   23.70
   0  -7  -6   43.00   12.00
   0  -7  -6   82.39   11.70
   0  -7  -6   79.39   10.90
   0   7   6   67.39   11.00
  -1  -7  -6   65.99   10.80
  -1  -7  -6   81.89   15.70
  -1  -7  -6   69.89   11.40
   1   7   6   62.99   10.90
  -2  -7  -6   28.50    8.40
  -2  -7  -6   22.70    8.00
   2   7   6   13.20    6.60
   2   7   6   36.40   15.10
  -3  -7  -6   15.40    8.90
  -3  -7  -6    8.80    7.70
   3   7   6   34.70    9.20
   3   7   6   46.80   14.90
  -4  -7  -6    2.20    6.40
  -4  -7  -6   -1.00    8.40
   4   7   6    8.50    6.80
   4   7   6   10.70   12.70
  -5  -7  -6    7.60    8.80
  -5  -7  -6    1.80    9.10
   5   7   6   -6.60   12.90
   5   7   6    6.00    7.60
  -6  -7  -6   15.20   11.60
  -6  -7  -6   11.30    9.80
   6   7   6   16.20    8.40
   6   7   6   20.70   18.70
  -7  -7  -6   -1.20    9.10
  -7  -7  -6    6.80   10.80
   7   7   6   -0.20   19.80
   7   7   6   15.80    9.50
  -8  -7  -6   36.00   17.50
  -8  -7  -6   61.29   14.70
   8   7   6   77.69   14.90
  -9  -7  -6   35.70   14.80
   9   7   6   40.40   13.70
  12  -8  -6   19.20   12.90
 -12   8   6   23.70   18.30
  11  -8  -6    6.10    9.70
 -11   8   6   -3.60   12.60
  10  -8  -6  142.99   24.10
 -10   8   6  130.29   27.70
   9  -8  -6   -9.10    6.90
  -9   8   6    7.60   14.10
   8  -8  -6  287.07   25.80
   8  -8  -6  220.48   19.80
  -8   8   6  188.58   25.30
   7  -8  -6   32.80   11.50
   7  -8  -6   23.70    9.70
  -7   8   6   62.49   18.60
   6  -8  -6  119.19   14.20
  -6   8   6  144.59   21.70
  -6   8   6  166.48   18.40
   5  -8  -6   14.10    6.60
  -5   8   6    1.40    6.50
   4  -8  -6  436.06   25.30
   4  -8  -6  464.25   28.60
   4  -8  -6  405.16   31.20
  -4   8   6  415.56   28.20
   3  -8  -6   86.99   13.20
   3  -8  -6  150.38   14.10
   3  -8  -6  104.89   17.00
  -3   8   6  109.69   14.50
   2  -8  -6   59.19   14.30
   2  -8  -6   81.09   12.30
   2  -8  -6   66.89   12.70
  -2   8   6   62.49   12.40
   1  -8  -6    6.50    9.90
   1  -8  -6    3.40    8.20
   1  -8  -6   10.00   11.00
  -1   8   6    9.10    7.00
   0  -8  -6    0.50    8.10
   0  -8  -6   -0.50    5.60
   0  -8  -6   20.10   13.20
   0   8   6    6.90    7.60
  -1  -8  -6   22.30    9.30
  -1  -8  -6   39.80    9.80
  -1  -8  -6   12.40   12.00
   1   8   6   32.10    9.70
  -2  -8  -6  430.96   25.60
  -2  -8  -6  415.86   26.20
   2   8   6  425.26   26.00
  -3  -8  -6   27.30   10.10
  -3  -8  -6   29.40   10.20
   3   8   6   27.10   15.30
   3   8   6   28.80    9.50
  -4  -8  -6   57.59   13.90
  -4  -8  -6   58.69   15.10
   4   8   6   80.39   21.20
   4   8   6   61.39   12.10
  -5  -8  -6   13.30   11.30
  -5  -8  -6   18.80   11.20
   5   8   6    8.90    8.50
   5   8   6   -2.20   17.20
  -6  -8  -6   25.40   12.00
  -6  -8  -6   51.79   14.70
   6   8   6   25.40   10.30
   6   8   6   43.70   29.30
  -7  -8  -6   48.20   14.90
  -7  -8  -6   20.20   12.60
   7   8   6   47.80   12.80
   7   8   6   10.40   23.20
  -8  -8  -6   68.99   16.90
   8   8   6  119.89   17.20
  11  -9  -6   24.30   12.00
 -11   9   6    4.20   14.50
  10  -9  -6   11.60   10.20
 -10   9   6   16.10   15.30
   9  -9  -6  247.98   26.70
  -9   9   6  298.97   32.70
   8  -9  -6   -5.40    7.70
   8  -9  -6    5.40    7.10
  -8   9   6   -3.30   11.70
   7  -9  -6    0.20    7.00
   7  -9  -6   12.90   10.60
  -7   9   6    2.10   11.90
   6  -9  -6   39.70   10.30
  -6   9   6   47.50   16.90
  -6   9   6   72.39   14.90
   5  -9  -6  129.89   22.00
   5  -9  -6  125.49   14.20
  -5   9   6  106.09   15.90
   4  -9  -6   16.60    8.20
  -4   9   6   15.00    8.60
   3  -9  -6   -0.20    7.00
   3  -9  -6   12.40    8.90
   3  -9  -6   -2.20    9.80
  -3   9   6   -6.90    6.00
   2  -9  -6   18.90    8.90
   2  -9  -6   23.70   11.70
   2  -9  -6   20.20    9.70
  -2   9   6   39.10   10.00
   1  -9  -6   29.90   11.70
   1  -9  -6   15.90    8.30
   1  -9  -6   15.10   11.30
  -1   9   6    8.40    7.90
   0  -9  -6  152.78   17.30
   0  -9  -6   98.79   14.00
   0  -9  -6  111.49   18.50
   0   9   6  126.19   15.40
  -1  -9  -6  145.19   21.70
  -1  -9  -6  140.29   16.50
  -1  -9  -6  150.98   16.40
   1   9   6  172.68   16.60
  -2  -9  -6   66.39   17.70
  -2  -9  -6   76.99   13.50
  -2  -9  -6  106.59   15.00
   2   9   6   91.49   14.30
  -3  -9  -6   12.00    8.60
   3   9   6   26.10   17.50
   3   9   6   16.80    8.70
  -4  -9  -6   19.10   11.00
  -4  -9  -6   26.30   10.60
   4   9   6   36.00   11.10
   4   9   6   70.89   23.00
  -5  -9  -6   27.70   12.60
  -5  -9  -6   28.20   11.90
   5   9   6   36.20   10.80
   5   9   6   49.90   23.30
  -6  -9  -6   13.20   12.00
  -6  -9  -6   22.10   13.20
   6   9   6    5.40   22.40
   6   9   6   47.90   13.20
  -7  -9  -6    7.30   13.70
  -7  -9  -6    1.60   13.10
   7   9   6   12.10   10.30
  10 -10  -6   32.50   15.70
 -10  10   6   15.30   18.10
   9 -10  -6    4.90   10.50
  -9  10   6    9.70   15.00
   8 -10  -6    1.40    9.10
  -8  10   6    6.50   14.60
   7 -10  -6   29.20   10.40
   7 -10  -6   32.10   13.30
  -7  10   6   37.30   18.10
   6 -10  -6   21.40   16.80
   6 -10  -6    1.20    7.20
  -6  10   6   -5.30    7.40
   5 -10  -6    4.50   14.90
   5 -10  -6   20.00    8.90
  -5  10   6   17.70    9.90
   4 -10  -6   23.10   15.50
   4 -10  -6   27.10    9.50
  -4  10   6   35.50   12.00
   3 -10  -6    3.90    7.70
   3 -10  -6    3.50   12.50
  -3  10   6    3.10    7.60
   2 -10  -6    6.70   12.70
   2 -10  -6   17.90    9.60
  -2  10   6   30.00   11.20
   1 -10  -6   43.00   12.00
   1 -10  -6   28.90   11.60
   1 -10  -6   53.89   14.70
  -1  10   6   37.90   11.00
   0 -10  -6   30.00   13.50
   0 -10  -6   19.20    9.80
   0 -10  -6   19.50   11.30
   0  10   6    1.70    8.60
  -1 -10  -6   76.39   18.40
  -1 -10  -6  117.79   19.60
  -1 -10  -6   68.79   12.80
   1  10   6  125.59   16.00
  -2 -10  -6   18.40    9.90
  -2 -10  -6   21.60   15.20
  -2 -10  -6   14.80   11.40
   2  10   6    6.80    8.70
  -3 -10  -6   11.20    9.70
  -3 -10  -6   25.30   11.90
   3  10   6   20.60   10.40
  -4 -10  -6   11.10   11.50
  -4 -10  -6    5.90   10.30
   4  10   6  -11.90   20.20
   4  10   6   -5.80    8.40
  -5 -10  -6   38.40   14.80
  -5 -10  -6   41.20   13.80
   5  10   6   43.10   26.70
   5  10   6   37.80   12.00
  -6 -10  -6   11.00   12.60
  -6 -10  -6    3.10   12.60
   6  10   6   23.20   10.80
   6  10   6   -0.30   40.00
   9 -11  -6   10.10   11.40
  -9  11   6    1.30   17.00
   8 -11  -6   -1.30   10.00
  -8  11   6   22.20   17.80
   7 -11  -6   23.80   13.70
   7 -11  -6   19.40   18.20
   6 -11  -6   28.00    9.70
   6 -11  -6   39.70   14.20
   6 -11  -6   33.80   18.40
   5 -11  -6   20.80   15.30
   5 -11  -6    8.30    8.50
  -5  11   6   10.70   11.20
   4 -11  -6   10.50    9.10
   4 -11  -6   22.10   14.80
  -4  11   6   30.80   13.10
   3 -11  -6   71.19   14.70
   3 -11  -6   95.89   20.00
  -3  11   6   78.59   15.80
   2 -11  -6   22.90   11.50
   2 -11  -6   10.80   12.40
  -2  11   6   34.70   11.70
   1 -11  -6   -1.50   11.90
   1 -11  -6   16.40   13.00
  -1  11   6   22.00   10.70
   0 -11  -6   -3.80   11.20
   0 -11  -6    5.40   13.20
   0  11   6   13.60    9.80
  -1 -11  -6   37.90   13.50
  -1 -11  -6   63.69   19.00
   1  11   6   67.09   14.10
  -2 -11  -6   21.80   16.50
  -2 -11  -6   56.79   14.60
   2  11   6   58.89   13.50
  -3 -11  -6    7.00   11.50
  -3 -11  -6   -5.00   11.80
  -3 -11  -6   23.90   21.40
   3  11   6   13.70   10.50
  -4 -11  -6   12.90   15.80
  -4 -11  -6   43.00   14.60
   4  11   6    3.10    9.60
   7 -12  -6   32.20   21.30
   7 -12  -6    1.90    8.90
   6 -12  -6   11.50   16.20
   6 -12  -6    8.20   11.10
   5 -12  -6   26.90   10.70
   5 -12  -6   56.89   21.60
   5 -12  -6   76.49   17.70
   4 -12  -6   54.29   14.60
   4 -12  -6  113.19   24.50
  -4  12   6  101.49   19.50
   3 -12  -6   14.10   14.50
  -3  12   6   -3.50   10.00
   2 -12  -6    1.40   11.10
   2 -12  -6   -0.60   13.50
  -2  12   6    8.10    9.60
   1 -12  -6   77.69   18.90
   1 -12  -6   59.69   17.00
  -1  12   6   76.69   16.20
   0 -12  -6   21.30   15.90
   0 -12  -6   26.70   14.70
   0  12   6   15.70   10.90
  -1 -12  -6   42.30   15.30
  -1 -12  -6   37.50   19.30
   1  12   6   27.70   12.10
  -2 -12  -6    1.90   12.40
  -2 -12  -6    9.60   31.70
   2  12   6   19.00   11.80
   4 -13  -6    2.10   10.70
   4 -13  -6   43.10   20.90
   4 -13  -6    0.60   10.60
   3 -13  -6   14.60   16.60
   3 -13  -6   28.80   13.60
  -3  13   6   20.70   12.30
   2 -13  -6  104.29   23.10
   2 -13  -6  151.28   22.60
  -2  13   6  179.98   22.40
   1 -13  -6    7.90   15.50
   1 -13  -6   -0.10   13.90
  -1  13   6   -0.40   15.00
  -2 -15   7   15.10   23.50
  -1 -15   7    4.90    5.10
  -1 -15   7   12.40   25.20
  -1 -15   7    9.10    4.90
   0 -15   7   -2.30    7.00
   0 -15   7    3.50   22.90
   0 -15   7   14.40    8.40
   1 -15   7  214.48   43.60
   1 -15   7  111.39   15.20
   1 -15   7  145.89   16.80
   2 -15   7    4.00    9.60
   2 -15   7    6.90   10.30
   2 -15   7   28.60   25.00
   3 -15   7   16.50   28.10
   3 -15   7   -4.50    8.60
   4 -15   7   19.90   24.10
   4 -15   7   14.70   10.90
  -5 -14   7   24.80   22.60
  -4 -14   7   51.19   25.60
  -3 -14   7    9.00   24.30
  -2 -14   7   30.40   26.00
  -1 -14   7   21.30    6.50
  -1 -14   7   16.00    7.00
  -1 -14   7   28.80   23.30
   0 -14   7   60.59   24.50
   0 -14   7   61.99   10.20
   0 -14   7   74.29   11.50
   1 -14   7  -20.90   19.90
   1 -14   7   23.50    9.20
   1 -14   7    7.20    9.00
   2 -14   7   53.79   27.20
   2 -14   7   71.29   14.10
   2 -14   7   39.60   16.70
   3 -14   7   39.90   26.20
   3 -14   7   19.00   10.40
   3 -14   7    4.90    9.40
   4 -14   7   19.50   23.30
   4 -14   7   35.60   12.40
   5 -14   7   -5.90    8.30
   5 -14   7    9.90   22.90
   6 -14   7   20.70   26.00
   6 -14   7   12.80   12.10
   7 -14   7   20.40   12.90
   7 -14   7   32.70   26.90
  -6 -13   7   25.70   21.40
  -5 -13   7   63.39   25.50
  -4 -13   7  -25.30   16.90
  -3 -13   7  175.18   33.80
  -2 -13   7   26.50   24.30
  -1 -13   7   -1.20    5.10
  -1 -13   7   11.70    5.60
  -1 -13   7   37.00   23.20
   0 -13   7   30.60    8.20
   0 -13   7   33.50   23.30
   0 -13   7   24.80    8.60
   1 -13   7   74.09   12.10
   1 -13   7   81.29   28.40
   1 -13   7   95.89   13.80
   2 -13   7    1.20    7.60
   2 -13   7  -14.60   16.90
   2 -13   7    1.60    7.20
   3 -13   7   25.90   10.10
   3 -13   7   19.00    9.60
   3 -13   7   35.50   24.00
   4 -13   7    9.30    9.00
   4 -13   7   -3.70   17.00
   5 -13   7   50.79   13.20
   5 -13   7   52.69   24.90
   6 -13   7   -5.70   13.00
   6 -13   7   22.60   24.20
   7 -13   7   19.30   11.50
   7 -13   7   17.70   23.80
   8 -13   7  -14.30   22.70
   8 -13   7   -2.30    9.20
  -8 -12   7   35.80   24.00
  -7 -12   7   31.30   21.60
  -6 -12   7   66.59   24.90
  -5 -12   7    8.60   18.50
  -4 -12   7   60.59   23.60
  -3 -12   7  -11.80   18.50
  -2 -12   7    7.70   15.60
  -1 -12   7  192.98   31.40
  -1 -12   7  100.29   11.30
  -1 -12   7  131.79   10.70
   0 -12   7   28.40    7.50
   0 -12   7   45.40    9.10
   0 -12   7   24.70   19.50
   1 -12   7   26.80    8.60
   1 -12   7   59.39   25.00
   1 -12   7   31.40    9.30
   2 -12   7    0.50    6.40
   2 -12   7   -1.60    6.30
   2 -12   7   -7.10   17.00
   3 -12   7   35.20   16.70
   3 -12   7   31.60    9.60
   3 -12   7   29.40   21.50
   4 -12   7    3.90    7.60
   4 -12   7    7.20    8.50
   5 -12   7   96.89   15.70
   5 -12   7   60.19   26.80
   6 -12   7   89.59   29.80
   6 -12   7   60.89   14.60
   7 -12   7   24.40   11.40
   7 -12   7   23.10   26.20
  -8  12  -7    5.10   21.60
   8 -12   7    2.50    8.80
  -9  12  -7    9.80   22.30
   9 -12   7   23.30   12.70
  -9 -11   7   13.10   19.80
  -8 -11   7   14.40   19.80
  -7 -11   7   37.60   19.70
  -6 -11   7   32.90   19.70
  -5 -11   7   10.00   22.70
  -4 -11   7   19.60   17.40
  -3 -11   7   86.99   24.80
  -2 -11   7  190.18   29.70
  -2 -11   7  130.49    6.60
  -2 -11   7  101.19    6.90
  -2 -11   7   98.69    7.00
  -1 -11   7   26.00    6.70
  -1 -11   7   26.80   18.70
  -1 -11   7   17.50    5.90
   0 -11   7   24.90    7.80
   0 -11   7   21.90    6.80
   0 -11   7    7.40   17.50
   1 -11   7   68.39   11.00
   1 -11   7   91.09   11.50
   1 -11   7   39.90   19.50
   2 -11   7   87.99   12.70
   2 -11   7  127.29   29.50
   2 -11   7   91.59   12.60
   3 -11   7   33.50   10.00
   3 -11   7   30.30   19.30
   3 -11   7   17.40    7.80
   4 -11   7  277.77   21.80
   4 -11   7  263.37   35.90
   4 -11   7  203.48   19.10
   5 -11   7    6.70    7.60
   5 -11   7   -1.40   18.70
   6 -11   7    0.50   24.90
   6 -11   7   -0.50    7.10
  -7  11  -7   13.50   19.20
   7 -11   7   10.90    9.40
  -8  11  -7  169.78   38.90
   8 -11   7  168.48   21.30
  -9  11  -7  -13.90   18.40
   9 -11   7   10.80   10.70
 -10  11  -7    9.60   25.90
  10 -11   7    0.20   10.10
 -10 -10   7   50.89   21.70
  -9 -10   7   27.60   18.40
  -8 -10   7   63.09   23.60
  -7 -10   7   90.89   23.70
  -6 -10   7    7.30   16.30
  -5 -10   7  110.59   24.10
  -4 -10   7  390.66   37.00
  -3 -10   7   13.80   17.90
  -2 -10   7   38.60   19.40
  -2 -10   7   17.30    3.70
  -2 -10   7   17.50    3.70
   1  10  -7   25.50   17.20
  -1 -10   7   38.90    6.50
  -1 -10   7   32.70   18.50
  -1 -10   7   43.90    7.00
  -1 -10   7   34.10   18.70
   0 -10   7   95.29   10.20
   0 -10   7   74.29   22.00
   0 -10   7   86.49   10.10
   0 -10   7   47.90   20.90
   1 -10   7   71.99   23.30
   1 -10   7   66.49   10.40
   1 -10   7   63.49   10.30
   1 -10   7   99.99   24.70
  -2  10  -7   61.79   10.90
   2 -10   7   83.39   24.20
   2 -10   7   28.30   16.40
   2 -10   7   63.49   11.60
  -3  10  -7   35.10   10.20
   3 -10   7    4.60   15.50
   3 -10   7   24.20    8.60
  -4  10  -7   10.10    9.00
   4 -10   7    3.40    6.40
   4 -10   7   -4.90   16.70
  -5  10  -7    0.30    8.30
   5 -10   7    2.60    7.10
   5 -10   7   13.60   20.20
  -6  10  -7   22.10   22.20
   6 -10   7   12.10    8.80
   7 -10   7   43.50   12.20
  -8  10  -7   13.20   19.70
   8 -10   7   27.20   12.10
  -9  10  -7   38.40   24.50
   9 -10   7    2.70    8.90
 -10  10  -7   85.79   31.80
  10 -10   7   62.89   16.70
 -11  10  -7    1.00   19.80
  11 -10   7   14.10   13.40
 -11  -9   7  134.99   27.00
 -10  -9   7  -18.90   13.80
  -9  -9   7  136.79   26.20
  -8  -9   7   29.80   18.20
  -7  -9   7   87.89   21.30
  -6  -9   7    0.20   14.90
  -5  -9   7   53.39   19.00
   4   9  -7   98.99   27.70
  -4  -9   7   46.90   18.30
   3   9  -7  168.48   26.70
  -3  -9   7  182.88   25.80
   2   9  -7  153.08   25.60
  -2  -9   7  173.28    9.30
  -2  -9   7  160.58    9.10
  -2  -9   7  226.28   26.90
   1   9  -7   80.09   21.40
  -1  -9   7  128.39   10.00
  -1  -9   7  140.19   23.60
  -1  -9   7  151.38   10.20
   0  -9   7   -5.30   11.40
   0  -9   7   -2.10   14.50
   0  -9   7   -3.10    4.10
  -1   9  -7   30.50    7.70
   1  -9   7   28.20    7.10
   1  -9   7   41.10   16.60
   1  -9   7   18.70   13.50
  -2   9  -7   98.19   12.50
   2  -9   7   98.29   23.10
   2  -9   7   93.69   11.80
   2  -9   7  167.18   30.00
  -3   9  -7   14.80    8.20
   3  -9   7    1.20   14.30
   3  -9   7   14.40    7.20
   3  -9   7   15.70   14.10
  -4   9  -7  125.19   16.00
   4  -9   7  111.09   14.30
   4  -9   7  144.79   22.40
   4  -9   7  131.49   27.40
  -5   9  -7   10.60    8.40
  -5   9  -7   52.39   20.60
   5  -9   7    6.50    7.20
  -6   9  -7  -26.70   13.40
   6  -9   7   14.30    8.60
  -7   9  -7   16.00   19.60
   7  -9   7    4.90    7.50
   8  -9   7  120.79   18.00
  -9   9  -7   28.40   22.70
   9  -9   7   10.10    9.80
 -10   9  -7   18.00   19.90
  10  -9   7   -4.10    8.10
 -11   9  -7   11.00   22.90
  11  -9   7    7.20   10.20
 -11  -8   7  -16.30   11.60
 -10  -8   7   36.70   18.50
  -9  -8   7   10.90   15.40
  -8  -8   7   55.69   19.30
  -7  -8   7   56.99   18.50
  -6  -8   7   64.89   18.00
   5   8  -7   14.80   16.80
  -5  -8   7    9.50   12.20
   4   8  -7   84.49   22.30
  -4  -8   7  141.79   21.80
   3   8  -7  131.59   30.40
  -3  -8   7  154.48   22.60
   2   8  -7   10.10   11.50
  -2  -8   7    3.10    2.70
  -2  -8   7   -1.10    9.90
   1   8  -7   91.49   19.70
   1   8  -7   84.09    8.60
  -1  -8   7   98.19    8.10
  -1  -8   7   99.59   20.80
   0   8  -7    9.40    5.20
   0  -8   7   19.20    5.50
   0  -8   7    8.40   12.40
   0  -8   7   22.40   15.20
  -1   8  -7  295.17   18.90
   1  -8   7  323.17   30.90
   1  -8   7  278.27   17.90
   1  -8   7  274.67   29.40
  -2   8  -7   25.00    7.90
   2  -8   7   30.90   16.00
   2  -8   7   31.50    7.80
   2  -8   7   28.90   13.70
  -3   8  -7  241.98   19.10
   3  -8   7  262.67   19.20
   3  -8   7  261.17   29.60
  -4   8  -7   39.10   18.30
  -4   8  -7   26.10    8.80
   4  -8   7   23.70    8.20
   4  -8   7   17.30   11.50
  -5   8  -7  139.49   31.00
  -5   8  -7   86.49   14.60
   5  -8   7   92.89   19.30
   5  -8   7   78.19   12.90
  -6   8  -7   89.29   26.50
  -6   8  -7   53.19   12.20
   6  -8   7   41.30   11.50
  -7   8  -7  646.04   50.49
   7  -8   7  575.74   36.60
  -8   8  -7    6.80   15.50
   8  -8   7   -4.50    6.40
  -9   8  -7  100.99   28.30
   9  -8   7   60.29   15.70
 -10   8  -7   10.30   20.00
  10  -8   7   16.80   11.20
 -11   8  -7   90.99   30.90
  11  -8   7   96.99   19.70
 -12   8  -7  -17.20   18.90
  12  -8   7    0.30    9.70
  12   7  -7   -7.30    5.30
  12   7  -7    0.30    5.40
 -12  -7   7   10.30   15.40
  11   7  -7   28.00    6.50
  11   7  -7   43.80    7.00
 -11  -7   7   31.80   16.90
  10   7  -7    7.70    3.90
  10   7  -7   11.80    3.80
 -10  -7   7   16.00   14.70
  -9  -7   7  231.08   30.00
  -8  -7   7   37.20   16.40
  -7  -7   7   90.09   19.70
   6   7  -7  -11.60   11.20
  -6  -7   7   16.60   12.00
   5   7  -7  158.78   23.50
  -5  -7   7  154.68   20.90
   4   7  -7   96.69   20.50
  -4  -7   7   90.49   19.60
   3   7  -7  -17.20    9.70
  -3  -7   7   -3.00    8.70
   2   7  -7   90.79    7.30
   2   7  -7  101.59   21.80
  -2  -7   7   94.39    6.60
  -2  -7   7   90.49   20.20
   1   7  -7   27.00   14.00
   1   7  -7   15.20    5.10
  -1  -7   7   20.60    4.80
  -1  -7   7   20.40   11.20
   0   7  -7  426.86   22.00
   0  -7   7  413.66   21.30
   0  -7   7  375.16   33.70
   0  -7   7  465.05   34.80
  -1   7  -7  332.37   20.00
   1  -7   7  296.27   29.40
   1  -7   7  351.56   31.10
   1  -7   7  328.87   19.50
  -2   7  -7  760.02   37.30
   2  -7   7  740.13   46.90
   2  -7   7  698.53   46.90
   2  -7   7  791.82   36.70
  -3   7  -7    9.30    6.50
   3  -7   7    4.10   11.90
   3  -7   7   13.10   10.30
  -4   7  -7   44.30   17.60
  -4   7  -7   39.80   10.10
   4  -7   7   43.10   13.90
   4  -7   7   36.90    9.40
  -5   7  -7   -7.00    5.70
  -5   7  -7    3.40   13.00
   5  -7   7   17.80   11.60
   5  -7   7   -1.30    5.40
  -6   7  -7   60.79   20.70
  -6   7  -7   24.80    9.70
   6  -7   7   35.90   10.50
   6  -7   7   40.80   13.40
  -7   7  -7   14.50   15.40
   7  -7   7    5.90    8.40
  -8   7  -7   13.00   17.70
   8  -7   7   20.50    9.90
  -9   7  -7   26.20   19.70
   9  -7   7   27.00   13.10
 -10   7  -7   77.99   25.60
  10  -7   7   82.69   17.00
 -11   7  -7   -4.40   14.30
  11  -7   7   -0.30    8.40
 -12   7  -7   11.70   20.00
  12  -7   7   -0.30    9.50
  13   6  -7    3.20    8.10
 -13  -6   7    3.20   14.60
  12   6  -7   20.50    8.00
 -12  -6   7   40.30   19.00
  11   6  -7   11.30    6.70
  11   6  -7   15.70    7.10
 -11  -6   7   23.50   15.80
  10   6  -7  115.59   11.40
  10   6  -7  107.39   11.20
 -10  -6   7  133.19   21.90
   9   6  -7    6.10    4.30
   9   6  -7   -4.40    4.50
  -9  -6   7    6.60   11.60
   8   6  -7    1.30    3.60
   8   6  -7    2.60    3.60
  -8  -6   7   12.30   13.20
   7   6  -7   17.30    3.50
   7   6  -7   21.90    3.90
   7   6  -7   13.20   12.70
  -7  -6   7   23.50   13.70
   6   6  -7  153.08   22.20
   6   6  -7  129.99    6.40
  -6  -6   7  118.99   18.80
   5   6  -7   12.30   11.40
  -5  -6   7    9.90    9.50
   4   6  -7   31.50   12.50
   4   6  -7   43.80    3.10
  -4  -6   7   47.90   14.80
   3   6  -7   14.70   12.30
   3   6  -7   26.70    3.90
   3   6  -7   26.50    3.90
  -3  -6   7   26.30   11.60
  -3  -6   7   25.70    3.70
   2   6  -7   35.20   12.50
   2   6  -7   49.60    5.80
  -2  -6   7   55.49    5.30
   1   6  -7  238.38   23.40
   1   6  -7  225.28   13.60
  -1  -6   7  221.58   23.40
  -1  -6   7  248.78   13.30
   0   6  -7  259.97   15.90
   0  -6   7  291.77   26.50
   0  -6   7  271.77   15.70
   0  -6   7  248.48   25.60
  -1   6  -7   69.09    9.20
   1  -6   7   67.29   18.70
   1  -6   7   74.19    9.40
   1  -6   7   81.59   19.50
  -2   6  -7   27.40    7.50
   2  -6   7   35.30   13.10
   2  -6   7   40.70    8.40
  -3   6  -7  167.78   14.80
  -3   6  -7  166.18   23.10
   3  -6   7  179.98   21.20
   3  -6   7  171.68   14.70
  -4   6  -7   41.80    9.70
  -4   6  -7   39.20   17.70
   4  -6   7   31.50   12.10
   4  -6   7   47.30    9.80
  -5   6  -7   42.30   17.80
  -5   6  -7   10.80    7.10
   5  -6   7    9.90    6.60
   5  -6   7   10.50   10.10
  -6   6  -7   48.10   17.60
  -6   6  -7    2.00    6.60
   6  -6   7   17.60   10.10
   6  -6   7   13.00    7.50
  -7   6  -7  112.59   17.00
  -7   6  -7   89.59   22.50
   7  -6   7  112.89   15.30
   7  -6   7  124.89   20.80
  -8   6  -7    1.50   14.50
   8  -6   7    9.30    8.90
  -9   6  -7  208.08   30.90
   9  -6   7  218.18   21.90
 -10   6  -7   14.20   17.60
  10  -6   7    7.30    9.00
 -11   6  -7  -19.30   14.70
  11  -6   7   -2.20    8.40
 -12   6  -7   21.90   22.00
  12  -6   7   27.60   13.00
  13   5  -7   24.70   10.30
  13   5  -7   83.69   14.30
 -13  -5   7   63.59   18.90
  12   5  -7   64.09   11.80
  12   5  -7   41.70   10.60
 -12  -5   7   72.69   18.40
  11   5  -7    9.80    7.60
  11   5  -7   12.30    7.30
 -11  -5   7   28.50   14.60
  10   5  -7   -7.10    5.10
  10   5  -7   12.10    6.30
 -10  -5   7   11.30   13.00
   9   5  -7   93.59   10.70
   9   5  -7   92.99   10.20
  -9  -5   7  120.69   19.90
   8   5  -7  215.48   14.40
   8   5  -7  224.48   13.60
  -8  -5   7  201.18   22.70
   7   5  -7   46.00   15.20
   7   5  -7   42.90    6.20
   7   5  -7   59.09    7.10
  -7  -5   7   65.29   16.50
   6   5  -7   32.70   13.20
   6   5  -7    8.60    3.80
  -6  -5   7   30.20   11.30
   5   5  -7   15.60    3.60
   5   5  -7   16.90    3.40
   5   5  -7   22.10   11.80
  -5  -5   7   22.00   11.60
   4   5  -7  548.35   36.70
   4   5  -7  546.25   23.20
  -4  -5   7  555.44   35.40
  -4  -5   7  558.74   23.30
   3   5  -7   12.40    3.40
   3   5  -7    5.70    9.70
  -3  -5   7    7.30    8.50
  -3  -5   7    8.70    3.10
   2   5  -7  933.31   38.10
   2   5  -7  868.11   49.00
  -2  -5   7  947.61   49.40
  -2  -5   7  924.51   37.60
   1   5  -7   64.39    7.20
   1   5  -7   62.69   14.70
  -1  -5   7   58.39   14.20
  -1  -5   7   58.39    6.70
   0   5  -7  300.97   17.40
   0  -5   7  316.17   26.50
   0  -5   7  309.57   16.80
   0  -5   7  331.67   27.50
  -1   5  -7  150.38   12.30
   1  -5   7  160.28   12.10
   1  -5   7  124.99   18.60
   1  -5   7  144.59   19.80
  -2   5  -7  561.74   29.10
   2  -5   7  540.05   35.40
   2  -5   7  537.25   36.30
   2  -5   7  580.44   28.60
  -3   5  -7   23.10   14.10
  -3   5  -7    6.70    5.00
   3  -5   7   -7.50    7.40
   3  -5   7    3.00    4.70
  -4   5  -7   13.50    7.30
  -4   5  -7    6.50   12.10
   4  -5   7   15.50   10.10
   4  -5   7   13.20    6.40
  -5   5  -7    6.30    5.70
  -5   5  -7    1.80   11.70
   5  -5   7   -1.60    5.10
   5  -5   7    0.70    7.70
  -6   5  -7 1159.08   55.69
  -6   5  -7 1073.89   62.19
   6  -5   7 1136.09   54.49
   6  -5   7 1124.19   56.89
  -7   5  -7    1.20    5.90
  -7   5  -7   28.30   13.80
   7  -5   7    5.10    7.70
   7  -5   7   15.60    8.90
  -8   5  -7   10.90   14.70
   8  -5   7   34.60   11.30
  -9   5  -7   -3.90   13.10
   9  -5   7  -11.40    6.10
 -10   5  -7    6.80   28.60
  10  -5   7    7.70    8.60
 -11   5  -7   -1.20   16.50
  11  -5   7   22.00   11.50
 -12   5  -7  207.68   33.90
  12  -5   7  193.18   23.80
  13   4  -7    6.20    8.50
  13   4  -7   -0.30    8.30
 -13  -4   7   -2.90   12.30
  12   4  -7   14.10    8.40
  12   4  -7   27.10    9.60
 -12  -4   7   -1.70   11.60
  11   4  -7    9.90    7.30
  11   4  -7    8.00    7.30
 -11  -4   7    9.10   12.10
  10   4  -7   14.80    7.00
  10   4  -7   12.10    6.60
 -10  -4   7   20.60   12.10
   9   4  -7    1.50    5.10
   9   4  -7    5.10    5.30
  -9  -4   7   -9.50    9.40
   8   4  -7   41.30    7.70
   8   4  -7   70.99    9.60
   8   4  -7   21.40   13.50
  -8  -4   7   56.59   13.60
   7   4  -7   62.19    7.80
   7   4  -7   66.69    8.30
  -7  -4   7   89.39   16.40
   6   4  -7  274.67   15.70
   6   4  -7  269.07   25.00
  -6  -4   7  279.57   23.00
   5   4  -7  301.47   15.30
   5   4  -7  280.57   25.10
  -5  -4   7  320.57   16.20
  -5  -4   7  356.56   24.90
   4   4  -7  112.39   16.20
  -4  -4   7  114.89   15.30
   3   4  -7  168.38   19.10
   3   4  -7  206.38   11.10
  -3  -4   7  207.18   11.20
  -3  -4   7  183.68   18.70
   2   4  -7  120.39   16.40
   2   4  -7  128.49    8.90
  -2  -4   7  138.49   16.80
  -2  -4   7  124.99    8.80
   1   4  -7  381.66   27.40
   1   4  -7  416.36   20.10
  -1  -4   7  393.06   27.50
  -1  -4   7  419.96   19.80
   0   4  -7  148.89   11.50
   0  -4   7  166.48   18.90
   0  -4   7  165.28   19.50
   0  -4   7  161.78   11.40
  -1   4  -7  245.68   15.70
   1  -4   7  254.87   15.30
   1  -4   7  251.07   22.20
   1  -4   7  211.48   21.30
  -2   4  -7    9.40   11.20
  -2   4  -7    9.60    4.90
   2  -4   7   16.90    6.50
   2  -4   7    5.60    8.20
  -3   4  -7   45.50    9.20
  -3   4  -7   18.60   12.50
   3  -4   7   42.80   10.90
   3  -4   7   32.80    7.70
  -4   4  -7   -8.80    3.90
  -4   4  -7    5.50   10.10
   4  -4   7    2.60    5.20
   4  -4   7    3.00    6.80
  -5   4  -7  465.55   28.20
  -5   4  -7  455.55   33.90
   5  -4   7  501.05   29.30
   5  -4   7  420.96   26.70
  -6   4  -7    0.20    9.50
   6  -4   7    3.30    6.60
   6  -4   7   -4.40    7.00
  -7   4  -7   33.30   14.70
  -7   4  -7   15.10    8.60
   7  -4   7   21.10   10.30
   7  -4   7   18.10    8.50
  -8   4  -7   -3.80   11.90
   8  -4   7   -4.10    7.10
   8  -4   7    2.60    8.20
  -9   4  -7    2.20   12.80
   9  -4   7   11.40    9.80
 -10   4  -7    4.40   13.40
 -11   4  -7    1.10   14.90
  11  -4   7   -2.60    9.50
 -12   4  -7  -13.30   14.30
  12  -4   7   18.90   12.00
  14   3  -7   -4.00    9.00
 -14  -3   7   12.20   12.90
  13   3  -7    1.90    7.90
  13   3  -7   -0.30    7.80
 -13  -3   7    3.60   11.70
  12   3  -7   12.00    7.90
  12   3  -7    0.40    7.20
 -12  -3   7  -11.30   10.10
  11   3  -7   97.09   13.50
  11   3  -7   78.89   13.00
 -11  -3   7   87.39   23.50
  10   3  -7    8.40    6.20
  10   3  -7   -1.30    6.30
 -10  -3   7    5.60    9.30
   9   3  -7   38.30    8.30
   9   3  -7   38.40    8.90
  -9  -3   7   43.90   13.40
   8   3  -7    8.00    4.80
   8   3  -7    3.60    4.90
   8   3  -7    8.50   10.50
  -8  -3   7   -0.60    8.90
   7   3  -7  180.98   21.00
   7   3  -7  172.08   13.60
   7   3  -7  183.18   13.00
  -7  -3   7  176.58   18.50
   6   3  -7  455.65   21.90
   6   3  -7  428.36   30.60
  -6  -3   7  421.36   27.70
  -6  -3   7  433.26   22.20
   5   3  -7  205.78   19.90
   5   3  -7  204.78   12.30
  -5  -3   7  185.18   12.60
  -5  -3   7  225.98   18.70
   4   3  -7   36.30   12.70
   4   3  -7   54.09    6.00
  -4  -3   7   44.70    6.30
  -4  -3   7   66.99   12.70
   3   3  -7  428.96   27.40
   3   3  -7  411.26   19.30
  -3  -3   7  404.46   19.50
  -3  -3   7  372.76   24.90
   2   3  -7   36.80    5.50
   2   3  -7   48.90   14.40
  -2  -3   7   37.40   11.20
  -2  -3   7   48.60    6.00
   1   3  -7   12.30    8.20
   1   3  -7   10.30    4.10
  -1  -3   7   18.30    9.30
  -1  -3   7    8.80    4.20
   0   3  -7  252.37   14.70
   0  -3   7  219.78   14.10
   0  -3   7  255.67   20.50
   0  -3   7  256.47   21.00
  -1   3  -7   -0.50    4.00
   1  -3   7   18.50    9.50
   1  -3   7    5.20    4.10
   1  -3   7   10.10    9.60
  -2   3  -7  109.39   18.50
  -2   3  -7   65.39    9.00
   2  -3   7  100.49   16.90
   2  -3   7   64.39    8.70
  -3   3  -7    0.30    4.80
  -3   3  -7   -2.00    9.20
   3  -3   7   -2.30    4.40
   3  -3   7   -4.00    6.90
  -4   3  -7   80.59   11.20
  -4   3  -7   93.99   16.70
   4  -3   7  122.99   20.00
   4  -3   7  126.19   13.30
  -5   3  -7   12.90   17.90
  -5   3  -7   20.90    7.20
   5  -3   7    7.10    6.30
   5  -3   7   13.60    6.20
  -6   3  -7    4.30   10.30
  -6   3  -7    1.50    6.00
   6  -3   7   -4.00    4.70
   6  -3   7    4.60    7.00
  -7   3  -7   -3.10    6.60
  -7   3  -7    6.70   10.50
   7  -3   7    0.70    6.40
   7  -3   7   14.50   10.00
  -8   3  -7  275.67   27.50
   8  -3   7  248.98   21.70
   8  -3   7  242.08   21.70
  -9   3  -7  -14.70    9.60
   9  -3   7   -8.40    6.20
 -10   3  -7   35.40   16.90
  10  -3   7   39.20   13.40
 -11   3  -7    5.30   12.60
  11  -3   7    4.30    7.70
 -12   3  -7   16.90   17.60
  12  -3   7   27.50   14.00
  14   2  -7    7.80   10.00
 -14  -2   7    0.90   12.90
  13   2  -7   38.10   12.90
 -13  -2   7   31.90   15.70
  12   2  -7   11.10    8.00
  12   2  -7   -3.30    7.40
 -12  -2   7   16.30   12.90
  11   2  -7   42.50   11.20
  11   2  -7   26.80   15.60
 -11  -2   7   20.40   12.30
  10   2  -7   28.80    8.10
  10   2  -7   13.00    6.50
 -10  -2   7   11.80   11.90
   9   2  -7  880.81   52.39
   9   2  -7  984.40   48.60
   9   2  -7  896.41   43.30
  -9  -2   7  889.51   48.10
   8   2  -7   30.60    7.30
   8   2  -7   31.50    7.90
   8   2  -7   32.90   14.90
  -8  -2   7   29.70   10.20
   7   2  -7  125.49   17.10
   7   2  -7  144.99   11.90
   7   2  -7  150.58   13.10
  -7  -2   7  126.39   15.80
   6   2  -7    7.00    4.30
   6   2  -7   -1.00    7.50
  -6  -2   7   11.90    5.20
   5   2  -7    3.40    3.70
   5   2  -7    0.80    7.70
  -5  -2   7    9.10    7.60
  -5  -2   7    1.70    3.90
   4   2  -7    6.70    3.30
   4   2  -7   11.70    8.50
  -4  -2   7   19.70    7.90
  -4  -2   7    3.00    4.00
   3   2  -7 1613.44   72.99
   3   2  -7 1726.33   67.49
  -3  -2   7 1755.62   67.79
  -3  -2   7 1651.93   71.19
   2   2  -7    8.70    7.80
   2   2  -7    5.10    3.70
  -2  -2   7    0.00    3.20
  -2  -2   7   -4.90    5.80
   1   2  -7  207.38   16.60
   1   2  -7  201.88   12.20
  -1  -2   7  184.88   15.70
  -1  -2   7  177.98   11.90
   0   2  -7   31.70    6.30
   0  -2   7   63.29   12.10
   0  -2   7   44.20    6.80
   0  -2   7   50.59   11.50
  -1   2  -7  282.67   16.50
   1  -2   7  258.07   16.00
   1  -2   7  279.67   19.20
   1  -2   7  274.27   20.40
  -2   2  -7    7.00    4.80
  -2   2  -7   -7.60    7.90
   2  -2   7    0.00    3.50
   2  -2   7   -0.90    5.80
  -3   2  -7 1192.48   52.79
  -3   2  -7 1171.48   56.09
   3  -2   7 1162.98   52.09
   3  -2   7 1233.08   55.49
  -4   2  -7   78.89   10.70
  -4   2  -7   96.49   15.30
   4  -2   7   65.69   10.60
  -5   2  -7  717.93   38.80
  -5   2  -7  633.94   35.20
   5  -2   7  643.74   33.90
   5  -2   7  688.33   35.00
  -6   2  -7    3.20    8.90
  -6   2  -7    8.10    7.10
   6  -2   7   -0.40    6.50
   6  -2   7   -2.50    5.80
  -7   2  -7  142.19   20.10
  -7   2  -7  116.59   15.80
   7  -2   7  121.09   14.90
   7  -2   7  149.99   15.90
  -8   2  -7   -4.00   10.30
  -8   2  -7    3.30   12.00
   8  -2   7   -3.30    6.20
   8  -2   7    4.00    7.90
  -9   2  -7   61.49   19.50
   9  -2   7   57.39   14.60
 -10   2  -7   35.10   16.40
  10  -2   7   23.60   10.50
 -11   2  -7  231.68   29.60
  11  -2   7  189.38   22.10
 -12   2  -7    0.90   13.80
  12  -2   7    1.30   10.10
  14   1  -7  107.59   19.50
 -14  -1   7   84.09   19.40
  13   1  -7    1.30    8.60
 -13  -1   7  -12.80    8.40
  12   1  -7   -3.50    7.80
 -12  -1   7   -3.80   10.10
  11   1  -7    3.30    7.00
  11   1  -7   15.00    8.70
 -11  -1   7    5.00   10.30
  10   1  -7  334.07   25.00
  10   1  -7  338.07   23.50
 -10  -1   7  380.46   28.60
   9   1  -7   53.19   15.80
   9   1  -7   71.19   11.40
   9   1  -7   79.59   13.30
  -9  -1   7   66.69   13.40
   8   1  -7   36.70   12.90
   8   1  -7   32.40   14.30
   8   1  -7   30.20    8.00
  -8  -1   7   19.40   10.70
   7   1  -7   12.90    8.70
   7   1  -7   24.40    6.80
  -7  -1   7   11.20    5.40
  -7  -1   7   46.60   11.20
   6   1  -7   42.00   11.40
   6   1  -7   22.90    6.40
  -6  -1   7   29.40    9.50
  -6  -1   7   15.30    5.90
   5   1  -7   24.90    6.00
   5   1  -7   49.30   10.90
  -5  -1   7   37.00    9.80
  -5  -1   7   20.20    5.90
   4   1  -7   97.39   10.60
  -4  -1   7   59.09   10.20
  -4  -1   7   77.49    8.50
   3   1  -7    6.20    4.10
   3   1  -7   12.80    6.90
  -3  -1   7    0.80    5.60
  -3  -1   7    4.40    3.90
   2   1  -7   22.50    8.30
   2   1  -7   34.40    6.50
  -2  -1   7   58.09    8.10
  -2  -1   7   50.89    8.80
   1   1  -7    8.60    4.20
   1   1  -7    5.10    6.80
  -1  -1   7    1.40    3.50
  -1  -1   7   -5.90    4.80
   0   1  -7 1517.45   61.99
   0  -1   7 1496.45   62.39
   0  -1   7 1469.45   60.99
   0  -1   7 1480.05   62.29
  -1   1  -7   46.90    7.40
  -1   1  -7   61.39   11.70
   1  -1   7   48.80    7.20
   1  -1   7   52.39    8.30
  -2   1  -7   21.90    9.00
  -2   1  -7   25.10    6.50
   2  -1   7   28.70    7.50
   2  -1   7   26.50    7.10
  -3   1  -7   -1.40    4.90
  -3   1  -7  -11.80    6.50
   3  -1   7    6.90    5.10
   3  -1   7   -6.30    3.80
  -4   1  -7   77.89   10.70
  -4   1  -7   62.09   12.30
   4  -1   7   86.59   10.40
  -5   1  -7   10.70    6.40
  -5   1  -7   10.50    8.50
   5  -1   7    1.60    5.60
   5  -1   7   -1.00    5.20
  -6   1  -7  780.02   42.50
  -6   1  -7  718.53   40.10
   6  -1   7  763.02   38.60
   6  -1   7  805.82   39.90
  -7   1  -7   10.20    7.90
  -7   1  -7   12.90   10.70
   7  -1   7   -1.30    6.00
   7  -1   7    0.00    6.70
  -8   1  -7  110.19   19.10
  -8   1  -7  125.49   19.60
   8  -1   7  128.89   17.70
   8  -1   7  125.89   15.80
  -9   1  -7   10.40   11.70
   9  -1   7   -3.40    7.40
 -10   1  -7   32.70   16.10
  10  -1   7   28.00   10.70
 -11   1  -7   19.40   16.50
  11  -1   7    7.60    9.10
 -12   1  -7    7.00   15.70
  12  -1   7  -11.20    8.70
  14   0  -7    1.00   10.00
 -14   0   7    0.00   10.90
  13   0  -7   11.20   10.70
 -13   0   7   15.00   12.70
  12   0  -7   35.40   12.40
 -12   0   7   37.20   11.90
  11   0  -7   91.59   16.70
  11   0  -7   69.39   13.90
 -11   0   7   83.49   17.90
  10   0  -7    3.10    6.40
  10   0  -7   -7.30    6.20
 -10   0   7   -7.10    7.40
   9   0  -7    6.40    6.00
   9   0  -7   12.80   10.80
   9   0  -7    7.00    6.70
  -9   0   7    5.60    8.60
   8   0  -7   19.10    7.60
   8   0  -7    4.00    8.70
   8   0  -7   12.00    6.10
  -8   0   7   31.50    9.80
   7   0  -7   56.19   10.10
   7   0  -7   65.89   14.10
  -7   0   7   43.80   13.50
  -7   0   7   41.20   11.00
   6   0  -7   16.00    7.90
   6   0  -7   18.00    6.20
  -6   0   7   23.40    6.80
  -6   0   7   13.90    7.10
   5   0  -7   12.80    7.70
   5   0  -7    7.20    4.80
  -5   0   7   12.10    7.10
  -5   0   7   13.70    5.60
   4   0  -7    6.80    5.70
   4   0  -7    4.60    3.90
  -4   0   7    1.50    4.20
  -4   0   7    0.50    5.50
   3   0  -7  220.38   13.60
   3   0  -7  217.48   14.90
  -3   0   7  200.78   13.80
  -3   0   7  188.68   13.40
   2   0  -7   -3.70    3.30
   2   0  -7    3.90    4.90
  -2   0   7    4.70    4.90
  -2   0   7    3.50    4.10
   1   0  -7  886.71   38.30
   1   0  -7  904.81   39.30
  -1   0   7  867.21   36.90
  -1   0   7  931.91   39.40
   0   0  -7    3.00    4.20
   0   0   7    3.90    4.00
   0   0   7    7.20    5.10
   0   0   7    7.60    4.40
  -1   0  -7  176.48   13.00
  -1   0  -7  168.48   14.20
   1   0   7  185.38   10.80
   1   0   7  191.88   13.20
  -2   0  -7    0.50    3.90
  -2   0  -7    5.70    6.70
   2   0   7    6.30    4.60
   2   0   7   -0.80    3.70
  -3   0  -7  338.57   20.00
  -3   0  -7  296.07   19.20
   3   0   7  285.17   18.60
   3   0   7  302.47   17.00
  -4   0  -7    4.90    7.20
  -4   0  -7   -3.10    4.30
   4   0   7    3.20    5.20
   4   0   7   10.40    6.50
  -5   0  -7  390.56   25.30
  -5   0  -7  403.86   25.80
   5   0   7  466.05   25.80
   5   0   7  410.96   24.00
  -6   0  -7   -6.30    5.20
   6   0   7    2.80    7.60
   6   0   7    9.00    6.40
  -7   0  -7   52.29   14.40
  -7   0  -7   42.30   12.40
   7   0   7   44.60   10.80
   7   0   7   68.99   14.50
  -8   0  -7   19.80    9.30
  -8   0  -7   11.70   11.00
   8   0   7   34.40   12.90
   8   0   7   23.70    9.30
  -9   0  -7    5.30   11.50
   9   0   7  -12.10    6.20
 -10   0  -7    1.80   12.80
  10   0   7   12.80    8.30
 -11   0  -7   28.40   15.80
  11   0   7    3.60    9.20
 -12   0  -7   40.30   20.10
  12   0   7   35.90   13.70
  14  -1  -7  108.09   21.30
 -14   1   7   82.59   19.70
  13  -1  -7   10.50   11.40
 -13   1   7    5.90   11.10
  12  -1  -7   18.80    9.70
 -12   1   7    8.90   11.90
  11  -1  -7   40.60   12.60
 -11   1   7   42.10   13.20
  10  -1  -7  150.28   16.40
  10  -1  -7  168.28   18.90
 -10   1   7  153.88   18.90
   9  -1  -7    8.40    7.60
   9  -1  -7    8.40    7.20
   9  -1  -7   17.60   10.50
  -9   1   7   27.30   10.60
   8  -1  -7  216.48   18.60
   8  -1  -7  210.28   19.80
   8  -1  -7  215.28   17.40
  -8   1   7  222.68   19.10
   7  -1  -7    0.50    4.50
   7  -1  -7    3.40    7.60
  -7   1   7   -0.60    4.50
  -7   1   7   -2.10    5.80
   6  -1  -7  111.89   13.40
   6  -1  -7  166.18   13.20
  -6   1   7  113.29   14.80
  -6   1   7  117.99   12.60
   5  -1  -7   23.70    7.60
   5  -1  -7    9.40    5.40
  -5   1   7   22.70    6.50
  -5   1   7   20.30    7.00
   4  -1  -7 1037.30   45.20
   4  -1  -7 1027.30   45.40
  -4   1   7 1023.50   45.80
  -4   1   7 1004.50   43.80
   3  -1  -7    0.70    4.80
   3  -1  -7    8.90    4.90
  -3   1   7    3.80    3.90
  -3   1   7    7.40    4.70
   2  -1  -7  354.36   19.40
   2  -1  -7  362.16   17.50
  -2   1   7  335.87   15.90
  -2   1   7  351.56   19.50
   1  -1  -7    2.70    3.70
  -1   1   7   -2.40    3.90
  -1   1   7    2.20    3.90
   0  -1  -7  384.46   20.70
   0   1   7  371.96   20.30
  -1  -1  -7    6.90    5.20
  -1  -1  -7    4.90    4.40
   1   1   7   11.50    3.30
   1   1   7   10.10    5.10
  -2  -1  -7  891.31   40.00
  -2  -1  -7  861.51   37.40
   2   1   7  893.11   39.70
   2   1   7  813.72   35.60
  -3  -1  -7   39.50    8.50
  -3  -1  -7   66.19    9.00
   3   1   7   62.29    8.30
   3   1   7   71.99    9.10
  -4  -1  -7  150.28   13.90
  -4  -1  -7  138.29   13.20
   4   1   7  158.78   13.50
  -5  -1  -7   22.50    7.60
  -5  -1  -7   32.30    9.40
   5   1   7   39.00    9.40
   5   1   7   47.00    9.40
  -6  -1  -7  582.94   37.10
  -6  -1  -7  609.74   33.60
   6   1   7  549.45   32.10
   6   1   7  542.45   31.30
  -7  -1  -7   25.50   10.50
  -7  -1  -7   27.00   10.20
   7   1   7   45.80   10.80
   7   1   7   44.10   12.90
  -8  -1  -7   -7.50    8.90
  -8  -1  -7   14.30   10.10
   8   1   7    7.40    7.90
   8   1   7    2.50   11.20
  -9  -1  -7  -13.90    9.20
   9   1   7   13.80    8.80
 -10  -1  -7  128.39   21.90
  10   1   7   88.89   16.10
 -11  -1  -7    4.60   13.40
  11   1   7   40.70   12.30
 -12  -1  -7   33.90   17.70
  12   1   7   40.20   13.80
  14  -2  -7   22.30   12.40
 -14   2   7    2.50   11.20
  13  -2  -7   50.19   16.40
 -13   2   7   24.20   13.60
  12  -2  -7   11.20    9.90
 -12   2   7    4.80   10.60
  11  -2  -7  268.67   24.80
 -11   2   7  273.97   25.80
  10  -2  -7    5.50    7.60
 -10   2   7    3.60    9.50
   9  -2  -7  256.37   21.00
   9  -2  -7  257.17   22.80
   9  -2  -7  295.57   23.30
  -9   2   7  274.27   23.00
   8  -2  -7   -0.60    5.10
   8  -2  -7    7.50    7.50
   8  -2  -7   -1.80    6.60
  -8   2   7    7.00    7.60
   7  -2  -7   94.69   11.80
   7  -2  -7   85.19   12.20
  -7   2   7   84.69   11.70
   6  -2  -7    0.30    4.00
   6  -2  -7    1.60    5.20
  -6   2   7   10.70    6.10
  -6   2   7    9.30    5.90
   5  -2  -7  459.45   25.20
   5  -2  -7  434.76   24.10
  -5   2   7  442.56   23.80
   4  -2  -7    3.00    4.00
   4  -2  -7   -2.00    4.50
  -4   2   7    2.10    4.10
  -4   2   7   -0.10    4.10
   3  -2  -7  446.16   21.50
   3  -2  -7  426.06   23.70
  -3   2   7  473.65   21.40
  -3   2   7  442.96   24.30
   2  -2  -7  108.19   10.40
   2  -2  -7  107.99    7.40
  -2   2   7  111.89    7.30
  -2   2   7  102.49   10.50
   1  -2  -7 5673.33  213.68
  -1   2   7 5488.25  213.48
   0  -2  -7   30.70    6.90
   0   2   7   39.00    7.80
  -1  -2  -7    4.00    5.00
  -1  -2  -7    8.80    4.10
   1   2   7   18.40    3.70
   1   2   7   10.40    5.40
  -2  -2  -7   -0.40    4.30
  -2  -2  -7   -1.30    4.10
   2   2   7    3.10    4.40
   2   2   7    5.80    4.80
  -3  -2  -7  463.95   23.00
  -3  -2  -7  441.96   25.50
   3   2   7  469.65   26.80
   3   2   7  465.85   23.60
  -4  -2  -7  131.19   11.90
  -4  -2  -7   98.39   12.20
   4   2   7  110.19   11.90
   4   2   7  122.59   19.40
  -5  -2  -7  476.95   29.10
  -5  -2  -7  494.45   27.70
   5   2   7  494.85   28.80
   5   2   7  552.54   29.10
  -6  -2  -7    8.30    9.10
  -6  -2  -7   24.80    9.30
   6   2   7    4.90    9.30
   6   2   7    9.90    6.30
  -7  -2  -7   22.50    9.90
  -7  -2  -7   48.30   12.50
   7   2   7   54.69   14.70
   7   2   7   38.10   11.10
  -8  -2  -7   31.70   13.30
  -8  -2  -7   26.00   12.30
   8   2   7   27.30   14.20
   8   2   7   61.79   12.70
  -9  -2  -7   54.19   16.10
   9   2   7   43.20   12.40
 -10  -2  -7   -4.10   10.60
  10   2   7    9.80    9.50
 -11  -2  -7   14.40   13.60
  11   2   7   16.80   10.60
  14  -3  -7    1.40    9.00
 -14   3   7   -8.20    9.90
  13  -3  -7    4.90   10.20
 -13   3   7   -2.10   11.50
  12  -3  -7   36.50   20.30
 -12   3   7   24.20   16.10
  11  -3  -7   28.00   11.40
 -11   3   7   33.70   13.70
  10  -3  -7   36.50   12.50
 -10   3   7   38.40   13.50
   9  -3  -7   -7.10    6.50
   9  -3  -7    6.70    6.30
   9  -3  -7   -2.80    6.80
  -9   3   7   -2.20    7.50
   8  -3  -7   37.90   11.50
   8  -3  -7   29.20    9.10
  -8   3   7   52.69   13.20
  -8   3   7   64.29   12.70
   7  -3  -7   15.00    7.20
   7  -3  -7   28.30    9.60
  -7   3   7    8.90    6.50
   6  -3  -7  233.48   17.90
   6  -3  -7  209.58   16.60
  -6   3   7  228.18   18.00
  -6   3   7  251.87   18.10
   5  -3  -7    2.70    5.20
   5  -3  -7    4.20    5.40
  -5   3   7    0.40    5.70
  -5   3   7    6.10    5.50
   4  -3  -7 1108.69   48.90
   4  -3  -7 1061.29   45.30
  -4   3   7 1061.09   46.30
  -4   3   7 1034.50   48.70
   3  -3  -7   34.10    5.90
   3  -3  -7   24.50    7.10
  -3   3   7   31.50    8.50
  -3   3   7   34.10    6.70
   2  -3  -7   23.20    6.50
   2  -3  -7   25.10    4.20
  -2   3   7   25.10    5.40
  -2   3   7   20.60    6.50
   1  -3  -7    2.90    4.10
  -1   3   7    3.10    4.80
   0  -3  -7   60.79    9.70
   0   3   7   46.30    8.50
  -1  -3  -7   17.70    3.40
  -1  -3  -7   10.60    5.50
   1   3   7   19.50    6.30
   1   3   7   22.90    4.40
  -2  -3  -7   56.09    6.40
  -2  -3  -7   51.99    9.30
   2   3   7   57.49    9.10
   2   3   7   50.89    7.90
  -3  -3  -7   47.00    7.30
  -3  -3  -7   51.89    9.20
   3   3   7   59.59    9.40
   3   3   7   60.49    9.90
  -4  -3  -7   72.59   12.10
  -4  -3  -7   80.29   10.20
   4   3   7   68.69   10.40
  -5  -3  -7   71.49   11.20
  -5  -3  -7   38.50   10.10
   5   3   7   50.19   12.30
   5   3   7   57.69   10.70
   6   3   7   -2.40    9.50
   6   3   7    0.20    6.20
  -7  -3  -7   38.80   12.20
  -7  -3  -7   49.70   12.00
   7   3   7   35.20   14.70
   7   3   7   35.80    9.90
  -8  -3  -7   -6.50    9.10
   8   3   7   -6.20    7.20
   8   3   7    3.50   13.20
  -9  -3  -7   19.30   12.30
   9   3   7    0.30    7.50
 -10  -3  -7   20.50   13.30
  10   3   7    9.10    9.50
 -11  -3  -7   32.70   15.90
  11   3   7   50.39   14.10
  14  -4  -7    4.20   11.30
 -14   4   7    4.40   12.50
  13  -4  -7   -4.90    9.40
 -13   4   7    3.70   13.50
  12  -4  -7   31.60   12.30
 -12   4   7    0.40   10.60
  11  -4  -7   56.79   14.90
 -11   4   7   71.89   18.90
  10  -4  -7   -9.40    7.00
 -10   4   7   -1.60    9.50
   9  -4  -7  245.28   21.40
   9  -4  -7  255.87   23.40
  -9   4   7  234.38   23.30
   8  -4  -7   19.20    9.10
   8  -4  -7   11.50    7.10
  -8   4   7   12.30    9.50
  -8   4   7    7.70    7.30
   7  -4  -7   75.19   11.50
   7  -4  -7   73.39   11.60
  -7   4   7   98.49   16.40
  -7   4   7   83.39   13.90
   6  -4  -7   -4.40    4.20
   6  -4  -7    3.20    6.20
  -6   4   7   -0.40    5.20
  -6   4   7   -1.10    5.60
   5  -4  -7 1257.17   57.89
   5  -4  -7 1331.27   54.99
  -5   4   7 1229.58   58.09
  -5   4   7 1275.07   57.19
   4  -4  -7    5.30    5.10
   4  -4  -7   15.70    5.40
  -4   4   7    9.70    6.10
  -4   4   7   12.10    7.00
   3  -4  -7   32.60    5.90
   3  -4  -7   28.80    7.60
  -3   4   7   36.50    8.80
  -3   4   7   44.60    9.20
   2  -4  -7   10.50    3.20
   2  -4  -7   11.30    6.30
   2  -4  -7   18.20    6.20
  -2   4   7   14.80    6.10
   1  -4  -7   62.19    3.90
   1  -4  -7   61.69   10.20
   0  -4  -7    8.10    4.50
   0   4   7    4.40    7.20
  -1  -4  -7   55.99    5.10
  -1  -4  -7   64.99    9.10
   1   4   7   80.79   16.20
  -2  -4  -7   20.50    5.00
  -2  -4  -7   18.70    6.20
   2   4   7   41.40    8.80
   2   4   7   29.60    7.80
  -3  -4  -7    6.60    4.90
  -3  -4  -7    2.30    5.10
   3   4   7    6.30    5.50
   3   4   7    5.90    6.80
  -4  -4  -7  178.98   16.40
  -4  -4  -7  196.48   14.70
   4   4   7  204.08   18.20
   4   4   7  189.88   15.90
  -5  -4  -7  138.19   15.70
  -5  -4  -7  141.19   14.40
   5   4   7  160.08   18.90
   5   4   7  148.89   14.70
  -6  -4  -7    4.10    7.40
  -6  -4  -7    2.10    7.60
   6   4   7    1.00   11.80
   6   4   7   -1.10    6.10
  -7  -4  -7   35.40   11.30
  -7  -4  -7   56.99   13.20
   7   4   7   55.99   18.80
   7   4   7   71.79   13.50
  -8  -4  -7   23.60   11.80
   8   4   7    3.90    8.70
   8   4   7    1.30   14.70
  -9  -4  -7   52.79   16.30
   9   4   7   66.29   14.10
 -10  -4  -7   13.20   13.00
  10   4   7   34.40   11.60
  13  -5  -7    7.80   11.10
 -13   5   7   13.40   14.60
  12  -5  -7   11.20   10.50
 -12   5   7   11.10   13.60
  11  -5  -7    4.40   10.00
 -11   5   7   11.00   11.80
  10  -5  -7  260.57   25.60
 -10   5   7  245.58   25.90
   9  -5  -7   -2.90    7.20
   9  -5  -7    1.80    7.60
  -9   5   7    4.40    9.90
   8  -5  -7    3.90    7.10
  -8   5   7   21.60    9.30
  -8   5   7   -3.40    8.20
   7  -5  -7   -2.30    5.30
   7  -5  -7   -4.20    5.70
  -7   5   7   -0.90    5.50
  -7   5   7    1.40    7.50
   6  -5  -7  552.94   29.50
   6  -5  -7  551.84   32.40
  -6   5   7  592.34   33.40
  -6   5   7  561.84   33.20
   5  -5  -7   20.80    6.70
  -5   5   7    9.20    7.90
  -5   5   7    5.00    5.40
   4  -5  -7  232.98   14.30
   4  -5  -7  209.98   17.20
  -4   5   7  202.88   17.40
  -4   5   7  243.98   18.40
   3  -5  -7   -0.40    4.40
   3  -5  -7   14.40    4.50
  -3   5   7   18.70    6.50
  -3   5   7   11.80    7.50
   2  -5  -7  462.85   23.70
   2  -5  -7  469.95   20.80
   2  -5  -7  448.76   25.80
  -2   5   7  448.56   26.30
   1  -5  -7   17.50    4.80
   1  -5  -7   16.60    4.30
   1  -5  -7   21.40    7.10
  -1   5   7   21.70    7.50
   0  -5  -7  169.18    9.90
   0  -5  -7  208.48   15.20
   0  -5  -7  175.58   11.40
   0   5   7  176.98   14.90
  -1  -5  -7   17.20    4.10
  -1  -5  -7   12.90    6.40
   1   5   7   18.10    6.90
  -2  -5  -7   66.49   11.30
  -2  -5  -7   55.49    7.40
   2   5   7   68.39   11.40
   2   5   7   50.69    9.60
  -3  -5  -7  210.78   17.50
   3   5   7  203.48   16.50
   3   5   7  205.78   17.70
  -4  -5  -7 1225.98   56.39
  -4  -5  -7 1277.37   52.59
   4   5   7 1217.88   55.29
   4   5   7 1092.99   56.19
  -5  -5  -7    8.20   10.00
  -5  -5  -7   12.40    8.50
   5   5   7   13.90   11.70
   5   5   7    4.10    6.70
  -6  -5  -7   60.09   12.60
  -6  -5  -7   87.79   16.40
   6   5   7   94.09   20.80
   6   5   7   79.59   13.50
  -7  -5  -7   31.10   11.20
  -7  -5  -7   17.50   10.40
   7   5   7   22.90    9.40
   7   5   7   32.30   17.90
  -8  -5  -7   -4.60    9.90
   8   5   7   -1.20    8.40
   8   5   7   -8.50   17.90
  -9  -5  -7    8.40   12.50
   9   5   7   -8.90    8.40
 -10  -5  -7   18.50   14.40
  10   5   7   14.60   11.40
  13  -6  -7   40.90   15.10
 -13   6   7   25.10   16.40
  12  -6  -7    7.60   10.90
 -12   6   7    6.20   13.70
  11  -6  -7    8.60    9.50
 -11   6   7   23.00   14.50
  10  -6  -7    1.50    7.20
 -10   6   7    6.90   10.60
   9  -6  -7  112.69   18.50
   9  -6  -7  117.89   21.00
  -9   6   7  126.39   23.20
   8  -6  -7    7.00    8.90
   8  -6  -7   12.30    8.20
  -8   6   7   12.20   10.80
   7  -6  -7   20.60    8.10
  -7   6   7   25.70   12.50
  -7   6   7   30.80   10.90
   6  -6  -7   13.20    7.80
   6  -6  -7   -0.10    5.00
  -6   6   7   -8.40    4.40
  -6   6   7    3.80    8.00
   5  -6  -7   22.50    7.30
   5  -6  -7   24.70    8.50
  -5   6   7    7.10    6.50
  -5   6   7   23.90   11.30
   4  -6  -7   26.90    8.10
  -4   6   7   67.89   12.00
  -4   6   7   53.59   13.30
   3  -6  -7   62.79    7.80
   3  -6  -7   78.29   12.60
   3  -6  -7   65.59   12.10
  -3   6   7   72.99   10.90
   2  -6  -7   17.30    7.50
   2  -6  -7    1.80    4.40
   2  -6  -7   -3.40    5.80
  -2   6   7   10.00    6.50
   1  -6  -7   84.89    9.50
   1  -6  -7   85.19    8.60
   1  -6  -7   84.29   11.10
  -1   6   7   81.49   11.50
   0  -6  -7   36.20    8.40
   0  -6  -7   53.19    9.90
   0  -6  -7   32.70    6.50
   0   6   7   36.10    8.70
  -1  -6  -7   34.10   10.40
  -1  -6  -7   37.80    6.80
  -1  -6  -7   65.39   11.00
   1   6   7   57.29   11.10
  -2  -6  -7   90.19   12.10
  -2  -6  -7   74.79    9.10
   2   6   7   81.79   13.90
   2   6   7   92.59   12.20
  -3  -6  -7   43.40    8.70
  -3  -6  -7   37.40   10.10
   3   6   7   26.80   19.90
   3   6   7   36.60    9.80
  -4  -6  -7   15.60    8.50
  -4  -6  -7   32.30    9.30
   4   6   7   25.20   13.10
   4   6   7   25.80    9.10
  -5  -6  -7    1.50    7.90
  -5  -6  -7    7.30    8.30
   5   6   7    0.40    6.80
   5   6   7   -6.10   12.20
  -6  -6  -7   17.90   10.00
  -6  -6  -7   14.20    9.40
   6   6   7   50.39   12.20
   6   6   7   43.80   17.10
  -7  -6  -7   14.40   10.70
  -7  -6  -7   28.10   13.50
   7   6   7    5.50   31.10
   7   6   7   16.90    9.60
  -8  -6  -7    8.80   11.10
   8   6   7   18.30   10.70
   8   6   7   -7.40   19.20
  -9  -6  -7   -5.40   11.60
   9   6   7    5.40   10.20
  12  -7  -7   10.60   10.70
 -12   7   7   -9.00   10.60
  11  -7  -7  -12.50    6.20
 -11   7   7    7.10   12.40
  10  -7  -7  411.76   33.50
 -10   7   7  356.46   34.20
   9  -7  -7    0.50    8.20
   9  -7  -7    6.60   10.00
  -9   7   7   18.10   13.10
   8  -7  -7    8.70    9.70
   8  -7  -7   23.50    9.20
  -8   7   7    4.90   10.80
   7  -7  -7    4.00    6.20
  -7   7   7   -5.30    8.90
  -7   7   7    6.00    7.30
   6  -7  -7   72.09   12.20
  -6   7   7   36.20   11.10
   5  -7  -7   48.20   11.30
   5  -7  -7   59.79   10.40
  -5   7   7   57.59   12.70
  -5   7   7   75.09   16.40
   4  -7  -7  200.38   17.90
   4  -7  -7  192.78   14.20
  -4   7   7  190.98   18.10
   3  -7  -7    0.80    5.80
   3  -7  -7   14.10    5.60
   3  -7  -7    5.60    8.10
  -3   7   7    3.80    6.70
   2  -7  -7   56.79    8.80
   2  -7  -7   73.79   12.90
   2  -7  -7   46.90   10.50
  -2   7   7   61.19   12.10
   1  -7  -7   75.49   10.10
   1  -7  -7   62.79   16.70
   1  -7  -7   87.09   11.10
  -1   7   7   66.49   11.80
   0  -7  -7  831.02   40.00
   0  -7  -7  758.12   35.00
   0  -7  -7  739.03   36.60
   0   7   7  728.83   38.80
  -1  -7  -7   15.90    7.30
  -1  -7  -7   13.40   10.20
  -1  -7  -7   18.50    6.50
   1   7   7   18.60    8.20
  -2  -7  -7   65.39   10.40
  -2  -7  -7   64.39   12.40
   2   7   7   77.29   12.30
  -3  -7  -7   17.60    8.10
   3   7   7   10.70    8.00
   3   7   7   -9.40   11.30
  -4  -7  -7   46.70   10.40
  -4  -7  -7   29.60   10.60
   4   7   7   25.50    9.40
   4   7   7   19.60   15.30
  -5  -7  -7   -3.90    8.00
  -5  -7  -7    2.40    8.60
   5   7   7   20.10   15.50
   5   7   7   -7.00    7.80
  -6  -7  -7   10.40   11.00
  -6  -7  -7   13.60   10.10
   6   7   7   12.70    9.10
   6   7   7   37.80   20.10
  -7  -7  -7    3.50   10.20
   7   7   7   13.50   20.90
   7   7   7    8.90    9.60
  -8  -7  -7    8.10   12.60
   8   7   7   38.20   12.60
  12  -8  -7   -2.70    8.70
 -12   8   7   -6.40   14.40
  11  -8  -7  258.97   28.70
 -11   8   7  245.68   34.90
  10  -8  -7   11.90    9.40
 -10   8   7  -15.30   10.20
   9  -8  -7   39.20   13.60
  -9   8   7   33.50   16.20
   8  -8  -7    0.00    9.80
   8  -8  -7   -1.80    6.50
  -8   8   7   -1.70   12.10
   7  -8  -7   79.69   12.40
  -7   8   7   90.99   17.20
  -7   8   7  152.18   25.40
   6  -8  -7   22.40    8.40
  -6   8   7   14.30    8.50
  -6   8   7   21.80   13.80
   5  -8  -7  232.68   17.20
  -5   8   7  212.18   20.20
   4  -8  -7   17.40   12.20
   4  -8  -7   17.00    6.60
  -4   8   7    1.40    7.50
   3  -8  -7  374.86   22.60
   3  -8  -7  432.56   27.50
   3  -8  -7  466.45   29.40
  -3   8   7  382.76   26.70
   2  -8  -7   58.39   13.00
   2  -8  -7   20.80    9.70
   2  -8  -7   33.30   10.00
  -2   8   7   37.50   10.50
   1  -8  -7    1.00    7.50
   1  -8  -7    3.00    7.60
   1  -8  -7    0.90    6.30
  -1   8   7    8.30    7.60
   0  -8  -7    2.40    7.10
   0  -8  -7   10.40    9.80
   0  -8  -7    7.10    7.60
   0   8   7   12.50    7.50
  -1  -8  -7    5.70   18.50
  -1  -8  -7   -9.20    6.40
  -1  -8  -7   21.90    8.70
   1   8   7    3.80    7.80
  -2  -8  -7   22.80    8.90
  -2  -8  -7   24.20   13.30
  -2  -8  -7   10.00    7.70
   2   8   7   14.70    8.60
  -3  -8  -7   -3.10    7.20
  -3  -8  -7    5.70    9.00
   3   8   7    8.20   14.90
   3   8   7   -1.10    7.40
  -4  -8  -7   -4.70    8.10
  -4  -8  -7   10.20    9.40
   4   8   7  -11.00   12.50
   4   8   7   -1.10    8.50
  -5  -8  -7    3.40   10.00
  -5  -8  -7   11.20   11.10
   5   8   7    4.70    8.80
   5   8   7   17.40   17.40
  -6  -8  -7   23.40   11.70
   6   8   7   26.50   11.50
   6   8   7    7.50   24.40
  -7  -8  -7   34.50   13.20
   7   8   7   18.00   11.30
   7   8   7   12.50   23.70
  11  -9  -7   -1.10   10.30
 -11   9   7    9.40   14.80
  10  -9  -7   25.50   12.90
 -10   9   7    9.80   14.20
   9  -9  -7   33.10   14.00
  -9   9   7   11.40   14.20
   8  -9  -7   62.19   16.50
   8  -9  -7   58.79   13.10
  -8   9   7   49.10   18.10
   7  -9  -7    8.30    7.70
  -7   9   7    5.70    8.00
  -7   9   7    1.90   11.70
   6  -9  -7   32.80    9.90
  -6   9   7   81.29   21.20
  -6   9   7   57.99   14.50
   5  -9  -7   16.30   13.40
   5  -9  -7   15.20    7.70
  -5   9   7   53.19   13.00
   4  -9  -7    1.20   11.00
   4  -9  -7   -2.70    6.20
  -4   9   7    6.50    7.40
   3  -9  -7    6.00    7.30
   3  -9  -7   10.00   11.60
  -3   9   7   25.60   10.30
   2  -9  -7   50.59   13.50
   2  -9  -7   54.79   11.70
  -2   9   7   45.90   11.80
   1  -9  -7   18.80    9.90
   1  -9  -7    3.90    7.50
   1  -9  -7   15.40    9.90
  -1   9   7   23.00   10.00
   0  -9  -7   37.40   11.10
   0  -9  -7   30.90   12.20
   0  -9  -7   29.40    9.90
   0   9   7   44.00   11.40
  -1  -9  -7  137.19   14.80
  -1  -9  -7   91.09   15.00
  -1  -9  -7  121.19   18.90
   1   9   7  119.39   15.70
  -2  -9  -7    2.60   13.60
  -2  -9  -7   13.30    9.40
  -2  -9  -7   11.20    8.40
   2   9   7    3.50    7.80
  -3  -9  -7   28.20   10.70
  -3  -9  -7   38.50   12.20
   3   9   7   30.20   10.20
  -4  -9  -7   -3.40    9.30
  -4  -9  -7   16.90   10.80
   4   9   7   -2.00   17.20
   4   9   7    5.30    8.70
  -5  -9  -7  116.99   17.50
   5   9   7  112.59   26.40
   5   9   7  116.09   17.00
  -6  -9  -7    2.80   12.30
   6   9   7    2.00    9.60
   6   9   7   28.60   24.40
  10 -10  -7   23.20   14.10
   9 -10  -7   10.40   11.40
  -9  10   7  -13.90   11.30
   8 -10  -7    4.60   10.70
  -8  10   7    0.50   13.90
   7 -10  -7  147.49   16.90
   7 -10  -7  197.58   24.10
  -7  10   7  134.79   26.90
   6 -10  -7   45.90   12.50
   6 -10  -7  101.59   23.70
  -6  10   7   74.49   15.50
   5 -10  -7   37.40   10.10
   5 -10  -7   33.40   16.00
  -5  10   7   12.30   10.10
   4 -10  -7    8.10    6.70
   4 -10  -7   17.10   12.80
  -4  10   7   -3.40    8.40
   3 -10  -7   39.50   15.10
   3 -10  -7   10.40    8.30
  -3  10   7   11.80    9.50
   2 -10  -7    6.30    8.80
   2 -10  -7   11.00   11.40
  -2  10   7   13.30    9.80
   1 -10  -7   -5.30    9.20
   1 -10  -7   -2.10    8.80
  -1  10   7   10.30    8.50
   0 -10  -7  128.19   16.40
   0 -10  -7  118.69   18.80
   0  10   7  155.88   18.20
  -1 -10  -7   64.99   13.30
  -1 -10  -7   60.89   17.50
   1  10   7   95.59   15.80
  -2 -10  -7    8.50   14.80
  -2 -10  -7   15.30   10.40
   2  10   7    8.70    8.80
  -3 -10  -7   25.10   11.40
  -3 -10  -7   13.00   17.10
   3  10   7   37.60   12.20
  -4 -10  -7   68.49   14.50
   4  10   7   73.59   15.50
  -5 -10  -7   35.20   13.60
   5  10   7   14.10   10.40
   9 -11  -7   13.20   12.60
  -9  11   7   12.10   16.10
   8 -11  -7   79.09   19.60
   7 -11  -7    5.50   10.70
   7 -11  -7   29.70   20.40
   6 -11  -7   70.59   13.80
   6 -11  -7   67.59   22.20
  -6  11   7  105.79   18.90
   5 -11  -7    9.50    8.50
   5 -11  -7   12.60   14.60
  -5  11   7    8.40    9.80
   4 -11  -7    5.70   13.60
   4 -11  -7   -2.30    6.90
  -4  11   7   -5.40    9.00
   3 -11  -7   31.10   15.20
   3 -11  -7   21.40    9.50
  -3  11   7    7.90    9.10
   2 -11  -7   50.99   13.00
   2 -11  -7   65.69   20.80
  -2  11   7   79.39   16.80
   1 -11  -7   30.00   20.00
   1 -11  -7   20.10   11.80
  -1  11   7   10.00    9.70
   0 -11  -7   32.90   14.00
   0 -11  -7    2.90   17.40
   0  11   7    6.70    9.60
  -1 -11  -7   11.00   16.40
  -1 -11  -7   38.90   16.00
   1  11   7   49.40   13.70
  -2 -11  -7   15.80   11.50
  -2 -11  -7   16.00   16.60
   2  11   7   24.90   11.40
  -3 -11  -7   38.30   13.30
  -3 -11  -7   35.50   19.80
   3  11   7   54.39   14.80
   7 -12  -7   45.10   17.10
   7 -12  -7   30.50   20.20
   6 -12  -7    3.50    8.80
   6 -12  -7   37.20   16.10
   6 -12  -7   38.00   19.30
   5 -12  -7    7.30    9.00
   5 -12  -7    3.00   14.90
  -5  12   7   10.70   10.70
   4 -12  -7   75.69   21.30
   4 -12  -7   55.99   21.30
  -4  12   7   81.19   17.20
   3 -12  -7   33.90   16.50
   3 -12  -7   25.60   11.00
  -3  12   7   27.30   12.60
   2 -12  -7   -3.20    9.10
   2 -12  -7   -0.50   12.10
  -2  12   7   15.30   11.60
   1 -12  -7    8.00   14.10
   1 -12  -7   18.30   11.90
  -1  12   7   -7.70    9.40
   0 -12  -7   77.29   16.80
   0 -12  -7   80.69   17.90
   0  12   7  101.59   19.20
  -1 -12  -7    6.50   15.00
  -1 -12  -7   -4.90   10.40
   1  12   7    7.80   12.30
  -2 -15   8   -4.80   23.30
  -1 -15   8    5.70    4.80
  -1 -15   8   -8.90   22.40
  -1 -15   8    2.30    4.50
   0 -15   8   19.20    9.30
   0 -15   8   15.60    8.30
   0 -15   8   31.90   28.60
   1 -15   8   82.99   32.90
   1 -15   8   35.50   10.80
   1 -15   8   21.40   10.40
   2 -15   8    6.50   10.10
   2 -15   8   20.50   10.70
   2 -15   8   24.20   26.00
   3 -15   8   -1.10    8.90
   3 -15   8  -17.90   22.10
   4 -15   8   34.20   12.60
   4 -15   8    5.80   25.40
  -5 -14   8   -3.90   20.10
  -4 -14   8   21.80   23.10
  -3 -14   8   56.49   25.90
  -2 -14   8   -0.20   22.40
  -1 -14   8   88.59   10.10
  -1 -14   8  137.79   32.40
  -1 -14   8   90.79    9.00
   0 -14   8   32.70    8.90
   0 -14   8   21.30    8.20
   0 -14   8   17.20   21.70
   1 -14   8    9.50    7.90
   1 -14   8   11.70    8.70
   1 -14   8   -1.00   21.20
   2 -14   8    5.10   22.80
   2 -14   8    0.50    8.40
   3 -14   8   99.59   16.20
   3 -14   8  119.49   32.90
   3 -14   8  132.49   17.40
   4 -14   8   30.00   24.60
   4 -14   8   41.70   13.40
   5 -14   8   28.80   13.10
   5 -14   8   25.00   24.70
   6 -14   8   17.00   23.00
   6 -14   8   20.20   12.50
  -7 -13   8   20.60   22.70
  -6 -13   8   46.40   22.50
  -5 -13   8    7.70   21.50
  -4 -13   8   75.69   27.60
  -3 -13   8   22.20   22.00
  -2 -13   8  229.78   37.10
  -1 -13   8   41.90   26.40
   0 -13   8   -4.70    6.10
   0 -13   8  -19.50   16.60
   0 -13   8   -6.80    6.10
   1 -13   8   13.40    8.40
   1 -13   8    6.50    7.30
   1 -13   8    0.90   20.60
   2 -13   8  120.19   14.80
   2 -13   8  105.49   14.80
   2 -13   8  154.88   34.60
   3 -13   8   32.10   22.90
   3 -13   8    1.70    7.90
   3 -13   8    6.60    7.90
   4 -13   8   12.10    9.10
   4 -13   8  -18.10   17.50
   5 -13   8   32.60   12.10
   5 -13   8   58.49   27.40
   6 -13   8   -6.70   18.60
   6 -13   8   19.10   12.80
   7 -13   8   15.10   21.40
   7 -13   8   32.10   13.20
   8 -13   8   24.80   27.60
   8 -13   8   -1.50    9.70
  -8 -12   8   23.00   22.00
  -7 -12   8   41.30   22.20
  -6 -12   8   -3.30   17.20
  -5 -12   8   76.49   26.10
  -4 -12   8  127.59   29.40
  -3 -12   8   72.99   31.50
  -2 -12   8   12.40   20.20
  -1 -12   8  118.69   26.90
  -1 -12   8   84.09    9.20
  -1 -12   8   70.49    9.70
   0 -12   8   52.59    9.30
   0 -12   8   97.09   28.70
   0 -12   8   40.90    8.80
   1 -12   8   25.30    8.10
   1 -12   8   29.20   21.40
   2 -12   8   18.30    8.10
   2 -12   8   19.40    9.00
   2 -12   8   14.80   20.90
   3 -12   8    9.30    7.90
   3 -12   8    4.40    8.40
   3 -12   8   11.30   22.00
   4 -12   8   58.09   12.60
   4 -12   8   90.59   29.10
   4 -12   8   66.29   13.60
   5 -12   8    1.50    8.00
   5 -12   8   35.00   25.70
   6 -12   8  102.89   18.40
   6 -12   8  125.89   34.70
   7 -12   8   15.30   24.10
   7 -12   8    6.20    9.60
  -8  12  -8    3.80   22.30
   8 -12   8   32.80   13.30
  -9  12  -8    0.40   25.10
   9 -12   8    0.90    9.50
  -9 -11   8   -9.40   17.80
  -8 -11   8   43.60   23.30
  -7 -11   8   19.30   17.90
  -6 -11   8   26.10   18.40
  -5 -11   8   29.00   30.10
  -4 -11   8   32.30   19.70
  -3 -11   8   17.20   19.30
  -2 -11   8  139.09    8.70
  -2 -11   8  146.69   31.10
  -2 -11   8  148.99    8.20
  -1 -11   8   76.79   22.90
  -1 -11   8   51.99    7.90
  -1 -11   8   52.09    8.00
   0 -11   8   11.00   18.20
   0 -11   8   -4.10    5.10
   0 -11   8    1.80    5.20
   1 -11   8   15.30    7.50
   1 -11   8   -2.70    5.70
   1 -11   8   18.30   20.80
   2 -11   8  139.99   30.20
   2 -11   8   81.89   12.50
  -3  11  -8   90.49   15.90
   3 -11   8  111.59   14.50
   3 -11   8  128.99   33.20
  -4  11  -8   13.80   10.00
   4 -11   8   32.00   22.40
   4 -11   8   20.20    9.50
   5 -11   8   91.49   28.20
   5 -11   8   71.29   15.10
   6 -11   8   25.40   11.40
   6 -11   8  -13.30   17.60
  -7  11  -8   50.49   26.80
  -8  11  -8   66.09   29.50
   8 -11   8   65.69   15.50
  -9  11  -8   57.39   28.70
   9 -11   8   42.00   14.40
 -10  11  -8   32.40   25.80
  10 -11   8   23.50   12.50
 -10 -10   8   -3.10   17.90
  -9 -10   8  146.19   29.80
  -8 -10   8   -6.80   17.80
  -7 -10   8   28.40   19.20
  -6 -10   8   27.80   18.90
  -5 -10   8   40.00   20.10
  -4 -10   8  150.58   31.10
  -3 -10   8  209.68   29.50
  -2 -10   8   28.50   17.60
  -2 -10   8   23.70    4.20
  -2 -10   8   29.20    4.60
  -1 -10   8   29.40    5.90
  -1 -10   8   24.30    5.80
  -1 -10   8   56.59   21.70
   0 -10   8  119.09   34.90
   0 -10   8  112.49   11.20
   0 -10   8  120.09   26.70
  -1  10  -8  204.78   16.50
   1 -10   8  136.09   44.20
   1 -10   8  124.19   26.70
   1 -10   8  173.58   14.90
  -2  10  -8   79.49   12.90
   2 -10   8   72.99   11.50
   2 -10   8   89.99   24.20
  -3  10  -8   60.49   11.90
   3 -10   8   71.79   12.80
   3 -10   8   57.09   22.90
  -4  10  -8   15.10    9.40
   4 -10   8   23.70   19.30
   4 -10   8   26.10    9.20
  -5  10  -8   21.70   10.40
   5 -10   8   36.00   21.70
   5 -10   8   17.60    9.40
  -6  10  -8   18.80   19.10
   6 -10   8   14.80   10.10
  -7  10  -8    6.80   18.80
   7 -10   8   -0.30    8.50
  -8  10  -8   13.50   20.90
   8 -10   8   -4.50    8.70
  -9  10  -8   -3.70   20.30
   9 -10   8   -4.60    8.20
 -10  10  -8   56.29   28.80
  10 -10   8   12.70   11.20
 -11  -9   8   54.49   23.00
 -10  -9   8  165.38   28.10
  -9  -9   8    6.40   17.80
  -8  -9   8   21.30   16.80
  -7  -9   8   44.50   19.40
  -6  -9   8   85.09   22.50
  -5  -9   8    4.50   14.40
  -4  -9   8   29.90   17.10
   3   9  -8  125.59   27.30
  -3  -9   8  104.29   23.80
   2   9  -8   29.60   16.70
  -2  -9   8   51.89   18.00
  -2  -9   8   52.09    6.00
   1   9  -8  255.07   28.70
   1   9  -8  225.58   14.30
  -1  -9   8  190.78   13.00
  -1  -9   8  209.08   27.80
   0   9  -8   77.79   10.70
   0  -9   8   68.99   21.30
   0  -9   8   76.19    9.60
   0  -9   8  122.79   26.40
  -1   9  -8  501.25   26.80
   1  -9   8  396.66   38.40
   1  -9   8  462.45   39.60
   1  -9   8  454.95   25.20
  -2   9  -8    5.00    6.60
   2  -9   8    0.50    9.60
   2  -9   8    1.50   11.70
   2  -9   8    6.60   12.40
  -3   9  -8  123.99   15.00
   3  -9   8  129.79   27.00
   3  -9   8  127.19   25.00
   3  -9   8  131.79   14.20
   4  -9   8    4.70    6.40
   4  -9   8    9.10   15.00
  -5   9  -8  106.49   16.80
  -5   9  -8  110.39   29.50
   5  -9   8   95.99   14.60
  -6   9  -8   30.10   21.10
   6  -9   8   17.40    9.10
  -7   9  -8   -5.80   15.40
   7  -9   8    3.80    8.80
  -8   9  -8    8.50   18.10
  -9   9  -8  109.69   30.30
   9  -9   8  136.99   19.70
 -10   9  -8   -3.90   17.60
  10  -9   8  -13.40    7.00
 -11   9  -8   46.40   27.20
  11  -9   8   59.59   16.00
 -11  -8   8    8.20   15.70
 -10  -8   8   -6.70   14.30
  -9  -8   8   -1.70   13.20
  -8  -8   8   -3.60   15.50
  -7  -8   8    7.00   13.80
  -6  -8   8  204.98   26.30
   5   8  -8   28.10   17.90
  -5  -8   8   14.70   13.40
   4   8  -8  103.49   24.70
  -4  -8   8  131.29   23.60
   3   8  -8   80.39   20.50
  -3  -8   8  157.48   22.90
   2   8  -8  230.28   12.60
  -2  -8   8  205.08   11.70
  -2  -8   8  231.78   26.80
   1   8  -8   10.10    4.70
   1   8  -8    4.30   11.20
  -1  -8   8  -22.40    8.10
  -1  -8   8   23.00    5.00
   0   8  -8  171.88   13.80
   0  -8   8  199.78   26.10
   0  -8   8  185.88   13.30
   0  -8   8  163.78   25.20
  -1   8  -8   29.00    7.60
   1  -8   8   33.00   16.50
   1  -8   8   16.00   12.70
  -2   8  -8  146.69   15.20
   2  -8   8  178.98   15.00
   2  -8   8  208.88   26.60
  -3   8  -8    3.40    6.10
   3  -8   8    8.70   11.40
   3  -8   8    2.10   12.50
   3  -8   8   24.20    8.50
  -4   8  -8  173.38   27.60
  -4   8  -8  119.09   15.50
   4  -8   8  107.09   13.70
   4  -8   8  109.39   22.10
  -5   8  -8   42.90   11.40
  -5   8  -8   29.40   18.80
   5  -8   8   40.50   14.70
   5  -8   8   54.39   11.40
  -6   8  -8   71.49   22.80
  -6   8  -8   29.70   20.30
   6  -8   8   97.59   14.70
  -7   8  -8   32.30   20.20
   7  -8   8   14.70    9.40
  -8   8  -8  115.39   30.20
   8  -8   8   87.99   16.40
  -9   8  -8    8.00   19.50
   9  -8   8    6.10    9.40
 -10   8  -8   -8.10   19.20
  10  -8   8   11.00   10.10
 -11   8  -8  -23.80   18.30
  11  -8   8    7.50    9.40
  12   7  -8   29.00    6.70
  12   7  -8   29.20    6.80
 -12  -7   8   44.70   18.60
  11   7  -8   -4.90    4.40
  11   7  -8   -2.10    4.10
 -11  -7   8   22.70   17.50
  10   7  -8    6.90    3.90
  10   7  -8    5.80    3.50
 -10  -7   8    7.40   13.70
  -9  -7   8    3.00   25.60
  -8  -7   8   50.99   17.90
  -7  -7   8   18.30   13.50
   6   7  -8    1.90   12.50
  -6  -7   8    5.80   11.50
   5   7  -8  130.79   25.80
  -5  -7   8  121.59   22.00
  -4  -7   8  288.27   27.60
   3   7  -8    7.00    3.00
   3   7  -8   11.30   11.50
  -3  -7   8    4.20    2.60
  -3  -7   8   22.80   14.00
   2   7  -8    4.30    3.60
   2   7  -8    2.00    9.50
  -2  -7   8    9.90    3.70
  -2  -7   8    3.90   10.50
   1   7  -8  210.08   13.30
   1   7  -8  194.28   23.90
  -1  -7   8  182.68   12.30
  -1  -7   8  259.37   26.10
   0   7  -8   81.29   11.50
   0  -7   8   81.09   20.80
   0  -7   8   70.59   19.50
   0  -7   8   93.99    9.20
  -1   7  -8   18.00    6.50
   1  -7   8   33.20   16.00
   1  -7   8   30.60   16.20
   1  -7   8   20.20    6.20
  -2   7  -8  210.08   16.50
   2  -7   8  223.48   16.40
   2  -7   8  222.48   25.10
   2  -7   8  189.48   24.90
  -3   7  -8    9.20    6.70
   3  -7   8   29.30   16.20
   3  -7   8   11.20    6.50
   3  -7   8   26.20   12.70
  -4   7  -8   18.40   13.50
  -4   7  -8    4.50    6.40
   4  -7   8   33.90    9.40
  -5   7  -8  198.38   33.60
  -5   7  -8  169.08   17.60
   5  -7   8  172.78   17.00
   5  -7   8  195.18   22.40
  -6   7  -8   -2.00    7.50
  -6   7  -8    6.90   14.60
   6  -7   8   12.40   11.40
   6  -7   8    2.20    7.20
  -7   7  -8  216.38   31.30
   7  -7   8  223.48   21.10
  -8   7  -8   -1.70   14.80
   8  -7   8   20.60    8.60
   9  -7   8   85.89   16.50
 -10   7  -8    4.60   17.10
  10  -7   8   -6.20    8.00
 -11   7  -8   65.69   27.40
  11  -7   8  118.39   21.40
 -12   7  -8    2.50   19.30
  12  -7   8   -6.40    8.10
  12   6  -8    6.00    7.40
  12   6  -8   11.10    7.50
 -12  -6   8    5.50   15.00
  11   6  -8   12.90    6.80
  11   6  -8    6.20    6.10
 -11  -6   8    5.20   13.80
  10   6  -8   18.20    6.60
  10   6  -8    6.80    6.60
 -10  -6   8   43.70   16.00
   9   6  -8   22.40    5.60
   9   6  -8   31.80    6.30
  -9  -6   8   23.10   13.70
   8   6  -8   52.39    7.00
   8   6  -8   50.59    6.30
  -8  -6   8   57.29   17.10
   7   6  -8   21.30    4.10
   7   6  -8    1.90   11.90
   7   6  -8   33.60    5.20
  -7  -6   8   59.19   17.80
   6   6  -8  433.06   18.50
   6   6  -8  390.76   17.90
   6   6  -8  465.25   37.00
  -6  -6   8  410.76   31.80
   5   6  -8   96.59   21.80
   5   6  -8  132.79    7.70
  -5  -6   8  168.88   20.20
   4   6  -8   51.49   16.00
   4   6  -8   43.90    5.10
  -4  -6   8   54.39    5.10
  -4  -6   8   55.69   16.00
   3   6  -8   21.30   12.40
   3   6  -8   33.30    5.20
  -3  -6   8   24.10   11.90
  -3  -6   8   40.60    5.00
   2   6  -8  508.85   36.30
   2   6  -8  555.74   24.90
  -2  -6   8  550.64   36.90
  -2  -6   8  535.05   24.00
   1   6  -8  133.89   23.40
   1   6  -8  107.29    9.50
  -1  -6   8   96.59    8.60
   0   6  -8  159.58   17.40
   0  -6   8  126.79   11.00
   0  -6   8  156.98   24.20
   0  -6   8  170.38   22.20
  -1   6  -8   21.40    6.70
   1  -6   8   41.80   15.30
   1  -6   8   32.30    7.60
  -2   6  -8   59.39    9.70
   2  -6   8   63.89   10.20
   2  -6   8   77.39   20.10
   2  -6   8   49.30   14.90
  -3   6  -8   12.90    6.90
  -3   6  -8   14.30   13.40
   3  -6   8   10.30    8.80
   3  -6   8   14.40    6.40
  -4   6  -8  490.25   38.80
  -4   6  -8  452.15   27.90
   4  -6   8  426.86   31.50
   4  -6   8  454.35   27.00
  -5   6  -8    1.20   12.40
  -5   6  -8   -0.70    9.80
   5  -6   8   21.70    8.50
   5  -6   8   -4.60    9.70
  -6   6  -8   26.90   16.50
  -6   6  -8   21.50    9.50
   6  -6   8    8.20    9.40
   6  -6   8   22.50    8.90
  -7   6  -8   15.60   14.80
   7  -6   8  -10.30   13.70
   7  -6   8   30.20   10.50
  -8   6  -8  378.36   37.30
   8  -6   8  268.87   24.30
  -9   6  -8    0.70   16.70
   9  -6   8  -10.10    8.40
 -10   6  -8   84.29   28.70
  10  -6   8  123.69   18.60
 -11   6  -8   16.90   19.70
  11  -6   8   -6.50    9.30
 -12   6  -8   47.30   25.50
  12  -6   8   57.49   16.70
  13   5  -8    6.90    8.90
  13   5  -8   15.50    9.40
 -13  -5   8   35.30   17.30
  12   5  -8  128.29   14.80
  12   5  -8  109.99   14.30
 -12  -5   8  171.38   24.10
  11   5  -8   44.80    9.60
  11   5  -8   20.00    8.20
 -11  -5   8   50.09   16.70
  10   5  -8    7.40    6.20
 -10  -5   8   39.50   15.30
   9   5  -8   -3.50    4.80
   9   5  -8    3.90    4.90
  -9  -5   8   10.60   11.60
   8   5  -8  128.79   10.50
   8   5  -8  139.09   11.60
  -8  -5   8  141.29   20.10
   7   5  -8  262.57   14.80
   7   5  -8  254.37   27.80
   7   5  -8  232.98   13.80
  -7  -5   8  273.17   24.90
   6   5  -8    8.40    4.10
   6   5  -8    9.70    3.90
   6   5  -8   10.50   12.40
  -6  -5   8    8.70   10.50
   5   5  -8   87.79    7.10
   5   5  -8  123.69   23.60
  -5  -5   8  121.59   17.00
  -5  -5   8   86.39    7.40
   4   5  -8   11.40    9.00
   4   5  -8    8.60    3.10
  -4  -5   8   33.50   12.60
   3   5  -8  283.47   14.50
   3   5  -8  220.08   23.40
  -3  -5   8  286.67   24.00
  -3  -5   8  279.67   14.20
   2   5  -8   54.39   15.10
   2   5  -8   69.59    7.40
  -2  -5   8   60.79    6.70
  -2  -5   8   76.19   16.70
   1   5  -8  435.96   22.40
   1   5  -8  449.76   31.40
  -1  -5   8  476.05   32.30
  -1  -5   8  454.95   21.90
   0   5  -8   13.50    6.20
   0  -5   8   19.10    5.40
   0  -5   8   20.20   11.80
   0  -5   8   35.40   13.20
  -1   5  -8  186.78   13.90
   1  -5   8  181.38   13.50
   1  -5   8  181.38   21.40
   1  -5   8  187.28   21.30
  -2   5  -8   27.20    7.30
   2  -5   8   32.80   12.70
   2  -5   8   33.40    8.00
   2  -5   8   20.20   13.90
  -3   5  -8  738.43   36.90
   3  -5   8  695.23   40.60
  -4   5  -8    6.40   12.80
  -4   5  -8    1.70    5.50
   4  -5   8   -7.60    4.50
   4  -5   8  -11.60    6.80
  -5   5  -8  174.98   17.30
  -5   5  -8  191.78   24.70
   5  -5   8  188.18   16.80
   5  -5   8  158.58   18.20
  -6   5  -8   41.30   17.80
  -6   5  -8   11.00    7.70
   6  -5   8   18.10   11.10
   6  -5   8   25.40    9.00
  -7   5  -8   73.29   20.00
   7  -5   8   54.59   13.90
   7  -5   8   29.30   10.10
  -8   5  -8   -1.80   13.90
   8  -5   8   -1.00    7.30
  -9   5  -8    1.10   15.70
   9  -5   8   39.30   13.30
 -10   5  -8   10.90   18.10
  10  -5   8   -2.20    8.70
 -11   5  -8   25.90   21.00
  11  -5   8   18.60   11.50
 -12   5  -8   15.80   20.50
  12  -5   8    2.90    9.80
  13   4  -8   56.09   13.60
  13   4  -8   41.90   10.90
 -13  -4   8   78.79   19.70
  12   4  -8   14.00    8.40
  12   4  -8    3.00    7.30
 -12  -4   8   28.40   14.70
  11   4  -8    1.00    6.30
  11   4  -8    9.00    7.00
 -11  -4   8   -3.40   11.90
  10   4  -8    4.90    6.30
  10   4  -8   -5.30    5.30
 -10  -4   8   -9.00   10.30
   9   4  -8   92.99   10.90
   9   4  -8  111.99   12.30
  -9  -4   8   82.49   17.20
   8   4  -8    6.90    4.50
   8   4  -8   11.10    6.00
   8   4  -8    3.70   11.20
  -8  -4   8   -8.40    8.90
   7   4  -8   17.60    7.80
   7   4  -8   17.20    5.40
   7   4  -8   20.30   12.70
  -7  -4   8   15.00    9.90
   6   4  -8   12.60    4.30
   6   4  -8   10.40    9.50
  -6  -4   8   -0.60    3.80
  -6  -4   8   19.50   10.30
   5   4  -8  270.77   25.00
   5   4  -8  252.37   14.90
  -5  -4   8  331.37   16.40
  -5  -4   8  334.17   24.10
   4   4  -8  123.39   17.90
   4   4  -8  174.58   10.70
  -4  -4   8  171.78   17.90
  -4  -4   8  177.68   11.10
   3   4  -8   47.30    5.90
   3   4  -8   20.30   11.10
  -3  -4   8   43.60   12.70
  -3  -4   8   32.00    5.60
   2   4  -8  265.57   23.20
   2   4  -8  291.57   15.80
  -2  -4   8  286.37   15.40
  -2  -4   8  281.97   23.00
   1   4  -8  248.18   22.00
   1   4  -8  253.27   14.80
  -1  -4   8  233.28   14.20
  -1  -4   8  241.48   21.50
   0   4  -8  230.38   14.90
   0  -4   8  192.98   21.40
   0  -4   8  218.98   14.00
   0  -4   8  213.58   21.30
  -1   4  -8   15.10    6.60
   1  -4   8   22.80   11.70
   1  -4   8   21.30   11.40
   1  -4   8   16.70    6.00
  -2   4  -8    4.90    4.70
  -2   4  -8   -7.40   10.10
   2  -4   8   -1.10    8.00
   2  -4   8    1.10    4.50
  -3   4  -8   12.10   12.00
  -3   4  -8    0.70    5.30
   3  -4   8    4.70    5.40
   3  -4   8   18.30    9.40
  -4   4  -8  213.38   17.50
  -4   4  -8  218.78   27.70
   4  -4   8  217.68   17.10
   4  -4   8  218.88   19.00
  -5   4  -8   -0.70    4.60
  -5   4  -8  -14.90    7.70
   5  -4   8   -3.80    6.10
   5  -4   8    1.10    6.40
  -6   4  -8   35.90   15.30
  -6   4  -8   52.99   12.60
   6  -4   8   44.00   11.70
   6  -4   8   66.79   13.70
  -7   4  -8   -3.60    6.60
  -7   4  -8   -4.60   11.20
   7  -4   8   11.00    7.90
   7  -4   8    4.30    7.30
  -8   4  -8    4.20   13.80
   8  -4   8   12.90    8.50
  -9   4  -8    1.80   13.90
   9  -4   8    9.30    8.90
 -10   4  -8   14.20   16.30
  10  -4   8   -5.00    8.90
 -11   4  -8   33.20   19.10
  11  -4   8    0.50    9.00
 -12   4  -8   27.50   17.80
  12  -4   8   46.60   15.20
  14   3  -8   22.90   11.70
 -14  -3   8   20.30   15.00
  13   3  -8   -6.20    8.90
  13   3  -8   -8.10    6.70
 -13  -3   8   13.40   12.70
  12   3  -8   10.80    9.10
  12   3  -8    6.20    8.40
 -12  -3   8   10.40   11.10
  11   3  -8   47.40   10.30
  11   3  -8   55.79   12.40
  10   3  -8    5.70    5.70
  10   3  -8   13.60    7.00
 -10  -3   8   13.30   12.60
   9   3  -8    7.60    5.90
   9   3  -8    3.20    6.00
  -9  -3   8    7.70    9.60
   8   3  -8   -1.10    5.30
   8   3  -8   -1.80    4.20
   8   3  -8    1.60   11.30
  -8  -3   8   -4.00    8.40
   7   3  -8  226.58   24.00
   7   3  -8  273.27   16.10
   7   3  -8  240.88   16.80
  -7  -3   8  245.48   21.60
   6   3  -8   76.19   16.90
   6   3  -8   84.39    8.50
  -6  -3   8   69.69    8.90
  -6  -3   8   98.69   14.40
   5   3  -8 1133.49   47.90
   5   3  -8 1165.28   57.69
  -5  -3   8 1182.28   48.70
  -5  -3   8 1124.09   54.29
   4   3  -8  110.69   15.30
   4   3  -8   88.19    8.10
  -4  -3   8   95.09   13.70
  -4  -3   8   97.49    8.80
   3   3  -8 1443.36   66.79
   3   3  -8 1446.96   58.39
  -3  -3   8 1444.26   58.59
  -3  -3   8 1423.26   64.39
   2   3  -8   23.30    5.40
   2   3  -8   24.70   10.90
  -2  -3   8   13.20    4.80
  -2  -3   8   21.30    9.50
   1   3  -8  159.88   11.30
   1   3  -8  157.38   17.00
  -1  -3   8  158.08   16.40
  -1  -3   8  136.59   10.60
   0   3  -8  124.09   10.80
   0  -3   8  132.19   10.70
   0  -3   8  139.49   17.20
   0  -3   8  145.19   16.40
  -1   3  -8    6.60    4.90
   1  -3   8   19.40   11.20
   1  -3   8   16.40    9.70
   1  -3   8    4.70    4.20
  -2   3  -8   29.90    7.80
  -2   3  -8   33.10   13.50
   2  -3   8   22.20    9.40
   2  -3   8   24.90    7.00
  -3   3  -8  599.14   32.30
  -3   3  -8  619.34   37.80
   3  -3   8  626.04   32.50
   3  -3   8  658.33   34.10
  -4   3  -8   16.00   11.20
  -4   3  -8    9.10    7.00
   4  -3   8   16.50    7.00
   4  -3   8   20.20    8.70
  -5   3  -8  205.08   17.80
  -5   3  -8  244.48   24.00
   5  -3   8  192.88   17.20
   5  -3   8  197.28   16.90
  -6   3  -8   -3.90    5.40
  -6   3  -8  -12.00    8.80
   6  -3   8    9.10    7.20
   6  -3   8    2.60    7.10
  -7   3  -8  390.66   28.50
  -7   3  -8  437.46   33.70
   7  -3   8  370.56   26.70
   7  -3   8  437.16   30.80
  -8   3  -8   12.70   13.50
   8  -3   8    6.20    9.30
   8  -3   8    4.80    7.90
  -9   3  -8  131.59   26.40
   9  -3   8   99.19   16.00
 -10   3  -8   -4.10   12.70
  10  -3   8   -1.80    7.50
 -11   3  -8   50.59   22.30
  11  -3   8   53.19   15.90
 -12   3  -8   25.00   20.90
  12  -3   8   22.30   13.40
  14   2  -8   23.00   12.50
 -14  -2   8    3.10   12.70
  13   2  -8    9.40    9.20
 -13  -2   8   17.60   12.20
  12   2  -8   85.49   15.90
  12   2  -8   52.89   11.90
 -12  -2   8  107.29   21.60
  11   2  -8    4.90    8.00
  11   2  -8    9.40    7.20
 -11  -2   8   13.30   12.40
  10   2  -8    8.00    7.60
  10   2  -8   13.00    7.00
 -10  -2   8   24.10   12.00
   9   2  -8   77.79   11.50
   9   2  -8   68.69   17.50
   9   2  -8  114.99   14.20
  -9  -2   8   81.59   16.00
   8   2  -8  445.56   25.00
   8   2  -8  461.55   33.40
   8   2  -8  443.46   26.30
  -8  -2   8  438.56   29.50
   7   2  -8    4.50    4.50
   7   2  -8    3.90    8.20
  -7  -2   8    3.10    4.50
  -7  -2   8   -7.40    7.30
   6   2  -8  270.77   16.50
   6   2  -8  238.48   22.30
  -6  -2   8  280.37   23.60
  -6  -2   8  276.67   17.20
   5   2  -8   17.30    5.00
   5   2  -8   -0.40    7.50
  -5  -2   8    5.50    5.10
  -5  -2   8    4.50    7.50
   4   2  -8  577.84   33.40
   4   2  -8  634.54   29.00
  -4  -2   8  583.24   28.00
  -4  -2   8  564.24   31.30
   3   2  -8   26.20    8.20
  -3  -2   8   29.50    6.20
  -3  -2   8   12.70    7.40
   2   2  -8  317.87   22.10
  -2  -2   8  307.67   20.50
  -2  -2   8  334.27   17.60
   1   2  -8    8.10    7.70
   1   2  -8   13.30    4.90
  -1  -2   8    1.20    3.70
  -1  -2   8   12.40    8.10
   0   2  -8  177.38   13.00
   0  -2   8  183.68   16.60
   0  -2   8  185.68   16.90
   0  -2   8  180.58   13.00
  -1   2  -8   36.80    7.60
   1  -2   8   27.40    6.50
   1  -2   8   48.20   10.60
   1  -2   8   39.40   11.20
  -2   2  -8  450.25   24.70
  -2   2  -8  409.76   28.40
   2  -2   8  446.36   24.80
   2  -2   8  447.46   24.10
  -3   2  -8    3.90    5.80
  -3   2  -8    7.80    9.20
   3  -2   8    6.00    5.80
   3  -2   8    7.70    6.10
  -4   2  -8   87.69   11.60
  -4   2  -8   97.19   16.10
   4  -2   8   99.89   11.50
   4  -2   8  114.59   12.00
  -5   2  -8   77.09   11.80
  -5   2  -8   81.69   17.20
   5  -2   8  110.19   12.60
   5  -2   8   91.39   11.90
  -6   2  -8    7.90    7.40
  -6   2  -8   56.89   15.10
   6  -2   8   23.50    8.90
   6  -2   8   22.30    8.80
  -7   2  -8   25.20   12.80
  -7   2  -8   22.00    9.70
   7  -2   8   19.70    9.70
   7  -2   8   12.10    8.90
  -8   2  -8  413.06   32.90
   8  -2   8  339.47   26.10
   8  -2   8  363.86   26.80
  -9   2  -8   -7.90   10.60
   9  -2   8   -0.50    7.50
 -10   2  -8   36.30   17.40
  10  -2   8   55.29   16.30
 -11   2  -8  -10.10   14.30
  11  -2   8    5.60    9.10
 -12   2  -8   45.20   21.00
  12  -2   8   53.79   15.90
  14   1  -8   68.09   22.40
 -14  -1   8   39.60   16.90
  13   1  -8   32.40   12.30
 -13  -1   8   50.09   17.10
  12   1  -8   -4.40    7.90
 -12  -1   8   10.20   11.60
  11   1  -8   -2.60    7.00
  11   1  -8    6.40    7.20
 -11  -1   8    2.10   10.20
  10   1  -8   88.89   14.50
 -10  -1   8   73.89   17.70
   9   1  -8  489.35   28.20
   9   1  -8  480.35   35.60
   9   1  -8  502.35   30.20
  -9  -1   8  476.35   31.70
   8   1  -8   -2.80    8.70
   8   1  -8   15.60    6.50
   8   1  -8    6.70    6.50
  -8  -1   8   14.20    8.90
   7   1  -8    5.20    7.60
   7   1  -8   -2.30    4.30
  -7  -1   8    2.40    4.80
  -7  -1   8   -3.30    6.10
   6   1  -8   20.50    6.30
   6   1  -8   15.60    8.40
  -6  -1   8   18.40    5.90
  -6  -1   8   25.90    9.00
   5   1  -8   43.90    7.90
   5   1  -8   60.49   13.50
  -5  -1   8   67.39   12.50
  -5  -1   8   49.30    8.80
   4   1  -8   38.20   10.10
   4   1  -8   24.10    5.80
  -4  -1   8   38.00    7.50
  -4  -1   8   32.10    8.50
   3   1  -8   10.80    7.50
   3   1  -8    3.60    4.10
  -3  -1   8    1.40    6.20
  -3  -1   8   -1.10    4.40
   2   1  -8   -2.60    3.20
   2   1  -8   11.70    7.20
  -2  -1   8    5.50    4.20
  -2  -1   8   -3.80    5.30
   1   1  -8  222.78   14.40
   1   1  -8  222.18   16.40
  -1  -1   8  241.98   15.60
  -1  -1   8  240.88   14.70
   0   1  -8   -4.70    3.10
   0  -1   8    4.50    6.10
   0  -1   8    4.00    4.10
   0  -1   8    9.60    6.10
  -1   1  -8  135.39   11.70
   1  -1   8  123.89   11.20
   1  -1   8  131.09   11.40
   1  -1   8  145.09   14.00
  -2   1  -8   16.80    6.00
  -2   1  -8    3.10    7.70
   2  -1   8    7.30    4.90
   2  -1   8    5.30    5.10
  -3   1  -8   24.80    7.40
  -3   1  -8    5.20    8.70
   3  -1   8   28.30    7.20
  -4   1  -8   -3.30    4.30
  -4   1  -8   -2.50    7.10
   4  -1   8   -0.60    4.70
   4  -1   8    7.00    5.50
  -5   1  -8   32.90   11.30
  -5   1  -8   59.79   11.90
   5  -1   8   51.99   11.60
   5  -1   8   58.89   11.40
  -6   1  -8   -7.20    7.90
  -6   1  -8    2.10    7.30
   6  -1   8   13.40    8.00
   6  -1   8   -4.90    5.50
  -7   1  -8   47.80   12.20
   7  -1   8   81.29   13.40
   7  -1   8   80.49   14.00
  -8   1  -8   26.10   12.90
   8  -1   8    1.30    9.30
   8  -1   8   -1.30    6.70
  -9   1  -8   81.79   20.20
   9  -1   8  104.39   15.80
 -10   1  -8   25.30   16.50
  10  -1   8   49.90   21.30
 -11   1  -8   23.00   18.80
  11  -1   8    4.30    8.90
 -12   1  -8   -6.30   15.40
  12  -1   8   -2.50   10.20
  14   0  -8   -0.30    9.50
 -14   0   8  -14.90   10.30
  13   0  -8   10.60   10.40
 -13   0   8   -1.30    9.50
  12   0  -8  336.77   27.80
 -12   0   8  306.37   27.90
  11   0  -8  101.99   20.40
  11   0  -8   85.69   17.00
 -11   0   8  127.99   18.80
  10   0  -8   66.29   14.70
  10   0  -8   50.49   11.70
 -10   0   8   53.69   15.60
   9   0  -8    8.50    7.20
   9   0  -8   14.80   10.90
   9   0  -8   30.40    9.70
  -9   0   8   28.50   11.40
   8   0  -8  111.59   19.30
   8   0  -8   73.89   10.80
  -8   0   8   80.19   13.60
  -8   0   8  110.29   12.50
   7   0  -8   -0.70    3.70
   7   0  -8   -2.00    6.20
  -7   0   8   -2.40    6.20
  -7   0   8   -3.80    4.00
   6   0  -8   57.09   13.10
   6   0  -8   43.70    9.30
  -6   0   8   56.29    9.90
  -6   0   8   65.09   11.80
   5   0  -8   27.10    6.50
   5   0  -8   35.30    9.40
  -5   0   8   32.70    7.60
  -5   0   8   58.19   10.40
   4   0  -8  108.89   10.30
   4   0  -8  137.59   13.20
  -4   0   8  110.29   10.80
  -4   0   8  104.39   11.00
   3   0  -8    3.20    5.70
   3   0  -8    3.10    3.70
  -3   0   8    0.40    4.30
  -3   0   8    4.10    4.60
   2   0  -8  361.56   20.20
   2   0  -8  381.06   20.60
  -2   0   8  378.46   18.70
  -2   0   8  364.06   20.30
   1   0  -8   46.50    8.10
   1   0  -8   51.79    8.40
  -1   0   8   65.19    7.20
  -1   0   8   55.29    7.80
   0   0  -8 2061.69   82.99
   0   0   8 2067.59   82.79
   0   0   8 2037.00   80.29
   0   0   8 2007.30   79.49
  -1   0  -8    6.90    4.30
   1   0   8   -0.20    3.70
   1   0   8    5.20    5.00
  -2   0  -8  826.52   38.70
  -2   0  -8  818.82   38.60
   2   0   8  815.52   38.30
   2   0   8  801.72   34.70
  -3   0  -8   31.50    9.40
  -3   0  -8   23.10    7.00
   3   0   8   24.40    6.40
   3   0   8   17.50    6.20
  -4   0  -8  545.15   29.90
  -4   0  -8  508.25   29.40
   4   0   8  510.75   26.50
   4   0   8  533.75   28.80
  -5   0  -8   13.90    7.60
  -5   0  -8   19.40    9.50
   5   0   8    3.20    5.70
   5   0   8    2.10    5.40
  -6   0  -8  258.57   22.30
  -6   0  -8  259.47   21.00
   6   0   8  260.07   20.20
   6   0   8  209.98   18.80
  -7   0  -8   19.70   10.20
  -7   0  -8   38.00   13.90
   7   0   8   25.30    9.20
   7   0   8   27.40   11.80
  -8   0  -8  138.29   20.00
   8   0   8  103.39   17.50
   8   0   8  105.59   17.60
  -9   0  -8   12.10   12.40
   9   0   8   26.10   11.10
 -10   0  -8   14.60   15.70
 -11   0  -8    9.80   16.00
  11   0   8    3.80   10.30
 -12   0  -8   28.50   18.70
  12   0   8   15.80   12.20
  14  -1  -8   21.80   13.40
 -14   1   8   14.90   13.50
  13  -1  -8  111.59   26.40
 -13   1   8   73.99   19.40
  12  -1  -8    7.00    8.70
 -12   1   8   22.50   13.60
  11  -1  -8   74.59   16.00
 -11   1   8   80.29   17.40
  10  -1  -8   -8.70    5.30
  10  -1  -8    9.60    7.10
 -10   1   8   10.10    9.70
   9  -1  -8  504.65   30.20
   9  -1  -8  438.86   32.40
   9  -1  -8  505.95   32.20
  -9   1   8  523.95   32.10
   8  -1  -8   16.50    9.80
   8  -1  -8   10.90    6.90
  -8   1   8   21.50   10.30
  -8   1   8   20.70    7.70
   7  -1  -8  100.79   12.30
   7  -1  -8  108.89   14.10
  -7   1   8  131.19   13.70
  -7   1   8  100.99   12.40
   6  -1  -8    2.70    6.10
   6  -1  -8   10.70    6.10
  -6   1   8   13.50    7.10
  -6   1   8   13.30    5.70
   5  -1  -8  277.57   18.80
   5  -1  -8  266.77   17.70
  -5   1   8  262.67   17.20
  -5   1   8  255.27   19.70
   4  -1  -8   -4.50    4.70
   4  -1  -8    3.90    4.40
  -4   1   8   -0.90    4.30
  -4   1   8   -0.10    4.90
   3  -1  -8 1173.08   50.89
   3  -1  -8 1268.07   52.69
  -3   1   8 1226.48   49.20
  -3   1   8 1164.78   52.49
   2  -1  -8    9.70    5.10
   2  -1  -8   11.50    5.40
  -2   1   8    5.90    5.00
  -2   1   8   10.30    3.60
   1  -1  -8  101.59   10.20
  -1   1   8  100.29    6.60
  -1   1   8  115.89   10.80
   0  -1  -8   31.30    7.00
   0   1   8   42.50    8.10
  -1  -1  -8  535.15   28.10
   1   1   8  539.15   22.80
   1   1   8  589.64   28.50
  -2  -1  -8   24.60    6.80
  -2  -1  -8   13.50    6.80
   2   1   8   19.80    4.80
   2   1   8   17.80    7.10
  -3  -1  -8  312.77   20.40
  -3  -1  -8  317.17   19.30
   3   1   8  316.57   20.10
   3   1   8  301.57   17.30
  -4  -1  -8    8.90    7.50
  -4  -1  -8   13.60    7.50
   4   1   8   29.70   11.90
   4   1   8   18.20    7.00
  -5  -1  -8  708.03   38.30
  -5  -1  -8  754.52   37.70
   5   1   8  693.73   35.90
   5   1   8  733.43   37.30
  -6  -1  -8  105.09   14.80
   6   1   8  118.29   14.20
   6   1   8  107.89   15.40
  -7  -1  -8   19.70   11.40
  -7  -1  -8   17.50   10.10
   7   1   8   35.00   12.50
   7   1   8   45.10   10.80
  -8  -1  -8    1.50   12.00
   8   1   8   -0.30    7.40
   8   1   8  -10.80   10.40
  -9  -1  -8   -5.00   11.50
   9   1   8   -2.30    7.70
 -10  -1  -8   17.10   14.60
 -11  -1  -8   92.89   22.70
  11   1   8   68.49   15.70
  14  -2  -8   66.99   18.30
 -14   2   8   56.29   19.10
  13  -2  -8    3.70   10.80
 -13   2   8   19.40   13.80
  12  -2  -8    2.80    8.80
 -12   2   8    2.50   13.00
  11  -2  -8   10.50   10.40
 -11   2   8    3.70   10.50
  10  -2  -8   36.20   11.90
 -10   2   8   14.30   10.50
   9  -2  -8   13.70    8.20
   9  -2  -8    3.40    9.10
   9  -2  -8   12.00    7.90
  -9   2   8   -5.00    7.20
   8  -2  -8  107.39   13.20
   8  -2  -8  106.99   15.00
  -8   2   8  121.49   15.00
  -8   2   8  116.49   14.50
   7  -2  -8    2.30    6.60
   7  -2  -8    6.30    5.90
  -7   2   8    0.10    5.40
   6  -2  -8  237.78   18.10
   6  -2  -8  273.47   19.30
  -6   2   8  257.87   19.10
  -6   2   8  265.77   18.10
   5  -2  -8    2.20    6.30
   5  -2  -8    9.40    5.40
  -5   2   8    3.60    5.60
  -5   2   8    1.60    4.80
   4  -2  -8   93.19   10.00
   4  -2  -8  114.49   11.30
  -4   2   8  122.09   12.20
  -4   2   8   79.49    9.00
   3  -2  -8   16.50    5.40
   3  -2  -8   12.80    5.10
  -3   2   8    8.80    4.50
  -3   2   8   16.60    6.10
   2  -2  -8   21.90    4.70
   2  -2  -8   26.40    6.40
  -2   2   8   46.10    9.40
  -2   2   8   24.00    4.10
   1  -2  -8    3.70    4.20
  -1   2   8    3.20    4.50
   0  -2  -8   65.89   11.00
   0   2   8   63.49   10.00
  -1  -2  -8   -0.60    3.50
   1   2   8    0.70    4.70
  -2  -2  -8  292.17   15.70
  -2  -2  -8  288.27   19.00
   2   2   8  274.47   18.30
   2   2   8  274.67   15.00
  -3  -2  -8   56.39    8.70
  -3  -2  -8   54.89   10.00
   3   2   8   64.59    9.70
   3   2   8   66.69    9.10
  -4  -2  -8  127.19   13.00
  -4  -2  -8   95.29   12.90
   4   2   8  124.29   22.20
   4   2   8  130.89   13.30
  -5  -2  -8  163.18   17.30
  -5  -2  -8  176.88   16.10
   5   2   8  172.68   16.80
   5   2   8  185.58   16.20
  -6  -2  -8   18.30    9.20
   6   2   8    7.20   10.30
   6   2   8    6.30    6.00
  -7  -2  -8   21.70   10.20
  -7  -2  -8    5.00    8.90
   7   2   8    7.60   11.00
   7   2   8   12.70    8.60
  -8  -2  -8   23.70   12.90
   8   2   8   10.10    8.70
   8   2   8    6.60   12.40
  -9  -2  -8   69.09   17.50
   9   2   8   69.69   14.20
 -10  -2  -8   39.20   16.70
  10   2   8   45.60   19.10
 -11  -2  -8    9.10   14.60
  11   2   8    5.20    9.80
  14  -3  -8   12.50   13.20
 -14   3   8    4.00   12.50
  13  -3  -8  132.59   24.20
 -13   3   8  103.29   22.30
  12  -3  -8   41.40   13.80
 -12   3   8   60.39   19.50
  11  -3  -8  116.79   18.40
 -11   3   8  110.59   18.50
  10  -3  -8    2.50    7.80
 -10   3   8    0.90    9.10
   9  -3  -8   11.50    9.50
   9  -3  -8    4.10    7.90
  -9   3   8   -8.80    6.80
   8  -3  -8   -4.20    5.50
   8  -3  -8   -6.30    4.00
  -8   3   8    3.10    6.80
  -8   3   8    6.90    8.20
   7  -3  -8  320.87   22.60
   7  -3  -8  365.76   24.10
  -7   3   8  344.77   24.10
   6  -3  -8    5.50    5.40
   6  -3  -8    8.10    6.50
  -6   3   8    6.30    6.60
  -6   3   8    8.00    5.60
   5  -3  -8    5.70    6.00
   5  -3  -8   16.70    6.20
  -5   3   8    7.10    6.10
  -5   3   8    2.40    5.70
   4  -3  -8   -0.50    4.20
   4  -3  -8   -8.10    3.80
  -4   3   8    0.50    4.90
  -4   3   8    1.70    4.80
   3  -3  -8 1065.69   43.50
   3  -3  -8 1084.59   48.40
  -3   3   8 1046.80   48.60
  -3   3   8 1043.60   44.20
   2  -3  -8   14.30    6.10
   2  -3  -8    7.10    3.00
  -2   3   8    5.20    5.60
   1  -3  -8   -4.90    3.30
  -1   3   8    8.30    5.00
   0  -3  -8    5.00    5.50
   0   3   8   -0.20    4.40
  -1  -3  -8  356.06   21.10
   1   3   8  305.87   20.00
  -2  -3  -8  103.49    8.60
  -2  -3  -8  116.19   12.30
   2   3   8  118.39   12.00
   2   3   8  120.69    9.50
  -3  -3  -8   65.09   11.40
  -3  -3  -8   50.69    8.10
   3   3   8   55.09    9.90
   3   3   8   49.50   10.20
  -4  -3  -8   33.10    8.00
  -4  -3  -8   15.40    7.60
   4   3   8   25.10   14.90
   4   3   8   39.20    9.00
  -5  -3  -8  163.28   15.20
  -5  -3  -8  151.08   18.70
   5   3   8  167.38   16.00
   5   3   8  158.58   17.50
  -6  -3  -8   18.90    9.90
   6   3   8    5.90   10.70
   6   3   8   21.90    8.70
  -7  -3  -8   57.99   13.70
  -7  -3  -8   56.79   17.00
   7   3   8   74.79   18.80
   7   3   8   71.29   13.60
  -8  -3  -8    5.30   10.40
   8   3   8   19.50   15.90
   8   3   8    6.40    7.80
  -9  -3  -8   49.70   14.90
   9   3   8    7.10    9.30
 -10  -3  -8   14.60   13.60
  10   3   8   21.50   12.40
 -11  -3  -8   22.10   16.60
  11   3   8    9.80   11.30
  13  -4  -8    0.30   10.60
 -13   4   8    2.90   11.90
  12  -4  -8   45.40   15.20
 -12   4   8   58.69   18.60
  11  -4  -8   28.60   16.10
 -11   4   8   30.40   13.60
  10  -4  -8  144.49   24.10
 -10   4   8  124.19   19.40
   9  -4  -8    6.00    8.40
   9  -4  -8   10.70    8.80
  -9   4   8   15.30   10.60
   8  -4  -8  690.63   37.70
  -8   4   8  675.33   39.20
  -8   4   8  668.33   38.90
   7  -4  -8    3.20    5.60
   7  -4  -8    8.90    6.60
  -7   4   8    6.50    5.70
   6  -4  -8   17.30    7.60
   6  -4  -8   13.50    6.80
  -6   4   8    8.70    6.50
  -6   4   8    6.70    6.80
   5  -4  -8   14.70    6.10
   5  -4  -8   10.60    6.00
  -5   4   8   29.40    9.20
  -5   4   8   14.30    8.20
   4  -4  -8 1297.67   57.49
   4  -4  -8 1297.77   52.39
  -4   4   8 1212.18   57.39
  -4   4   8 1228.88   54.59
   3  -4  -8   34.30    5.70
   3  -4  -8   16.80    6.80
  -3   4   8   26.90    8.10
  -3   4   8   35.70    7.60
   2  -4  -8  197.78   10.80
   2  -4  -8  180.88    9.10
   2  -4  -8  174.38   14.70
  -2   4   8  194.18   15.60
   1  -4  -8   16.80    6.00
  -1   4   8   33.60    8.00
   0  -4  -8  692.33   33.80
   0   4   8  609.84   32.90
  -1  -4  -8  122.59   12.60
   1   4   8  117.79   12.50
  -2  -4  -8  663.43   34.50
  -2  -4  -8  655.43   28.20
   2   4   8  702.03   34.50
   2   4   8  644.14   30.40
  -3  -4  -8   15.20    5.60
  -3  -4  -8   29.40    8.10
   3   4   8   21.30    7.50
   3   4   8   19.90    8.20
  -4  -4  -8  108.79   12.10
  -4  -4  -8  125.99   15.70
   4   4   8  153.18   15.00
  -5  -4  -8    1.10    7.70
  -5  -4  -8    1.90    7.90
   5   4   8    0.10    9.70
   5   4   8    6.80    6.90
  -6  -4  -8  247.88   21.10
  -6  -4  -8  217.88   21.00
   6   4   8  208.48   24.00
   6   4   8  240.28   19.80
  -7  -4  -8    4.60    9.30
   7   4   8    8.30   14.60
   7   4   8    9.90    9.00
  -8  -4  -8    7.30   10.50
   8   4   8   -5.90   17.00
   8   4   8    0.70    8.50
  -9  -4  -8   15.20   12.30
   9   4   8   29.20   11.50
 -10  -4  -8   34.70   15.70
  10   4   8    9.20   10.10
  13  -5  -8   48.70   16.40
 -13   5   8   44.30   19.10
  12  -5  -8   26.30   13.40
 -12   5   8   57.79   19.50
  11  -5  -8  202.18   24.50
 -11   5   8  172.18   23.60
  10  -5  -8   -4.10    7.70
 -10   5   8    0.90   10.20
   9  -5  -8  110.89   20.10
   9  -5  -8  123.29   20.20
  -9   5   8  133.49   22.90
   8  -5  -8    7.50    7.30
  -8   5   8   12.10    7.70
  -8   5   8    6.50    9.90
   7  -5  -8    7.80    7.20
  -7   5   8   10.30    7.60
  -7   5   8    4.30    9.20
   6  -5  -8   19.80    7.20
   6  -5  -8   14.40    8.00
  -6   5   8   -2.20    4.90
  -6   5   8   10.00    8.20
   5  -5  -8    9.30    6.20
   5  -5  -8    1.90    5.10
  -5   5   8    3.70    8.00
  -5   5   8   -1.40    5.50
   4  -5  -8   -1.30    4.00
   4  -5  -8    2.60    4.90
  -4   5   8    7.40    7.00
  -4   5   8   -6.40    3.90
   3  -5  -8    8.80    4.00
   3  -5  -8    6.30    5.40
  -3   5   8    0.70    5.00
   2  -5  -8   18.60    6.20
   2  -5  -8   16.00    4.90
   2  -5  -8   13.00    3.20
  -2   5   8   14.10    7.30
   1  -5  -8    7.30    5.80
  -1   5   8    6.50    5.50
   0  -5  -8    2.80    5.10
   0   5   8    1.90    5.80
  -1  -5  -8   68.59    5.60
  -1  -5  -8   88.39   11.50
  -1  -5  -8   74.59    8.50
   1   5   8   94.99   11.60
  -2  -5  -8   69.59   11.30
  -2  -5  -8   48.10    6.50
   2   5   8   56.79   10.70
   2   5   8   43.20    9.70
  -3  -5  -8  327.57   24.10
  -3  -5  -8  355.36   18.40
   3   5   8  289.07   21.40
   3   5   8  334.17   22.50
  -4  -5  -8   31.70    9.80
  -4  -5  -8   36.40    8.80
   4   5   8   28.00   11.60
   4   5   8   29.00    9.20
  -5  -5  -8   -6.10    6.40
  -5  -5  -8   19.80   10.00
   5   5   8   -3.20    6.60
   5   5   8    7.50   11.90
  -6  -5  -8    2.40    9.10
  -6  -5  -8   -0.70    9.30
   6   5   8   15.60    9.40
   6   5   8    9.80   14.80
  -7  -5  -8   82.29   15.70
   7   5   8   64.79   13.90
   7   5   8  101.09   24.30
  -8  -5  -8   58.89   14.50
   8   5   8   31.70   12.20
   8   5   8   28.50   22.10
  -9  -5  -8    2.60   12.60
   9   5   8   -0.60    9.80
  13  -6  -8    1.40   10.10
 -13   6   8  -11.00   11.40
  12  -6  -8   28.30   14.30
 -12   6   8   23.20   16.10
  11  -6  -8    2.30    8.50
 -11   6   8   15.10   14.00
  10  -6  -8   28.00   11.20
 -10   6   8   29.40   15.40
   9  -6  -8    1.20    8.30
   9  -6  -8    3.30    7.80
  -9   6   8   12.90   10.90
   8  -6  -8  177.68   17.90
  -8   6   8  261.67   22.40
  -8   6   8  227.38   22.80
   7  -6  -8    0.40    6.10
  -7   6   8   -2.00    6.50
  -7   6   8    1.90    9.20
   6  -6  -8   65.69   10.30
  -6   6   8  144.89   21.90
  -6   6   8  103.39   16.60
   5  -6  -8   14.20    5.70
   5  -6  -8   -3.20    4.40
  -5   6   8    2.10    8.30
  -5   6   8   12.60    7.60
   4  -6  -8  165.48   16.20
   4  -6  -8  159.48   11.90
  -4   6   8  149.29   15.90
  -4   6   8  158.18   16.40
   3  -6  -8   41.80   10.10
   3  -6  -8   53.69   10.50
   3  -6  -8   39.70    6.30
  -3   6   8   42.40    9.90
   2  -6  -8   69.19   12.50
   2  -6  -8   49.70    5.80
   2  -6  -8   50.69    8.50
  -2   6   8   43.60   10.20
   1  -6  -8    0.20    3.00
   1  -6  -8    4.80    3.90
  -1   6   8   -0.50    5.80
   0  -6  -8  170.38   10.40
   0  -6  -8  169.68   19.60
   0  -6  -8  174.98   10.50
   0  -6  -8  161.38    9.40
   0   6   8  184.98   16.30
  -1  -6  -8   73.09    7.00
  -1  -6  -8   35.80   12.80
  -1  -6  -8   71.89   11.00
   1   6   8   75.89   11.80
  -2  -6  -8  331.57   25.80
  -2  -6  -8  325.37   17.20
   2   6   8  315.57   22.40
  -3  -6  -8   65.39    9.50
  -3  -6  -8   28.50   10.10
   3   6   8   56.89   13.70
   3   6   8   60.99   11.90
  -4  -6  -8   32.30   10.80
  -4  -6  -8    2.00    6.80
   4   6   8   26.40    9.80
   4   6   8   43.10   15.00
  -5  -6  -8   -1.10    7.00
  -5  -6  -8   -8.10    7.30
   5   6   8  -13.70   12.00
   5   6   8   -2.20    7.50
  -6  -6  -8   65.49   13.10
   6   6   8   67.69   13.90
   6   6   8   59.99   19.60
  -7  -6  -8  103.29   16.90
   7   6   8   81.49   14.80
  -8  -6  -8   -7.10   10.60
   8   6   8    1.10   21.20
   8   6   8   26.80   12.30
  -9  -6  -8    0.50   12.30
   9   6   8    3.60   11.00
  12  -7  -8   20.40   13.70
 -12   7   8   30.00   17.80
  11  -7  -8  134.09   25.20
 -11   7   8  151.38   28.30
  10  -7  -8    0.40    8.50
 -10   7   8   13.70   14.10
   9  -7  -8  106.59   16.10
   9  -7  -8  149.09   20.90
  -9   7   8  168.68   22.70
  -8   7   8    0.20   10.10
  -8   7   8    4.50    6.60
   7  -7  -8   95.39   12.90
  -7   7   8   98.29   15.60
  -7   7   8  123.89   19.00
   6  -7  -8    4.50    6.40
  -6   7   8    0.10    5.50
  -6   7   8   16.50   11.00
   5  -7  -8  698.73   34.30
  -5   7   8  735.53   40.80
  -5   7   8  720.13   41.20
   4  -7  -8   11.50   10.90
   4  -7  -8   27.50   11.90
   4  -7  -8   12.40   10.00
  -4   7   8   18.20    8.90
   3  -7  -8   90.09   13.20
   3  -7  -8   92.69   13.10
   3  -7  -8   83.69    9.00
  -3   7   8  108.99   14.00
   2  -7  -8    9.30    7.00
   2  -7  -8   -3.50    5.10
   2  -7  -8    7.20    4.70
  -2   7   8    3.20    6.90
   1  -7  -8  215.28   14.20
   1  -7  -8  227.98   13.40
   1  -7  -8  192.88   17.70
  -1   7   8  235.88   19.30
   0  -7  -8  102.29   13.60
   0  -7  -8  110.99   11.00
   0  -7  -8  103.49    9.50
   0   7   8  126.39   14.20
  -1  -7  -8  247.38   13.80
  -1  -7  -8  197.08   18.50
  -1  -7  -8  198.88   17.40
   1   7   8  228.38   19.30
  -2  -7  -8    1.70    7.60
  -2  -7  -8    3.70    5.70
   2   7   8   13.10    8.10
  -3  -7  -8   49.60   11.90
  -3  -7  -8   72.99   10.80
   3   7   8   53.99   11.90
  -4  -7  -8   -0.60    8.30
  -4  -7  -8    4.20    7.40
   4   7   8    7.60    8.40
   4   7   8   -6.30   12.80
   5   7   8    7.90   14.40
   5   7   8  -13.20    6.60
  -6  -7  -8   25.20   10.50
   6   7   8   30.90   11.10
   6   7   8   17.10   18.40
  -7  -7  -8   24.40   12.50
   7   7   8   18.70   10.10
   7   7   8   21.80   21.90
  -8  -7  -8   17.10   12.90
   8   7   8   -3.00   10.70
  11  -8  -8   14.70   10.90
  10  -8  -8  188.28   23.90
 -10   8   8  177.88   26.10
   9  -8  -8   25.30   11.00
  -9   8   8   10.00   12.90
   8  -8  -8   23.70    9.80
  -8   8   8   20.10   13.50
  -8   8   8   18.10   10.30
   7  -8  -8   34.60    9.80
  -7   8   8   45.70   16.70
  -7   8   8    8.50   11.40
   6  -8  -8  106.69   12.50
  -6   8   8  134.99   23.50
  -6   8   8  125.69   17.10
   5  -8  -8   49.00   15.00
   5  -8  -8   35.40    8.30
  -5   8   8   30.90   10.80
   4  -8  -8   68.69    9.70
   4  -8  -8  107.49   18.10
  -4   8   8   85.19   15.60
   3  -8  -8   31.20    8.50
   3  -8  -8   34.50   11.60
  -3   8   8   28.10   10.50
   2  -8  -8  150.38   11.70
   2  -8  -8  112.49   14.10
  -2   8   8  158.08   16.90
   1  -8  -8   17.60    6.80
   1  -8  -8   21.70    9.00
   1  -8  -8   13.30    7.70
  -1   8   8   34.80   10.40
   0  -8  -8  121.39   15.30
   0  -8  -8  128.39   11.80
   0  -8  -8  132.39   13.50
   0   8   8  122.09   15.80
  -1  -8  -8   -2.80    5.10
  -1  -8  -8   -5.10    6.40
  -1  -8  -8   -0.10    9.20
   1   8   8   -7.20    6.50
  -2  -8  -8  114.49   17.80
  -2  -8  -8   78.39   17.70
  -2  -8  -8  108.59   11.80
   2   8   8  117.39   15.80
  -3  -8  -8   13.50   10.40
  -3  -8  -8   30.20    9.30
   3   8   8   42.00   12.20
  -4  -8  -8    1.50    8.00
   4   8   8   10.20    9.10
   4   8   8    4.00   16.30
  -5  -8  -8   -5.80    8.20
   5   8   8   22.90   19.30
   5   8   8   -2.10    8.90
  -6  -8  -8   10.10   10.20
   6   8   8    5.20   20.30
   6   8   8   18.20   10.90
  -7  -8  -8   43.00   14.40
   7   8   8   42.60   26.50
   7   8   8   37.40   12.90
  11  -9  -8   17.50   12.40
 -11   9   8   16.40   17.10
  10  -9  -8   14.20   13.00
 -10   9   8   -4.20   12.40
   9  -9  -8    6.80   11.60
  -9   9   8   31.60   17.30
   8  -9  -8   35.40   15.30
   8  -9  -8   29.00   10.80
  -8   9   8   19.40   14.80
   7  -9  -8    4.80    8.10
  -7   9   8   -0.70   11.40
  -7   9   8   -1.10    8.20
   6  -9  -8   12.30    7.60
  -6   9   8    0.60    8.90
   5  -9  -8   21.50    8.00
  -5   9   8   46.60   12.60
   4  -9  -8   21.20   11.30
   4  -9  -8   10.70    6.40
  -4   9   8   13.00    9.30
   3  -9  -8    8.50    9.70
   3  -9  -8   25.10    7.40
  -3   9   8    6.50    8.20
   2  -9  -8   35.90   10.80
  -2   9   8   30.90   10.00
   1  -9  -8   37.60    9.60
   1  -9  -8   48.10   10.90
  -1   9   8   30.10   10.20
   0  -9  -8   33.50    8.80
   0  -9  -8   37.80   10.70
   0   9   8   31.80   10.70
  -1  -9  -8  119.49   12.80
   1   9   8  135.29   17.70
  -2  -9  -8   53.69   15.80
  -2  -9  -8   43.10    9.60
   2   9   8   79.69   15.10
  -3  -9  -8   -6.40    7.20
  -3  -9  -8   14.90   15.00
   3   9   8   12.80    9.90
  -4  -9  -8   -1.80   12.00
   4   9   8   13.80    9.50
   4   9   8   -3.30   16.70
  -5  -9  -8   50.79   12.80
   5   9   8   55.19   15.20
   5   9   8   45.20   24.80
  -6  -9  -8  122.89   18.00
   6   9   8  120.19   19.10
   9 -10  -8   16.40   12.10
  -9  10   8   59.49   20.70
   8 -10  -8   12.60   12.30
  -8  10   8    2.30   13.00
   7 -10  -8   22.30    9.30
  -7  10   8   23.80   10.40
   6 -10  -8  437.56   35.70
   6 -10  -8  357.76   24.80
  -6  10   8  446.76   32.60
   5 -10  -8    0.00    6.20
   5 -10  -8   -5.80   11.90
  -5  10   8    2.60   10.30
   4 -10  -8   -1.30   14.10
   4 -10  -8    8.80    6.90
  -4  10   8   12.30   12.20
   3 -10  -8    3.80   11.70
   3 -10  -8    8.50    7.20
  -3  10   8    2.60    8.00
   2 -10  -8   17.10    8.10
   2 -10  -8  -14.80    8.20
  -2  10   8   -0.70    8.10
   1 -10  -8   28.50   10.70
   1 -10  -8   29.80    9.30
  -1  10   8   53.99   13.30
   0 -10  -8   64.09   13.30
   0 -10  -8   57.89   11.70
   0  10   8   71.29   14.50
  -1 -10  -8   24.40    9.50
  -1 -10  -8   30.60   12.20
   1  10   8   28.00   11.40
  -2 -10  -8    4.50   13.00
  -2 -10  -8   11.90    8.50
   2  10   8    3.90    8.20
  -3 -10  -8   19.40   16.20
  -3 -10  -8   52.59   12.00
   3  10   8   19.70   10.60
  -4 -10  -8    1.00    9.80
   4  10   8   30.20   13.10
   8 -11  -8   29.80   20.80
   8 -11  -8   17.60   15.10
   7 -11  -8   45.60   20.00
   7 -11  -8   11.50    9.10
   7 -11  -8   19.40   12.80
   6 -11  -8   16.90   10.50
   6 -11  -8   23.70   16.10
  -6  11   8   20.00   11.80
   5 -11  -8  127.89   14.90
   5 -11  -8  146.29   23.50
  -5  11   8  134.99   20.00
   4 -11  -8    8.40    7.40
   4 -11  -8    5.00   13.10
  -4  11   8    3.70    9.40
   3 -11  -8    6.50    7.60
   3 -11  -8    1.50   17.70
  -3  11   8    1.10    8.80
   2 -11  -8   54.09   14.50
   2 -11  -8   48.30   10.50
  -2  11   8   58.29   22.70
   1 -11  -8    3.40    9.60
   1 -11  -8   10.50    9.10
  -1  11   8    1.80    9.90
   0 -11  -8    7.40   10.60
   0 -11  -8    2.40    9.20
   0  11   8   13.70   10.80
  -1 -11  -8   37.40   14.70
  -1 -11  -8   23.20   10.10
   1  11   8   10.00   10.90
  -2 -11  -8   37.90   16.60
  -2 -11  -8   57.59   13.40
   2  11   8   49.30   14.90
   5 -12  -8    8.60   16.10
  -5  12   8   24.20   13.10
   4 -12  -8   -3.70   13.30
   4 -12  -8    3.30    8.10
  -4  12   8    5.10    9.80
   3 -12  -8    0.90   11.80
   3 -12  -8    9.20    8.80
  -3  12   8    9.80   11.00
   2 -12  -8   14.60   15.60
   2 -12  -8   13.50    9.50
  -2  12   8    8.70   11.60
   1 -12  -8    3.40    9.60
   1 -12  -8   11.10   18.20
  -1  12   8   37.10   13.10
  -2 -15   9   51.49   29.40
  -1 -15   9   31.10   25.80
  -1 -15   9   -0.40    4.50
  -1 -15   9    6.90    5.30
   0 -15   9    3.10    7.20
   0 -15   9  -29.60   20.60
   0 -15   9   -5.40    7.30
   1 -15   9   32.10   10.30
   1 -15   9    9.30   23.80
   1 -15   9   24.50   10.10
   2 -15   9   15.40   10.60
   2 -15   9  -19.80   21.50
   2 -15   9   10.80    9.50
   3 -15   9   -3.70   21.90
   3 -15   9   11.30   10.70
   4 -15   9   11.70   28.00
   4 -15   9    7.90   10.80
  -5 -14   9   -9.80   21.30
  -4 -14   9   52.59   28.30
  -3 -14   9   -3.20   22.20
  -2 -14   9   59.29   28.70
  -1 -14   9   -7.90    4.90
  -1 -14   9   -3.80    5.30
  -1 -14   9  -20.80   16.50
   0 -14   9   87.59   12.60
   0 -14   9   98.39   32.90
   0 -14   9   70.79   11.40
   1 -14   9    8.20    7.80
   1 -14   9   10.30    8.10
   1 -14   9    9.50   24.70
   2 -14   9    0.30    7.70
   2 -14   9    1.10   19.80
   2 -14   9    6.70    9.00
   3 -14   9   15.80   24.10
   3 -14   9   17.60   11.70
   3 -14   9   43.00   12.20
   4 -14   9  122.99   35.20
   4 -14   9  132.99   18.10
   5 -14   9   -7.40   10.00
   5 -14   9   -6.50   22.20
   6 -14   9   -6.10   21.90
   6 -14   9   11.90   11.50
  -6 -13   9   11.50   20.50
  -5 -13   9   14.60   22.40
  -4 -13   9   23.50   22.20
  -3 -13   9   36.90   23.00
  -2 -13   9   60.49   26.00
  -1 -13   9   47.50   24.10
  -1 -13   9   34.70    7.20
  -1 -13   9   35.60    7.70
   0 -13   9    2.00    6.90
   0 -13   9  -13.60   17.80
   0 -13   9    8.20    6.90
   1 -13   9    2.60    7.30
   1 -13   9    8.40    7.80
   1 -13   9   12.20   21.90
   2 -13   9  100.99   32.80
   2 -13   9   83.29   14.10
   2 -13   9   97.89   14.50
   3 -13   9   62.89   25.80
   3 -13   9  105.49   15.40
   3 -13   9   54.99   12.60
   4 -13   9    7.80   22.70
   4 -13   9   15.90    9.50
   5 -13   9   -2.60   22.20
   5 -13   9   31.00   12.30
   6 -13   9   44.00   24.90
   6 -13   9   70.19   16.50
   7 -13   9   -0.60    8.60
   7 -13   9   18.20   23.20
   8 -13   9    0.40   10.10
   8 -13   9    2.50   23.10
  -8 -12   9   12.90   20.80
  -7 -12   9   28.20   22.50
  -6 -12   9   18.00   18.40
  -5 -12   9   40.50   23.80
  -4 -12   9  132.49   30.70
  -3 -12   9   51.59   24.60
  -2 -12   9    3.80    3.10
  -2 -12   9    7.60    3.40
  -1 -12   9   10.90    6.50
  -1 -12   9    7.30   22.30
  -1 -12   9    5.80    5.50
   0 -12   9   84.09   11.50
   0 -12   9  132.99   32.10
   0 -12   9   82.99   10.70
   1 -12   9   43.60    9.90
   1 -12   9   43.00    9.80
   1 -12   9   23.90   18.60
   2 -12   9   14.30   25.00
   2 -12   9   13.80    8.00
   2 -12   9   22.50    8.50
   3 -12   9   54.89   12.60
   3 -12   9   80.39   29.70
   4 -12   9   -4.10   15.70
   4 -12   9    9.30    8.20
   5 -12   9   32.70   26.20
   5 -12   9   52.29   12.70
   6 -12   9   32.00   12.00
   6 -12   9   53.49   26.20
   7 -12   9   92.09   32.50
   7 -12   9   62.59   15.80
  -8  12  -9   86.89   33.10
   8 -12   9   27.60   13.80
   8 -12   9   57.29   29.40
  -9  12  -9   72.29   32.20
   9 -12   9   24.00   12.50
  -9 -11   9   10.00   19.90
  -8 -11   9   16.90   17.10
  -7 -11   9   50.29   23.50
  -6 -11   9    6.30   16.80
  -5 -11   9  186.18   31.40
  -4 -11   9   23.40   17.80
  -3 -11   9   -5.10   16.90
  -2 -11   9   74.49   27.00
  -2 -11   9   56.59    6.20
  -2 -11   9   53.09    6.20
  -1 -11   9  192.18   31.50
  -1 -11   9  143.19   11.70
  -1 -11   9  166.38   12.50
   0 -11   9   35.90    8.70
   0 -11   9   50.09    8.70
   0 -11   9  100.69   30.10
  -1  11  -9    7.30    7.30
   1 -11   9   35.60   21.50
  -2  11  -9   20.20    9.60
   2 -11   9   25.30   20.40
   2 -11   9    6.00    7.00
  -3  11  -9   44.20   12.70
   3 -11   9   33.10    9.90
   3 -11   9   40.30   20.20
  -4  11  -9   19.10   10.10
   4 -11   9    9.60   20.70
   4 -11   9    2.50    7.70
   5 -11   9   21.00    9.90
   5 -11   9    4.50   34.30
   6 -11   9    4.00    8.90
   6 -11   9   45.00   23.40
  -7  11  -9   23.60   21.00
   7 -11   9   -6.00    6.90
  -8  11  -9   78.99   31.30
   8 -11   9   76.49   17.30
  -9  11  -9  -11.80   19.40
   9 -11   9   -1.50    9.10
 -10 -10   9    5.10   17.50
  -9 -10   9   14.00   18.30
  -8 -10   9  166.08   31.60
  -7 -10   9  -30.10   16.80
  -5 -10   9   25.10   17.40
  -4 -10   9  118.69   26.40
  -3 -10   9   80.19   24.80
  -2 -10   9   11.00    4.30
  -2 -10   9   17.90    4.60
  -2 -10   9    4.80   14.00
  -1 -10   9    9.50    5.50
  -1 -10   9   18.30   16.10
   0  10  -9   18.40    7.40
   0 -10   9   -7.90   13.80
   0 -10   9   22.20    6.60
  -1  10  -9  291.27   20.90
   1 -10   9  261.97   18.90
   1 -10   9  277.67   34.50
  -2  10  -9   37.40   10.90
   2 -10   9   63.79   23.20
   2 -10   9   48.00   10.00
  -3  10  -9  106.59   16.20
   3 -10   9  154.28   30.80
   3 -10   9  106.79   14.30
  -4  10  -9   24.90   11.10
   4 -10   9   28.30    9.60
   4 -10   9    5.00   16.80
   5 -10   9  115.69   32.50
   5 -10   9   77.99   14.40
  -6  10  -9   11.60   20.70
   6 -10   9   -0.80    7.50
  -7  10  -9   74.39   28.80
   7 -10   9  120.29   17.80
  -8  10  -9   18.10   22.70
   8 -10   9  -11.40    7.20
  -9  10  -9    9.00   22.60
   9 -10   9   13.90   11.40
 -10  10  -9    9.20   20.30
  10 -10   9   -6.00    8.50
 -11  -9   9    1.10   17.00
 -10  -9   9   75.69   24.20
  -9  -9   9   24.90   18.90
  -8  -9   9   -5.40   16.50
  -7  -9   9  191.18   33.50
  -6  -9   9  125.89   24.40
  -5  -9   9    4.60   13.20
  -4  -9   9   31.40   18.50
   3   9  -9  209.08   41.70
  -3  -9   9  184.38   26.80
  -3  -9   9  105.59    6.30
   2   9  -9  208.98   12.60
   2   9  -9  175.78   28.10
  -2  -9   9  165.48   26.10
  -2  -9   9  180.58   11.30
   1   9  -9   36.10   16.80
   1   9  -9   45.40    8.00
  -1  -9   9   37.00   18.70
   0   9  -9 1442.26   61.89
   0  -9   9 1499.45   80.69
   0  -9   9 1444.56   60.99
   0  -9   9 1414.26   80.09
  -1   9  -9  201.08   16.90
   1  -9   9  129.19   27.50
   1  -9   9  173.98   27.80
   1  -9   9  218.88   16.10
  -2   9  -9   21.00    8.70
   2  -9   9    9.90   14.40
   2  -9   9   38.40    9.60
   2  -9   9   12.40   14.70
  -3   9  -9   26.40    9.60
   3  -9   9   22.20   18.00
   3  -9   9   52.59   11.00
   3  -9   9   58.89   18.90
  -4   9  -9  119.79   16.20
   4  -9   9  115.29   14.80
   4  -9   9  120.09   27.40
  -5   9  -9    2.00    7.90
  -5   9  -9   71.29   24.40
   5  -9   9   14.40    8.60
  -6   9  -9   52.79   25.40
   6  -9   9   42.80   11.60
  -7   9  -9   14.70   20.00
   7  -9   9    4.60    8.30
  -8   9  -9  -16.60   16.60
   8  -9   9    0.40    8.10
  -9   9  -9    5.30   22.30
   9  -9   9   -2.60    7.90
 -10   9  -9   77.29   28.90
  10  -9   9  117.39   21.30
 -11   9  -9  -13.40   21.50
  11  -9   9   -2.10    9.20
 -11  -8   9    3.80   14.20
 -10  -8   9   60.79   19.90
  -9  -8   9    3.50   15.30
  -8  -8   9    5.90   16.60
  -7  -8   9   -5.20   13.10
  -6  -8   9  277.67   29.60
  -5  -8   9   62.69   21.20
   4   8  -9    5.20   12.30
  -4  -8   9   21.40   13.90
   3   8  -9   90.09   24.00
   3   8  -9  113.59    8.20
  -3  -8   9  163.68   27.70
  -3  -8   9  110.29    7.40
   2   8  -9   46.40   18.00
   2   8  -9   57.59    7.50
  -2  -8   9   42.40   18.00
  -2  -8   9   43.50    6.40
   1   8  -9    6.00    5.20
  -1  -8   9    9.70   12.70
  -1  -8   9    0.30    4.30
   0   8  -9   84.49   10.80
   0  -8   9   71.99   20.40
   0  -8   9   94.49    9.90
  -1   8  -9   22.80    7.80
   1  -8   9   46.90    9.40
   1  -8   9   37.30   16.20
  -2   8  -9  208.28   17.90
   2  -8   9  239.18   18.20
   2  -8   9  213.88   27.20
   2  -8   9  238.88   29.00
  -3   8  -9   10.40    7.80
   3  -8   9    7.00    7.30
   3  -8   9   24.60   16.30
   3  -8   9   34.00   15.70
  -4   8  -9   -5.10    9.80
   4  -8   9    4.90   15.40
   4  -8   9   12.40    7.80
   4  -8   9    4.20   12.00
  -5   8  -9    1.00   15.90
  -5   8  -9    1.00    6.80
   5  -8   9   10.30    7.70
  -6   8  -9    0.70   16.40
   6  -8   9   10.90    7.90
  -7   8  -9  169.48   35.60
   7  -8   9  111.69   17.20
  -9   8  -9   33.50   22.20
   9  -8   9   27.30   12.00
 -10   8  -9    6.00   21.80
  10  -8   9    1.60    9.70
 -11   8  -9   -2.20   19.10
  11  -8   9   29.20   14.00
  12   7  -9   -4.10    5.40
 -12  -7   9    4.70   14.40
  11   7  -9   30.10    6.60
  11   7  -9   30.00    5.90
 -11  -7   9   32.00   16.30
  10   7  -9    1.50    3.70
  10   7  -9   -3.60    3.70
 -10  -7   9   20.10   14.40
   9   7  -9    1.40    3.40
   9   7  -9    7.60    3.00
  -9  -7   9   -5.00   14.40
  -8  -7   9    4.10   13.70
  -7  -7   9  242.38   26.60
   6   7  -9   12.00   18.70
  -6  -7   9    6.10   12.60
   5   7  -9   32.40    3.70
   5   7  -9   17.00   15.80
  -5  -7   9   29.30   13.50
   4   7  -9  274.17   29.90
   4   7  -9  247.68   12.40
  -4  -7   9  249.78   26.40
  -4  -7   9  236.38   11.90
   3   7  -9   76.59   19.60
   3   7  -9  122.69    9.10
  -3  -7   9  137.39   21.20
  -3  -7   9  126.89    8.30
   2   7  -9   93.49   20.70
   2   7  -9  108.69    9.30
  -2  -7   9  114.59   22.80
  -2  -7   9  100.59    8.40
   1   7  -9    5.90    4.50
   1   7  -9   14.70   12.10
  -1  -7   9   11.40   12.90
  -1  -7   9    6.50    4.50
   0   7  -9   61.19    9.30
   0  -7   9   69.79   21.50
   0  -7   9   75.69    9.10
   0  -7   9   70.89   20.00
  -1   7  -9   49.10    9.50
   1  -7   9   71.69    9.80
   1  -7   9   86.09   18.70
   1  -7   9   81.69   21.10
  -2   7  -9   31.70    9.00
   2  -7   9   58.69   17.40
   2  -7   9   73.19   18.00
  -3   7  -9   19.90    8.90
   3  -7   9    4.40   12.40
   3  -7   9   19.50    7.70
   3  -7   9   31.70   14.60
  -4   7  -9   83.29   14.30
  -4   7  -9   59.99   20.00
   4  -7   9   75.59   12.20
   4  -7   9   93.39   19.70
  -5   7  -9   29.10   19.40
  -5   7  -9    9.90    8.30
   5  -7   9   -8.80    5.90
   5  -7   9    5.10   10.80
  -6   7  -9  377.46   38.60
   6  -7   9  338.07   25.60
  -7   7  -9   -6.70   14.70
   7  -7   9    6.30    8.30
  -8   7  -9   19.80   18.40
   8  -7   9   10.00    9.50
  -9   7  -9    3.80   17.80
   9  -7   9    0.80    7.70
 -10   7  -9  155.68   35.60
  10  -7   9  191.68   22.60
 -11   7  -9   13.40   20.90
  11  -7   9    1.60    9.30
  12   6  -9    7.00    6.80
  12   6  -9   17.40    8.20
 -12  -6   9   -6.30   13.70
  11   6  -9   11.70    6.30
  11   6  -9   19.10    7.70
 -11  -6   9   16.10   14.10
  10   6  -9    1.00    5.60
 -10  -6   9   -3.50   11.90
   9   6  -9  147.89   11.20
   9   6  -9  166.58   12.40
  -9  -6   9  179.98   24.00
   8   6  -9   16.50    4.90
   8   6  -9   28.80    6.00
  -8  -6   9   44.20   15.90
   7   6  -9   40.80    6.00
   7   6  -9   42.00    6.30
  -7  -6   9   39.80   15.90
   6   6  -9  136.39    9.30
   6   6  -9  108.69   23.80
  -6  -6   9  166.68   21.50
   5   6  -9  465.65   21.60
  -5  -6   9  484.05   21.60
  -5  -6   9  510.15   34.90
   4   6  -9   40.20   15.90
   4   6  -9   41.80    5.90
  -4  -6   9   34.50    5.40
  -4  -6   9   36.70   14.20
   3   6  -9   25.70    5.30
   3   6  -9   -7.10    8.80
  -3  -6   9   49.10    5.70
  -3  -6   9   31.10   13.50
   2   6  -9  136.79   10.20
   2   6  -9  119.09   19.40
  -2  -6   9  136.19   19.50
  -2  -6   9  118.09    9.40
   1   6  -9  449.76   26.80
   1   6  -9  480.55   35.30
  -1  -6   9  523.35   24.30
  -1  -6   9  504.15   36.00
   0   6  -9    7.70    4.70
   0  -6   9    1.70   12.50
   0  -6   9   11.10    5.20
   0  -6   9   -1.60   11.10
  -1   6  -9  245.28   17.30
   1  -6   9  236.28   16.30
   1  -6   9  241.18   25.50
   1  -6   9  228.98   25.00
  -2   6  -9    4.20    5.40
   2  -6   9    0.60    4.80
   2  -6   9    6.60   11.90
   2  -6   9    6.20   10.50
  -3   6  -9  141.19   26.00
  -3   6  -9  154.48   15.30
   3  -6   9  170.68   15.10
   3  -6   9  163.98   23.50
   3  -6   9  171.88   21.20
  -4   6  -9   -8.20    4.70
  -4   6  -9   11.80   14.30
   4  -6   9    2.90    6.80
   4  -6   9   -0.20    9.30
  -5   6  -9  440.66   30.30
  -5   6  -9  530.75   41.90
   5  -6   9  528.35   34.80
   5  -6   9  477.45   29.80
  -6   6  -9    7.00    6.80
  -6   6  -9   -2.80   14.40
   6  -6   9   -8.70    8.00
   6  -6   9   -2.00    6.90
  -7   6  -9    1.70   15.60
   7  -6   9   32.00   10.90
  -8   6  -9   10.50   16.20
   8  -6   9   -0.90    7.40
  -9   6  -9   63.29   23.60
   9  -6   9   45.50   13.40
 -10   6  -9   -0.70   17.00
  10  -6   9   17.90   10.90
 -11   6  -9    0.10   18.50
  11  -6   9    4.50    8.70
 -12   6  -9    7.90   20.70
  12  -6   9  -10.80    8.90
  13   5  -9   15.10    8.90
  13   5  -9   39.90   11.30
 -13  -5   9   20.30   15.70
  12   5  -9   15.70    8.60
  12   5  -9   21.00    8.60
 -12  -5   9   29.60   15.30
  11   5  -9   76.49   11.70
  11   5  -9   61.69   10.60
 -11  -5   9   49.80   16.20
  10   5  -9    0.90    5.50
  10   5  -9    0.00    5.90
 -10  -5   9   -9.40   10.30
   9   5  -9   34.20    8.40
   9   5  -9   12.20    5.60
  -9  -5   9    5.90   12.20
   8   5  -9    1.90    7.60
   8   5  -9   -0.10    5.00
  -8  -5   9    2.40   11.10
   7   5  -9  391.26   33.70
   7   5  -9  317.57   17.50
   7   5  -9  352.86   19.10
  -7  -5   9  341.87   27.80
   6   5  -9   30.20    5.60
  -6  -5   9   19.20    5.10
  -6  -5   9   19.00   11.70
   5   5  -9  -10.70    8.60
   5   5  -9    0.20    3.20
  -5  -5   9   12.80   10.20
  -5  -5   9    2.20    3.60
   4   5  -9  244.88   13.70
   4   5  -9  241.98   24.60
  -4  -5   9  259.07   14.00
  -4  -5   9  236.38   22.90
   3   5  -9  273.87   25.20
   3   5  -9  265.77   14.80
  -3  -5   9  248.48   14.30
   2   5  -9   50.89   14.50
   2   5  -9   45.00    7.50
  -2  -5   9   45.60    6.60
  -2  -5   9   30.30   12.00
   1   5  -9    2.40    4.60
   1   5  -9    8.00   10.70
  -1  -5   9    8.30    4.30
  -1  -5   9    9.90   10.90
   0   5  -9   73.29    9.40
   0  -5   9   88.29   19.30
   0  -5   9   81.79   17.00
   0  -5   9   56.79    8.40
  -1   5  -9   25.50    6.90
   1  -5   9   34.70   13.70
   1  -5   9   27.50   12.20
   1  -5   9   36.10    7.70
  -2   5  -9  243.48   17.70
   2  -5   9  235.68   17.00
   2  -5   9  233.68   23.30
   2  -5   9  256.37   25.40
  -3   5  -9    2.30   12.20
  -3   5  -9    6.50    5.90
   3  -5   9    6.10    5.70
   3  -5   9   15.40   10.10
  -4   5  -9  106.19   21.80
  -4   5  -9   99.89   13.20
   4  -5   9  101.49   15.60
   4  -5   9  113.79   13.20
  -5   5  -9    4.60   12.80
  -5   5  -9    6.10    6.50
   5  -5   9   15.10    7.50
   5  -5   9   15.20    9.90
  -6   5  -9  182.68   25.90
  -6   5  -9  109.79   16.10
   6  -5   9  162.78   18.10
   6  -5   9  145.49   16.80
  -7   5  -9   41.20   18.20
   7  -5   9   -4.80    7.50
   7  -5   9    0.10    6.10
  -8   5  -9   39.90   18.50
   8  -5   9   14.30    9.30
  -9   5  -9  -24.10   11.30
   9  -5   9   -4.40    7.40
 -10   5  -9    5.30   17.20
  10  -5   9   -0.40    8.20
 -11   5  -9   20.20   20.20
  11  -5   9   15.60   12.60
 -12   5  -9   12.40   20.20
  12  -5   9   24.70   13.20
  13   4  -9    7.40    9.20
  13   4  -9    1.00    8.70
 -13  -4   9    6.40   13.60
  12   4  -9   66.89   12.60
  12   4  -9   36.00   10.30
 -12  -4   9   53.09   16.00
  11   4  -9    2.90    6.90
  11   4  -9   -1.90    6.00
 -11  -4   9   -5.80    9.60
  10   4  -9   41.90   13.20
  10   4  -9   38.20    8.90
 -10  -4   9   24.40   13.80
   9   4  -9  213.78   15.80
   9   4  -9  235.48   17.20
  -9  -4   9  202.38   23.00
   8   4  -9   33.10   14.90
   8   4  -9   44.30    7.90
   8   4  -9   38.90    8.70
  -8  -4   9   49.50   14.70
   7   4  -9  -13.10    8.10
   7   4  -9   -2.30    3.80
  -7  -4   9    4.40    7.90
   6   4  -9   15.40   11.80
  -6  -4   9    6.40    9.00
  -6  -4   9    1.10    4.40
   5   4  -9   57.59   15.60
   5   4  -9   60.09    7.00
  -5  -4   9   85.89   17.00
  -5  -4   9   53.49    7.40
   4   4  -9   50.59    6.70
   4   4  -9   48.30   12.80
  -4  -4   9   56.79    7.30
  -4  -4   9  104.79   15.10
   3   4  -9  296.17   15.90
   3   4  -9  274.87   24.50
  -3  -4   9  273.57   15.70
  -3  -4   9  283.37   23.00
   2   4  -9   20.50   10.90
   2   4  -9   34.80    7.40
  -2  -4   9   46.90    6.90
  -2  -4   9   36.90   12.30
   1   4  -9  472.05   31.80
   1   4  -9  493.95   24.80
  -1  -4   9  500.75   24.30
  -1  -4   9  469.25   31.50
   0   4  -9   22.70    6.30
   0  -4   9   51.99   15.20
   0  -4   9   10.10    5.30
   0  -4   9   16.40   11.30
  -1   4  -9  492.15   25.90
   1  -4   9  443.46   24.80
   1  -4   9  474.25   32.60
   1  -4   9  488.05   31.90
  -2   4  -9   -1.10    4.20
   2  -4   9   -8.90    3.60
   2  -4   9   19.20    9.10
   2  -4   9  -12.70    8.90
  -3   4  -9   24.60   13.40
  -3   4  -9   31.50    8.90
   3  -4   9   28.90   10.60
   3  -4   9   35.00    8.20
  -4   4  -9   -0.80    5.20
  -4   4  -9    0.20   10.00
   4  -4   9    8.50    7.80
   4  -4   9   16.10    6.50
  -5   4  -9  556.04   38.90
  -5   4  -9  486.95   32.00
   5  -4   9  542.65   31.20
   5  -4   9  544.55   32.20
  -6   4  -9    6.80   13.30
  -6   4  -9    6.00    7.20
   6  -4   9   16.50    9.50
   6  -4   9    4.30    7.50
  -7   4  -9    4.90   14.20
   7  -4   9   17.40    9.40
   7  -4   9    6.40    8.90
  -8   4  -9   11.80   15.90
   8  -4   9   -0.30    7.30
  -9   4  -9   95.29   24.80
   9  -4   9   61.09   20.10
 -10   4  -9   -8.50   15.20
  10  -4   9   -0.30    9.30
 -11   4  -9   -3.40   16.20
  11  -4   9   18.70   11.90
 -12   4  -9  -18.10   16.00
  12  -4   9   -1.80    9.30
  13   3  -9   19.90    9.90
 -13  -3   9    7.10   12.40
  12   3  -9    2.20    9.10
  12   3  -9    9.00    8.30
 -12  -3   9    7.20   10.70
  11   3  -9   17.10    8.20
  11   3  -9   13.80    8.50
 -11  -3   9   13.70   16.20
  10   3  -9  148.59   15.10
  10   3  -9  173.98   17.20
 -10  -3   9  162.88   20.80
   9   3  -9   14.10    6.60
  -9  -3   9   19.30   10.20
   8   3  -9    8.30    6.50
   8   3  -9    7.70    5.40
   8   3  -9   -1.90   10.00
  -8  -3   9    4.90    9.90
   7   3  -9    7.30    4.60
   7   3  -9    7.50   10.20
  -7  -3   9   12.20    8.80
  -7  -3   9    7.80    5.20
   6   3  -9  552.34   36.40
   6   3  -9  573.04   27.40
  -6  -3   9  567.34   28.00
  -6  -3   9  557.34   33.40
   5   3  -9    8.00    7.90
   5   3  -9    5.80    3.90
  -5  -3   9   23.20   11.20
  -5  -3   9    6.20    4.50
   4   3  -9   72.09    8.20
   4   3  -9  111.19   19.00
  -4  -3   9   98.29   15.70
  -4  -3   9   99.09    9.40
   3   3  -9    6.30    8.80
   3   3  -9    4.00    3.80
  -3  -3   9    8.70    8.30
  -3  -3   9    0.00    4.10
   2   3  -9 1588.84   73.79
   2   3  -9 1674.83   66.99
  -2  -3   9 1667.83   66.89
  -2  -3   9 1597.14   71.99
   1   3  -9   -2.70    9.00
   1   3  -9    3.70    4.30
  -1  -3   9   -2.60    3.70
  -1  -3   9    1.40    7.90
   0   3  -9  225.38   15.20
   0  -3   9  209.08   14.50
   0  -3   9  220.88   20.00
  -1   3  -9   -1.90    4.20
   1  -3   9    5.10    4.60
   1  -3   9    0.90    8.70
   1  -3   9   -3.20    6.90
  -2   3  -9   33.50   12.90
  -2   3  -9   26.60    8.20
   2  -3   9   40.70   10.10
   2  -3   9   30.40    8.10
  -3   3  -9    7.50   10.80
  -3   3  -9    3.90    4.90
   3  -3   9    9.20    7.50
   3  -3   9    2.10    5.20
  -4   3  -9  108.49   19.90
  -4   3  -9  130.19   13.70
   4  -3   9   96.99   12.00
   4  -3   9  113.99   14.00
  -5   3  -9   22.60   10.40
  -5   3  -9   22.10   13.00
   5  -3   9   15.90    8.40
   5  -3   9    7.10    6.70
  -6   3  -9  483.55   36.10
  -6   3  -9  432.06   29.80
   6  -3   9  474.65   29.80
   6  -3   9  510.55   29.50
  -7   3  -9   10.70   14.60
   7  -3   9    7.30    8.10
   7  -3   9    3.30    7.90
  -8   3  -9  402.36   34.70
   8  -3   9  336.37   26.80
   8  -3   9  332.17   26.40
  -9   3  -9   16.00   14.20
   9  -3   9   -6.50    7.80
 -10   3  -9   12.10   15.80
  10  -3   9   22.40   10.80
 -11   3  -9   -3.90   14.10
  11  -3   9    6.70   10.00
 -12   3  -9   21.10   19.90
  12  -3   9    6.00   10.90
  14   2  -9   15.00   11.60
 -14  -2   9   25.50   17.60
  13   2  -9   23.40   11.70
 -13  -2   9   44.80   16.60
  12   2  -9   22.40    9.20
  12   2  -9   13.80    9.70
 -12  -2   9   12.80   11.40
  11   2  -9   71.19   13.10
  11   2  -9   74.29   15.00
 -11  -2   9   99.19   19.80
  10   2  -9    1.00    5.80
  10   2  -9    7.30    7.70
 -10  -2   9   -1.30    9.00
   9   2  -9   -1.90   11.20
   9   2  -9    1.30    5.50
   9   2  -9    4.20    6.60
  -9  -2   9    3.80    8.70
   8   2  -9   44.50   13.90
   8   2  -9   39.80    8.00
  -8  -2   9   76.99   16.10
   7   2  -9  257.07   24.20
   7   2  -9  245.68   16.60
  -7  -2   9  225.78   20.20
  -7  -2   9  262.87   17.70
   6   2  -9   46.90    8.20
   6   2  -9   47.40   13.60
  -6  -2   9   63.19   13.30
  -6  -2   9   50.09    8.90
   5   2  -9   10.30    5.00
   5   2  -9   15.80    9.40
  -5  -2   9   19.40    6.50
  -5  -2   9   38.40   10.70
   4   2  -9    8.30    4.70
   4   2  -9   12.00    8.70
  -4  -2   9   24.80    6.00
  -4  -2   9   18.80    8.50
   3   2  -9   73.79    8.50
   3   2  -9   77.99   12.90
  -3  -2   9   91.49    9.30
  -3  -2   9   72.69   11.10
   2   2  -9   30.50   10.20
   2   2  -9   23.70    6.10
  -2  -2   9   17.40    5.30
  -2  -2   9   47.60   10.40
   1   2  -9  162.18   12.10
   1   2  -9  170.08   16.30
  -1  -2   9  143.89   15.00
  -1  -2   9  148.39   11.90
   0   2  -9   -0.30    3.70
   0  -2   9   -0.60    4.20
   0  -2   9  -11.50    5.50
   0  -2   9   -6.60    7.50
  -1   2  -9  147.19   12.90
   1  -2   9  149.29   16.30
   1  -2   9  141.59   14.50
   1  -2   9  146.09   12.30
  -2   2  -9    9.90    9.60
  -2   2  -9    4.30    5.20
   2  -2   9    0.10    5.10
   2  -2   9    3.20    6.80
  -3   2  -9    8.70    5.90
  -3   2  -9   -9.10    8.60
   3  -2   9    5.60    5.70
   3  -2   9   10.20    6.20
  -4   2  -9    2.20    4.60
  -4   2  -9   24.30   12.20
   4  -2   9   -3.10    5.20
   4  -2   9   -3.30    4.50
  -5   2  -9   13.20    9.00
  -5   2  -9   13.00   16.00
   5  -2   9   27.80    8.80
   5  -2   9   18.50    8.50
  -6   2  -9    4.50   11.50
  -6   2  -9   -0.20    6.10
   6  -2   9    2.70    6.80
   6  -2   9    0.90    6.70
  -7   2  -9   36.20   16.00
   7  -2   9   32.30   10.10
  -8   2  -9   36.00   16.30
   8  -2   9   29.10   11.30
   8  -2   9   16.00    9.00
  -9   2  -9   61.89   19.50
   9  -2   9   49.00   14.20
 -10   2  -9    9.90   15.40
  10  -2   9   -4.40    7.70
 -11   2  -9  100.59   27.70
  11  -2   9   77.99   17.90
 -12   2  -9   27.00   20.40
  12  -2   9   -0.60    9.50
  14   1  -9    9.50   12.60
 -14  -1   9   15.10   12.50
  13   1  -9   54.49   14.30
 -13  -1   9   39.10   14.60
  12   1  -9   10.50    9.90
 -12  -1   9   -9.70   10.50
  11   1  -9   -9.80    7.20
  11   1  -9    0.20    6.00
 -11  -1   9  -10.50    8.60
  10   1  -9   66.89   14.00
  10   1  -9   86.39   13.80
 -10  -1   9  117.79   21.60
   9   1  -9  136.19   20.70
   9   1  -9  209.28   19.10
   9   1  -9  144.89   15.30
  -9  -1   9  193.28   20.00
   8   1  -9   82.99   23.40
   8   1  -9   56.09   10.50
  -8  -1   9   89.09   15.60
  -8  -1   9   73.29   12.20
   7   1  -9    7.60    8.10
   7   1  -9   11.90    5.90
  -7  -1   9   -7.50    6.30
  -7  -1   9    0.90    4.70
   6   1  -9  116.89   11.20
   6   1  -9  106.09   15.20
  -6  -1   9  123.59   13.60
  -6  -1   9   90.29   11.00
   5   1  -9   10.50    5.10
   5   1  -9   15.70    8.60
  -5  -1   9   11.80    7.50
  -5  -1   9    1.60    4.90
   4   1  -9  207.58   17.30
   4   1  -9  193.08   13.80
  -4  -1   9  190.08   14.10
  -4  -1   9  195.08   15.50
   3   1  -9   -2.20    6.40
   3   1  -9    4.50    4.40
  -3  -1   9    5.10    5.90
  -3  -1   9   -4.20    3.20
   2   1  -9   29.70    9.20
   2   1  -9   32.00    6.80
  -2  -1   9   31.90    7.20
  -2  -1   9   47.90    9.00
   1   1  -9   69.89    8.70
   1   1  -9   83.19   11.20
  -1  -1   9   73.79    9.00
  -1  -1   9   96.69   10.50
   0   1  -9 1506.15   61.99
   0  -1   9 1456.55   61.39
   0  -1   9 1451.75   61.79
   0  -1   9 1393.96   61.09
  -1   1  -9   11.10    5.80
   1  -1   9   11.90    6.10
   1  -1   9   15.60    8.30
   1  -1   9    2.30    5.00
  -2   1  -9  133.19   16.00
  -2   1  -9  135.59   12.70
   2  -1   9  143.09   11.70
   2  -1   9  136.09   13.20
  -3   1  -9   12.90    9.00
  -3   1  -9   13.60    6.30
   3  -1   9    5.90    5.50
  -4   1  -9  118.99   13.70
  -4   1  -9  114.39   16.50
   4  -1   9  141.69   13.80
   4  -1   9  131.19   12.40
  -5   1  -9   37.40   12.10
  -5   1  -9   48.00   10.90
   5  -1   9   52.19   10.40
   5  -1   9   78.49   11.50
  -6   1  -9  254.67   24.00
  -6   1  -9  240.78   21.00
   6  -1   9  233.48   18.70
   6  -1   9  235.58   20.00
  -7   1  -9    7.60   11.40
   7  -1   9    4.90    7.00
   7  -1   9   -5.40    7.30
  -8   1  -9  119.49   23.10
   8  -1   9  104.69   17.90
   8  -1   9  102.19   15.80
  -9   1  -9   37.90   16.00
   9  -1   9   -0.50    7.90
 -10   1  -9  131.39   28.10
  10  -1   9   81.69   16.70
 -11   1  -9   23.70   16.80
  11  -1   9   33.30   14.00
  14   0  -9   -6.80    9.20
 -14   0   9   21.90   13.90
  13   0  -9   14.10   11.70
 -13   0   9   -4.10    9.60
  12   0  -9    3.90    9.20
 -12   0   9    8.00   11.10
  11   0  -9  815.02   46.20
 -11   0   9  776.22   45.80
  10   0  -9   39.50   10.10
  10   0  -9  102.99   15.40
 -10   0   9   85.59   16.30
   9   0  -9  185.78   22.30
   9   0  -9  187.48   19.20
   9   0  -9  215.78   18.00
  -9   0   9  179.18   19.30
   8   0  -9   -0.80    8.10
   8   0  -9   -3.70    4.70
  -8   0   9   -1.60    6.60
  -8   0   9   -5.50    4.00
   7   0  -9  205.08   16.10
   7   0  -9  188.88   19.10
  -7   0   9  206.08   17.50
  -7   0   9  192.48   16.70
   6   0  -9    6.50    4.80
   6   0  -9    6.60    7.30
  -6   0   9   -0.10    6.00
  -6   0   9    4.70    5.00
   5   0  -9   39.70    8.00
   5   0  -9   44.30   10.90
  -5   0   9   60.29   11.30
  -5   0   9   56.99    9.80
   4   0  -9    7.50    4.40
   4   0  -9   12.80    6.90
  -4   0   9    8.20    5.90
  -4   0   9    1.50    4.60
   3   0  -9  131.79   12.60
   3   0  -9  155.38   12.20
  -3   0   9  133.69   11.00
  -3   0   9  118.19   11.70
   2   0  -9   27.00    7.70
   2   0  -9   28.10    6.90
  -2   0   9   41.80    7.10
  -2   0   9   42.60    8.50
   1   0  -9 1476.75   61.59
  -1   0   9 1418.26   57.69
  -1   0   9 1424.66   59.49
  -1   0   9 1469.45   61.39
   0   0  -9   23.60    6.50
   0   0   9   13.70    5.60
   0   0   9   22.40    5.40
   0   0   9    4.70    5.00
  -1   0  -9   64.79    9.40
   1   0   9   74.89   13.20
   1   0   9   70.99    7.10
   1   0   9   68.09    9.80
  -2   0  -9    7.00    5.30
  -2   0  -9    2.20    6.40
   2   0   9   -2.20    4.60
   2   0   9   -0.60    3.70
  -3   0  -9  487.65   27.90
  -3   0  -9  486.35   28.20
   3   0   9  479.55   23.90
   3   0   9  482.65   27.00
  -4   0  -9   30.80   10.50
  -4   0  -9   24.70    8.20
   4   0   9   39.20    8.50
   4   0   9   47.00    9.60
  -5   0  -9  205.08   18.60
  -5   0  -9  221.58   20.60
   5   0   9  235.58   17.40
   5   0   9  227.28   18.60
  -6   0  -9    3.00    9.80
  -6   0  -9    7.10    7.40
   6   0   9    1.80    7.50
   6   0   9   10.80    6.80
  -7   0  -9   61.69   16.50
   7   0   9   48.80   12.30
  -8   0  -9   21.20   13.90
   8   0   9   19.40   12.40
   8   0   9   58.79   12.90
  -9   0  -9  212.48   26.40
   9   0   9  216.38   21.70
 -10   0  -9    7.40   15.20
  10   0   9   15.80   10.80
 -11   0  -9   14.00   16.60
  11   0   9   -5.50    8.30
  14  -1  -9    2.70    9.90
 -14   1   9   27.30   15.20
  13  -1  -9   22.70   12.70
 -13   1   9   12.00   11.50
  12  -1  -9   44.90   14.50
 -12   1   9   27.70   12.90
  11  -1  -9   -1.20    8.80
 -11   1   9    3.50    9.30
  10  -1  -9  166.78   20.00
 -10   1   9  225.88   21.50
   9  -1  -9   29.80    9.80
   9  -1  -9   18.70    8.50
   9  -1  -9   38.70   14.20
  -9   1   9   28.60   11.40
   8  -1  -9  940.41   47.10
   8  -1  -9  852.41   48.00
  -8   1   9  888.41   45.90
  -8   1   9  981.50   46.70
   7  -1  -9    3.60    5.40
   7  -1  -9   -4.30    6.30
  -7   1   9    1.90    5.50
  -7   1   9   -4.40    6.10
   6  -1  -9   -2.00    4.10
   6  -1  -9    6.50    7.80
  -6   1   9    5.60    5.00
  -6   1   9    2.50    5.70
   5  -1  -9   17.30    7.60
   5  -1  -9   -2.90    3.60
  -5   1   9    7.70    5.60
  -5   1   9    3.40    5.10
   4  -1  -9  138.69   12.10
   4  -1  -9  136.19   12.90
  -4   1   9  129.19   12.70
  -4   1   9  131.29   11.00
   3  -1  -9   10.70    5.40
   3  -1  -9    1.10    4.00
  -3   1   9   11.80    4.70
  -3   1   9    2.50    5.10
   2  -1  -9  111.59    9.60
   2  -1  -9  109.09   10.80
  -2   1   9  108.79   11.30
  -2   1   9  114.09    7.50
   1  -1  -9   -0.40    4.10
  -1   1   9   -2.60    2.40
  -1   1   9    0.30    3.70
  -1   1   9   14.60    5.60
   0  -1  -9  329.27   20.10
  -1  -1  -9   -1.60    4.20
   1   1   9    3.00    4.70
   1   1   9    0.90    4.50
   1   1   9    0.70    3.10
  -2  -1  -9  226.58   16.80
  -2  -1  -9  223.68   15.70
   2   1   9  208.18   12.30
   2   1   9  209.58   16.00
  -3  -1  -9   27.40    9.00
  -3  -1  -9    7.50    5.60
   3   1   9   26.80    8.10
   3   1   9   20.50    6.10
  -4  -1  -9   11.20    7.50
  -4  -1  -9    1.40    6.10
   4   1   9   20.80    8.10
   4   1   9   12.30    6.50
  -5  -1  -9   79.69   14.40
  -5  -1  -9   95.69   13.80
   5   1   9   85.19   12.80
   5   1   9   53.59   10.90
  -6  -1  -9  124.09   16.00
  -6  -1  -9  123.49   19.40
   6   1   9  114.09   14.70
   6   1   9  109.09   15.80
  -7  -1  -9   35.10   13.90
   7   1   9    8.70    9.90
   7   1   9   18.90    8.60
  -8  -1  -9   -7.50   11.30
   8   1   9   -3.40    6.50
   8   1   9    4.40   11.70
  -9  -1  -9   -5.60   11.30
   9   1   9   27.50   10.90
 -10  -1  -9   47.10   18.70
  10   1   9   20.20   11.80
 -11  -1  -9   22.10   17.30
  11   1   9   27.30   12.00
  14  -2  -9   55.79   18.90
 -14   2   9   50.69   17.50
  13  -2  -9   15.90   11.90
 -13   2   9    9.30   11.70
 -12   2   9    1.20   11.70
  11  -2  -9   -1.10    9.30
 -11   2   9   -2.20    9.20
  10  -2  -9    5.30    7.80
 -10   2   9    1.30    8.50
   9  -2  -9    0.20    8.40
   9  -2  -9    4.40    7.00
  -9   2   9    3.70    7.80
  -9   2   9    2.90    6.00
   8  -2  -9   35.00    9.60
   8  -2  -9   49.20   13.30
  -8   2   9   44.20   11.00
  -8   2   9   23.80   10.70
   7  -2  -9   94.49   13.30
   7  -2  -9  105.79   13.20
  -7   2   9   97.69   13.10
   6  -2  -9   10.10    5.90
   6  -2  -9   20.20    8.00
  -6   2   9   15.50    7.00
  -6   2   9   20.20    7.40
   5  -2  -9   79.39   11.80
   5  -2  -9   85.69   10.80
  -5   2   9   83.99   11.30
  -5   2   9   92.79   10.20
   4  -2  -9    6.60    5.20
   4  -2  -9    5.20    4.50
  -4   2   9    3.50    5.30
  -4   2   9    5.10    4.20
   3  -2  -9   15.90    6.30
   3  -2  -9   25.00    6.50
  -3   2   9   24.00    7.40
  -3   2   9   20.80    4.90
   2  -2  -9    7.40    3.50
   2  -2  -9    1.60    4.40
  -2   2   9    1.40    5.00
  -2   2   9   11.60    4.50
   1  -2  -9    6.80    4.80
  -1   2   9    5.00    6.00
   0  -2  -9   -6.40    4.20
   0   2   9   -0.10    4.80
  -1  -2  -9   12.00    5.80
   1   2   9   26.00    8.10
  -2  -2  -9   -8.70    5.30
  -2  -2  -9   -4.40    4.30
   2   2   9    0.60    4.30
   2   2   9    5.50    5.00
  -3  -2  -9   99.69   11.20
  -3  -2  -9  102.09   12.60
   3   2   9   98.69   10.50
   3   2   9  112.69   12.20
  -4  -2  -9  178.58   15.80
   4   2   9  174.18   19.40
   4   2   9  192.58   16.70
  -5  -2  -9  250.87   19.60
  -5  -2  -9  171.38   18.90
   5   2   9  242.98   19.50
   5   2   9  256.07   19.60
  -6  -2  -9    9.20    7.90
   6   2   9   16.20   10.80
   6   2   9   -6.80    6.10
  -7  -2  -9   10.00   10.40
   7   2   9  -13.40   10.20
   7   2   9    8.40    8.10
  -8  -2  -9   28.90   13.30
   8   2   9    6.70   13.10
   8   2   9   13.90    9.20
  -9  -2  -9   11.50   13.30
   9   2   9   30.60   12.60
 -10  -2  -9   31.60   16.40
  10   2   9    8.10   10.10
  13  -3  -9   34.90   14.40
 -13   3   9    1.20   10.70
  12  -3  -9  131.19   24.10
 -12   3   9   70.29   21.40
  11  -3  -9   48.30   15.40
 -11   3   9   34.80   13.40
  10  -3  -9   23.90   10.70
 -10   3   9   -6.60    7.70
   9  -3  -9    7.70    9.60
  -9   3   9    7.40    8.80
  -9   3   9   14.10    7.40
   8  -3  -9  104.79   17.40
   8  -3  -9  115.39   18.60
  -8   3   9   90.39   16.60
  -8   3   9   88.29   15.20
   7  -3  -9    0.30    6.50
   7  -3  -9   15.60    7.40
  -7   3   9   -0.80    5.50
  -7   3   9   -2.40    7.30
   6  -3  -9  634.24   34.00
   6  -3  -9  547.95   31.30
  -6   3   9  649.24   34.70
  -6   3   9  612.54   31.90
   5  -3  -9    4.80    5.60
  -5   3   9    4.30    5.80
  -5   3   9   -7.60    4.30
   4  -3  -9   13.70    5.40
   4  -3  -9    8.10    5.70
  -4   3   9   13.50    6.30
  -4   3   9   10.20    5.50
   3  -3  -9   35.60    8.10
   3  -3  -9   38.90    6.10
  -3   3   9   47.80    9.30
  -3   3   9   44.60    6.60
   2  -3  -9 1791.52   76.49
  -2   3   9 1811.82   76.79
   1  -3  -9   17.60    6.20
  -1   3   9   32.40    8.50
   0  -3  -9   10.10    6.00
   0   3   9   -3.30    4.90
  -1  -3  -9   37.80    8.80
   1   3   9   38.20    8.90
  -2  -3  -9  750.72   31.00
  -2  -3  -9  749.62   37.60
   2   3   9  668.93   30.50
   2   3   9  724.53   36.60
  -3  -3  -9   90.99   12.80
  -3  -3  -9  114.89   10.90
   3   3   9  105.69   12.80
   3   3   9  108.69   11.50
  -4  -3  -9  885.91   45.30
  -4  -3  -9  888.61   41.10
   4   3   9  873.61   44.10
   4   3   9  914.41   42.90
  -5  -3  -9    6.50    7.90
  -5  -3  -9    7.70    8.10
   5   3   9    6.30    6.80
   5   3   9   13.50    9.80
  -6  -3  -9  142.29   31.70
   6   3   9  163.98   16.90
   6   3   9  114.99   19.20
  -7  -3  -9   21.70   11.70
   7   3   9    0.40   12.80
   7   3   9   20.20    9.40
  -8  -3  -9  103.39   19.40
   8   3   9   56.99   20.30
   8   3   9   87.69   16.70
  -9  -3  -9   -1.60   11.60
   9   3   9   -8.20   13.80
 -10  -3  -9   61.99   19.70
  10   3   9   59.29   15.20
  13  -4  -9   86.49   20.20
 -13   4   9  110.49   24.70
  12  -4  -9   14.70   10.30
 -12   4   9   20.80   14.40
  11  -4  -9   -9.00    6.80
 -11   4   9   -3.10    9.40
  10  -4  -9    7.20    8.20
 -10   4   9  -12.80    7.00
   9  -4  -9   62.29   14.90
  -9   4   9   57.89   14.40
  -9   4   9   21.30   12.50
   8  -4  -9   13.00    8.70
  -8   4   9    4.70    8.00
  -8   4   9    1.00    6.50
   7  -4  -9  275.87   20.10
   7  -4  -9  251.27   22.50
  -7   4   9  257.77   21.40
   6  -4  -9    5.20    5.40
   6  -4  -9   -1.10    5.40
  -6   4   9   -1.70    6.40
  -6   4   9    1.00    5.50
   5  -4  -9   18.00    7.40
  -5   4   9   16.20    7.50
  -5   4   9   13.10    7.30
   4  -4  -9    9.90    8.50
   4  -4  -9   13.40    5.30
  -4   4   9   21.70    7.50
  -4   4   9    5.10    6.40
   3  -4  -9  522.65   23.50
   3  -4  -9  547.65   30.20
  -3   4   9  525.95   25.40
  -3   4   9  568.44   30.70
   2  -4  -9   -5.40    3.80
  -2   4   9   -3.20    4.90
   1  -4  -9    7.50    5.30
  -1   4   9   -1.10    5.10
   0  -4  -9   21.90    7.80
   0   4   9   39.20    8.70
  -1  -4  -9  270.97   19.50
   1   4   9  257.27   19.10
  -2  -4  -9    0.70    6.30
  -2  -4  -9   13.40    4.70
   2   4   9   12.90    5.60
   2   4   9   21.70    7.90
  -3  -4  -9   39.10    7.70
  -3  -4  -9   46.30   10.80
   3   4   9   59.89   10.70
   3   4   9   24.40    8.80
  -4  -4  -9    1.20    7.30
  -4  -4  -9    5.60    6.30
   4   4   9   -0.50    8.50
   4   4   9    1.60    6.80
  -5  -4  -9   33.00   10.10
  -5  -4  -9   26.20   10.90
   5   4   9   13.40    9.10
   5   4   9   33.40   13.20
  -6  -4  -9   46.80   17.50
   6   4   9   15.60    9.10
   6   4   9   17.00   14.20
  -7  -4  -9   35.00   13.30
   7   4   9   53.59   19.10
   7   4   9   44.10   12.20
  -8  -4  -9   10.50   11.10
   8   4   9   14.50   17.60
   8   4   9    4.00    8.70
  -9  -4  -9   77.29   18.70
   9   4   9  138.69   19.60
  13  -5  -9   19.50   13.30
 -13   5   9   16.90   15.60
  12  -5  -9  -10.20    8.30
 -12   5   9   -0.80   12.10
  11  -5  -9  104.79   22.10
 -11   5   9   35.80   15.60
  10  -5  -9  244.08   25.50
 -10   5   9  195.78   23.80
   9  -5  -9    2.90    8.10
  -9   5   9   12.40   10.50
  -9   5   9    0.40    6.40
   8  -5  -9   20.90    9.80
  -8   5   9    5.90   10.50
  -8   5   9    6.10    7.60
   7  -5  -9    0.80    6.30
  -7   5   9    2.90    6.90
   6  -5  -9    9.30    6.30
  -6   5   9   14.80    9.20
  -6   5   9    5.80    8.00
   5  -5  -9   15.60    7.10
   5  -5  -9    0.50    5.80
  -5   5   9   12.30    8.10
  -5   5   9    7.50    6.60
   4  -5  -9    8.80    6.60
   4  -5  -9    5.90    4.90
  -4   5   9   11.40    6.70
  -4   5   9   14.60    7.70
   3  -5  -9    2.00    5.00
   3  -5  -9   15.20    6.50
   3  -5  -9   -1.70    3.40
  -3   5   9   -2.80    4.70
   2  -5  -9  129.59   13.70
  -2   5   9  124.79   13.80
   1  -5  -9   25.50    8.30
  -1   5   9   30.20    8.80
   0  -5  -9    6.30    7.70
   0   5   9    3.10    6.30
  -1  -5  -9    1.20    5.90
   1   5   9    8.70    7.30
  -2  -5  -9   59.79    6.80
  -2  -5  -9   59.89   11.80
   2   5   9   66.89   12.50
  -3  -5  -9    3.60    7.20
  -3  -5  -9    8.70    5.50
   3   5   9    4.60    6.60
   3   5   9    7.90    7.80
  -4  -5  -9   12.30    9.10
  -4  -5  -9   -7.90    6.00
   4   5   9   -6.30    6.60
  -5  -5  -9    7.50    7.70
   5   5   9   15.80   12.20
   5   5   9   14.00    9.10
  -6  -5  -9   18.60   10.30
   6   5   9   30.40   11.00
   6   5   9   47.70   17.80
  -7  -5  -9   27.60   11.70
   7   5   9   47.40   13.40
   7   5   9   62.29   20.30
  -8  -5  -9   20.70   12.40
   8   5   9   53.99   14.50
   8   5   9   20.40   22.10
  -9  -5  -9   55.49   16.70
   9   5   9   93.59   17.10
  12  -6  -9  -11.60    8.10
 -12   6   9    7.80   12.70
  11  -6  -9  235.58   26.70
 -11   6   9  204.98   26.40
  10  -6  -9    6.80   10.30
 -10   6   9   19.10   13.20
   9  -6  -9    4.50    8.30
  -9   6   9   -7.30    4.40
  -9   6   9   17.40   13.00
   8  -6  -9    4.10    7.30
  -8   6   9   -4.40    8.70
  -8   6   9  -10.70    5.30
   7  -6  -9  284.77   20.70
  -7   6   9  339.67   25.60
  -7   6   9  252.37   24.00
   6  -6  -9   17.20    7.00
  -6   6   9   45.10   12.70
  -6   6   9   20.70   10.30
   5  -6  -9   14.10    6.80
  -5   6   9   27.80   11.20
  -5   6   9   40.70   11.00
   4  -6  -9    4.40    4.80
   4  -6  -9    1.30    6.60
  -4   6   9    0.80    6.40
   3  -6  -9  432.66   20.30
   3  -6  -9  457.75   28.10
   3  -6  -9  463.15   24.00
  -3   6   9  388.86   27.30
   2  -6  -9   11.10    6.80
   2  -6  -9   12.60    4.40
   2  -6  -9   10.80    3.10
  -2   6   9   10.10    7.40
   1  -6  -9   48.30   10.70
  -1   6   9   30.40    9.50
   0  -6  -9    8.50    6.70
   0   6   9   17.40    8.30
  -1  -6  -9  122.09   14.60
   1   6   9  120.69   14.80
  -2  -6  -9   25.40    8.80
  -2  -6  -9   13.20    4.60
   2   6   9    9.70    7.40
  -3  -6  -9  158.98   12.20
  -3  -6  -9  119.99   16.40
   3   6   9  179.78   17.60
   3   6   9  190.98   17.80
  -4  -6  -9   17.20    7.70
   4   6   9   -7.30   14.10
   4   6   9   17.90    9.50
  -5  -6  -9    6.40    7.70
   5   6   9   19.40   10.70
   5   6   9   33.30   14.80
  -6  -6  -9   63.99   13.50
   6   6   9   27.40   18.50
   6   6   9  100.39   16.10
  -7  -6  -9   83.79   16.20
   7   6   9   71.19   24.40
   7   6   9   92.79   16.50
  -8  -6  -9   37.00   12.90
   8   6   9   67.29   27.40
   8   6   9   34.30   15.80
  12  -7  -9  106.19   23.50
 -12   7   9   98.29   26.00
  11  -7  -9    5.70   11.00
 -11   7   9   56.29   19.60
  10  -7  -9   58.19   17.60
 -10   7   9   80.09   20.80
   9  -7  -9   24.40   12.10
   9  -7  -9   15.50    9.60
  -9   7   9   10.40   12.20
   8  -7  -9   16.80   10.30
  -8   7   9   19.10   12.30
  -8   7   9   29.40   11.50
   7  -7  -9   -5.50    5.80
  -7   7   9    1.20    7.50
  -7   7   9    1.10    9.40
   6  -7  -9   26.10    8.50
  -6   7   9   -9.30    8.00
  -6   7   9   -2.60    6.70
   5  -7  -9   40.20    8.50
  -5   7   9   68.59   14.70
  -5   7   9   48.70   11.70
   4  -7  -9  223.28   14.80
   4  -7  -9  262.37   20.90
  -4   7   9  265.47   22.00
   3  -7  -9   33.80    9.10
   3  -7  -9   45.50    6.60
  -3   7   9   44.30   11.30
   2  -7  -9  216.98   13.90
   2  -7  -9  237.88   12.10
  -2   7   9  266.27   20.80
   1  -7  -9   18.20    4.60
   1  -7  -9   13.50    8.50
   1  -7  -9   12.10    2.90
  -1   7   9   18.20    8.90
   0  -7  -9  257.37   21.60
   0   7   9  247.48   20.50
  -1  -7  -9   91.09    8.80
  -1  -7  -9   53.09   12.10
   1   7   9  100.29   14.50
  -2  -7  -9   -2.20   10.50
  -2  -7  -9   11.70    5.10
  -2  -7  -9   -0.50    8.20
   2   7   9   12.10    8.50
  -3  -7  -9   -1.30    5.30
   3   7   9    3.20    7.50
  -4  -7  -9    4.80    7.20
   4   7   9   -9.40    7.60
   4   7   9    1.00   12.00
  -5  -7  -9   27.10    9.80
   5   7   9   35.60   12.40
   5   7   9   39.30   18.70
  -6  -7  -9    0.20    9.00
   6   7   9   -4.40    9.30
   6   7   9   22.80   18.70
  -7  -7  -9    0.10   11.40
   7   7   9   30.70   12.90
  11  -8  -9   13.50   12.60
  10  -8  -9   -7.70    8.00
 -10   8   9   -6.40   11.30
   9  -8  -9    6.70   10.30
   9  -8  -9    9.20   10.30
  -9   8   9   36.50   15.40
   8  -8  -9   -1.40    7.40
  -8   8   9   -3.00   10.40
  -8   8   9   -0.90    7.30
   7  -8  -9    5.40    6.90
  -7   8   9    8.90   11.90
  -7   8   9    9.40    9.60
   6  -8  -9   38.00   10.00
  -6   8   9   30.20   11.80
  -6   8   9   48.20   18.80
   5  -8  -9  182.78   21.10
   5  -8  -9  183.48   14.50
  -5   8   9  197.48   20.70
   4  -8  -9   13.70    9.80
  -4   8   9    3.20    8.30
   3  -8  -9   18.00    5.70
   3  -8  -9   -0.70    7.80
  -3   8   9   24.60   11.00
   2  -8  -9   88.59   10.70
   2  -8  -9   85.89    8.00
  -2   8   9   93.09   15.00
   1  -8  -9   55.29    6.30
   1  -8  -9   45.30    7.60
  -1   8   9   68.19   14.60
   0  -8  -9   19.30    4.50
   0  -8  -9   16.30    4.90
   0   8   9   22.40    9.60
  -1  -8  -9   21.40    5.60
  -1  -8  -9   18.40    7.40
   1   8   9   17.10    9.70
  -2  -8  -9   17.00    6.40
  -2  -8  -9   11.70    9.40
   2   8   9    6.40    8.70
  -3  -8  -9    4.40    6.30
   3   8   9   13.10    9.60
  -4  -8  -9   41.10    9.40
   4   8   9   39.00   16.20
   4   8   9   29.80   11.60
  -5  -8  -9   13.20   11.20
   5   8   9   10.10   10.20
   5   8   9    9.60   17.60
  -6  -8  -9   11.30   10.00
   6   8   9   -6.70   10.30
   6   8   9   28.10   22.00
  10  -9  -9   -3.00    9.70
 -10   9   9    3.40   14.10
   9  -9  -9   -3.70    9.40
  -9   9   9   20.30   15.70
   8  -9  -9  312.37   23.70
  -8   9   9  269.57   30.40
  -8   9   9  333.07   28.60
   7  -9  -9    9.50    7.20
  -7   9   9    7.80   12.50
  -7   9   9    0.20    7.60
   6  -9  -9   -7.40   12.30
   6  -9  -9    4.10    6.60
  -6   9   9   13.50   10.30
   5  -9  -9    4.70   10.90
   5  -9  -9    9.20    6.40
  -5   9   9    4.90    8.50
   4  -9  -9   38.30    8.30
   4  -9  -9   66.29   15.40
  -4   9   9   86.89   17.30
   3  -9  -9   12.80    9.10
   3  -9  -9    9.60    6.00
  -3   9   9    8.60    8.70
   2  -9  -9   15.80    5.50
   2  -9  -9   19.10    8.30
  -2   9   9    5.30    8.90
   1  -9  -9    6.60    5.10
   1  -9  -9    6.00    6.30
  -1   9   9    6.30    8.10
   0  -9  -9    6.30    5.20
   0  -9  -9   28.20    7.10
   0   9   9    6.70    9.20
  -1  -9  -9   39.60    9.90
  -1  -9  -9   64.39    8.60
   1   9   9   65.99   14.50
  -2  -9  -9    8.60   10.60
  -2  -9  -9   10.70    6.80
   2   9   9    4.10    8.60
  -3  -9  -9   14.30   14.20
  -3  -9  -9   12.50    7.60
   3   9   9   -6.90    9.30
  -4  -9  -9   13.70    8.70
   4   9   9    1.60   10.90
  -5  -9  -9   37.30   14.10
   5   9   9   40.90   22.00
   5   9   9   43.20   14.30
   9 -10  -9  308.87   31.60
  -9  10   9  182.28   29.00
   8 -10  -9   -0.10    8.10
   8 -10  -9   16.10   12.90
  -8  10   9   -2.80   11.80
   7 -10  -9    9.20   15.20
   7 -10  -9   -4.30   12.10
  -7  10   9    3.70    8.10
   6 -10  -9   40.40   10.40
   6 -10  -9  103.29   22.10
  -6  10   9   44.20   12.90
   5 -10  -9   85.29   28.80
   5 -10  -9   79.49   11.60
  -5  10   9  114.79   18.30
   4 -10  -9    2.80   10.70
   4 -10  -9    5.90    6.10
  -4  10   9    1.90    9.00
   3 -10  -9   15.90    7.00
   3 -10  -9   10.50   10.40
  -3  10   9   11.20   10.00
   2 -10  -9   28.10   10.00
   2 -10  -9    5.30    6.60
  -2  10   9   10.90   13.50
   1 -10  -9   -3.60    6.50
   1 -10  -9    0.40    5.10
  -1  10   9   -5.50    8.50
   0 -10  -9   34.90    8.00
   0 -10  -9   37.90    7.60
   0  10   9   30.30   12.10
  -1 -10  -9   16.70    7.40
  -1 -10  -9   29.80   10.20
   1  10   9   34.10   12.10
  -2 -10  -9    4.50    6.80
   2  10   9   18.10   11.40
  -3 -10  -9    0.40    7.70
  -3 -10  -9    0.50   13.70
   3  10   9   10.80   10.50
   7 -11  -9   14.20    9.50
   7 -11  -9   19.20   17.70
  -7  11   9   45.00   13.90
   6 -11  -9   14.20    9.20
   6 -11  -9   30.20   16.00
  -6  11   9   18.70   12.10
   5 -11  -9   -0.40   12.90
   5 -11  -9    1.50    7.10
  -5  11   9   -3.70    7.60
   4 -11  -9   23.30   16.30
   4 -11  -9    2.80    6.40
  -4  11   9   18.70   11.70
   3 -11  -9   40.00    8.80
   3 -11  -9   85.69   15.80
  -3  11   9   80.49   17.20
   2 -11  -9   20.20   10.30
   2 -11  -9   -1.80    6.60
  -2  11   9   -0.50    9.80
   1 -11  -9    4.80    7.80
  -1  11   9   13.60   10.50
   0 -11  -9   -4.90    6.80
   0 -11  -9   13.50   13.10
   0  11   9   -4.90   10.20
  -1 -11  -9    9.90    7.50
   1  11   9    6.30   11.50
  -2 -15  10    2.40   24.10
  -1 -15  10   12.10    5.10
  -1 -15  10    3.50   25.30
  -1 -15  10    6.20    4.80
   0 -15  10   10.50    7.90
   0 -15  10  -12.10   21.40
   0 -15  10    8.00    7.70
   1 -15  10  -19.10   22.20
   1 -15  10    5.80    9.30
   1 -15  10   -2.90    8.60
   2 -15  10   62.69   13.50
   2 -15  10   96.19   15.40
   2 -15  10   53.29   28.50
   3 -15  10   -0.70   22.30
   3 -15  10   -2.30    9.30
  -5 -14  10   16.70   23.80
  -4 -14  10   -2.00   21.90
  -3 -14  10   64.39   28.60
  -2 -14  10   12.40   25.70
  -1 -14  10   14.40   22.30
  -1 -14  10   26.70    6.80
  -1 -14  10   32.90    7.10
   0 -14  10    3.90    7.30
   0 -14  10    4.40    7.50
   0 -14  10   32.00   24.80
   1 -14  10   41.20   10.80
   1 -14  10   -4.20   22.10
   1 -14  10   38.00   10.40
   2 -14  10   21.80   10.10
   2 -14  10   33.90   27.10
   2 -14  10   34.00   10.70
   3 -14  10   14.60   21.30
   3 -14  10   43.70   11.90
   4 -14  10   37.40   12.50
   4 -14  10   79.09   32.10
   5 -14  10   61.89   29.20
   5 -14  10    9.70   13.00
   6 -14  10   -1.90    9.70
   6 -14  10   -5.70   21.30
  -6 -13  10   61.09   24.30
  -5 -13  10   32.50   25.50
  -4 -13  10  -10.20   18.60
  -3 -13  10   11.60   23.60
  -2 -13  10  124.69   34.90
  -1 -13  10   20.40    7.00
  -1 -13  10   15.90    7.40
  -1 -13  10   41.40   25.30
   0 -13  10   25.90    8.40
   0 -13  10   14.70   21.60
   0 -13  10    2.20    7.10
   1 -13  10    4.30    7.60
   1 -13  10   -2.10    7.50
   1 -13  10  -16.10   18.50
   2 -13  10   45.10   26.10
   2 -13  10   52.99   11.60
   2 -13  10   65.09   18.50
   3 -13  10  102.99   16.70
   3 -13  10  179.68   18.50
   3 -13  10  205.18   42.20
   4 -13  10    7.60    9.80
   4 -13  10   -2.00   19.60
   5 -13  10   15.20   10.70
   5 -13  10   19.20   24.30
   6 -13  10   25.00   23.50
   6 -13  10   16.20   10.50
   7 -13  10   35.20   30.70
   7 -13  10   32.50   12.70
  -8 -12  10    4.30   18.90
  -7 -12  10   60.89   24.70
  -6 -12  10  -11.60   19.20
  -5 -12  10  224.98   36.10
  -4 -12  10   13.60   22.00
  -3 -12  10  122.69   33.10
  -2 -12  10   10.50    4.20
  -2 -12  10  -10.70   18.50
  -2 -12  10   12.30    4.50
  -1 -12  10   54.09    8.60
  -1 -12  10   77.99   30.10
   0 -12  10    7.80    6.80
   0 -12  10    1.90    6.70
   1 -12  10   18.10    9.00
  -2  12 -10   16.50   10.00
   2 -12  10    8.80    8.60
   2 -12  10   25.90   22.10
  -3  12 -10   13.10   11.00
   3 -12  10   15.90   20.30
   3 -12  10   19.20    9.30
   4 -12  10    2.50   16.80
   4 -12  10   14.90    9.70
   5 -12  10    2.20    8.50
   5 -12  10  -18.20   17.40
   6 -12  10  -11.00   19.50
   6 -12  10   40.60   16.20
   7 -12  10   30.50   25.90
   7 -12  10   32.10   12.70
   8 -12  10   27.30   12.80
   8 -12  10   26.80   27.80
  -9 -11  10    0.30   20.10
  -8 -11  10    6.50   20.00
  -7 -11  10   18.10   17.10
  -6 -11  10   99.69   27.10
  -5 -11  10   21.50   19.80
  -3 -11  10   21.20   18.70
  -2 -11  10    5.80   16.80
  -2 -11  10    8.40    4.30
  -2 -11  10    7.80    4.50
  -1 -11  10   53.39   24.00
  -1 -11  10   28.80    6.90
   0  11 -10   23.90    8.60
   0 -11  10   42.00   20.70
   0 -11  10   51.49    9.20
  -1  11 -10    0.70    6.90
   1 -11  10   -7.70    5.30
   1 -11  10  -15.70   14.80
  -2  11 -10   16.30    9.60
   2 -11  10   29.80   22.50
   2 -11  10   14.30    7.90
  -3  11 -10   57.09   13.50
   3 -11  10   65.29   13.40
   3 -11  10   62.09   26.90
  -4  11 -10    9.60   11.60
   4 -11  10   20.10    9.70
   4 -11  10   15.20   24.00
   5 -11  10   20.50   21.30
   5 -11  10    6.70    9.50
   6 -11  10   44.60   26.90
   6 -11  10   21.60   10.00
  -7  11 -10   28.00   23.90
   7 -11  10   25.10   12.10
   7 -11  10   49.70   27.90
  -8  11 -10   22.40   23.30
   8 -11  10    9.50    9.80
  -9  11 -10   88.79   33.40
   9 -11  10   52.09   16.30
 -10 -10  10   -1.60   16.10
  -9 -10  10   19.70   18.60
  -8 -10  10   58.59   22.00
  -7 -10  10   25.70   18.20
  -6 -10  10   -5.30   14.40
  -5 -10  10   11.20   19.40
  -4 -10  10   86.89   25.20
  -3 -10  10   91.49    6.30
  -3 -10  10  165.88   30.50
  -3 -10  10  130.89    6.40
   2  10 -10  135.19   10.80
  -2 -10  10  110.69   28.90
  -2 -10  10  100.89    9.20
   1  10 -10   32.00    8.30
  -1 -10  10    9.40   17.90
  -1 -10  10   11.80    6.00
   0  10 -10    0.90    6.20
   0 -10  10    0.50   17.80
   0 -10  10    3.80    5.60
  -1  10 -10   10.90    7.80
   1 -10  10   19.60    8.30
   1 -10  10    2.30   17.90
  -2  10 -10  363.76   24.90
   2 -10  10  310.67   37.20
   2 -10  10  338.87   23.20
  -3  10 -10   58.79   14.10
   3 -10  10   68.09   12.90
   3 -10  10   73.19   23.30
  -4  10 -10   64.39   15.10
   4 -10  10   79.29   27.90
   4 -10  10   81.29   14.60
   5 -10  10  -14.60   18.70
   5 -10  10    5.90    8.10
  -6  10 -10  125.19   37.80
   6 -10  10  143.49   44.00
   6 -10  10  160.48   19.50
  -7  10 -10   29.30   23.90
   7 -10  10    1.60   10.00
  -8  10 -10  122.79   35.00
   8 -10  10  159.48   20.80
  -9  10 -10   -9.50   20.50
   9 -10  10    6.00    9.50
 -10  10 -10   -4.40   24.40
  10 -10  10   13.90   11.50
 -11  -9  10    6.70   16.80
 -10  -9  10  116.59   25.40
  -9  -9  10   18.50   17.20
  -8  -9  10   24.90   18.60
  -6  -9  10  103.29   21.80
  -5  -9  10   18.20   16.30
  -4  -9  10  -18.70   13.10
   3   9 -10   44.10    6.70
  -3  -9  10   36.80    5.20
  -3  -9  10   31.70   18.50
   2   9 -10  336.97   17.80
   2   9 -10  287.67   34.50
  -2  -9  10  282.47   32.70
  -2  -9  10  279.87   16.00
   1   9 -10  123.49   12.70
  -1  -9  10  149.09   11.70
  -1  -9  10  161.78   26.70
  -1  -9  10  134.39   31.00
   0   9 -10  643.14   33.20
  -1   9 -10   45.70   10.40
   1  -9  10   43.80   18.10
   1  -9  10   27.50   17.10
   1  -9  10   45.60   14.50
  -2   9 -10   26.80    9.80
   2  -9  10   14.30   17.40
   2  -9  10    3.70   15.00
   2  -9  10   23.40    9.00
  -3   9 -10   13.60    9.10
   3  -9  10  -10.00    6.00
   3  -9  10    2.90   16.10
  -4   9 -10   49.30   13.10
   4  -9  10   68.59   24.30
   4  -9  10   67.99   12.40
   5  -9  10  147.69   32.80
   5  -9  10  122.19   16.20
  -6   9 -10   20.10   19.80
   6  -9  10   -4.70    7.00
  -7   9 -10  -13.20   28.00
   7  -9  10    8.20    8.90
  -8   9 -10   47.40   24.90
   8  -9  10    3.40    8.70
  -9   9 -10   25.70   23.90
   9  -9  10    4.70   10.20
 -10   9 -10   11.70   23.60
  10  -9  10   -4.60    9.80
 -11  -8  10  176.88   27.90
 -10  -8  10   73.89   23.20
  -9  -8  10   91.89   23.50
  -8  -8  10    4.10   21.10
  -7  -8  10  108.59   24.20
  -6  -8  10  -16.20   11.30
  -5  -8  10  217.58   27.70
   4   8 -10   16.80   16.30
   4   8 -10    7.70    3.40
  -4  -8  10    6.80    3.20
  -4  -8  10    0.60   13.50
   3   8 -10   12.50    4.60
   3   8 -10   21.40   15.50
  -3  -8  10  -13.20   12.00
  -3  -8  10   -1.10    3.40
   2   8 -10   11.30    4.90
   2   8 -10    1.10   13.20
  -2  -8  10   19.90    5.30
  -2  -8  10  -14.60   10.40
   1   8 -10  226.98   16.10
   1   8 -10  192.18   27.00
  -1  -8  10  235.78   15.10
  -1  -8  10  254.47   29.40
   0   8 -10   13.40    6.60
   0  -8  10   25.80   16.80
   0  -8  10   11.50    6.60
   0  -8  10   25.30   15.80
  -1   8 -10   16.30    7.60
   1  -8  10  -14.00   10.80
   1  -8  10   39.20   17.00
   1  -8  10   -1.70    4.60
  -2   8 -10  141.19   15.00
   2  -8  10  122.49   26.70
   2  -8  10  126.79   25.50
   2  -8  10  129.49   13.90
  -3   8 -10   22.50    9.10
   3  -8  10   21.60   17.20
   3  -8  10    7.10   13.80
   3  -8  10   18.50    7.70
  -4   8 -10    4.60    7.40
   4  -8  10    6.50   16.30
   4  -8  10    5.50   12.20
   4  -8  10   14.20    8.40
  -5   8 -10    7.70   16.80
  -5   8 -10    9.60    8.80
   5  -8  10    0.20    6.50
  -6   8 -10    6.00   17.70
   6  -8  10   15.40    8.40
  -7   8 -10  -10.30   17.80
   7  -8  10   -2.20    7.10
  -8   8 -10  252.87   38.30
   8  -8  10  232.08   23.30
  -9   8 -10    0.00   19.40
   9  -8  10   12.50   11.40
 -10   8 -10   31.00   25.40
  10  -8  10   31.80   12.90
 -11   8 -10    1.70   21.60
  11  -8  10   -2.00    8.90
  12   7 -10   22.20    7.50
  12   7 -10   28.30    7.30
 -12  -7  10   15.90   17.00
  11   7 -10    3.30    5.30
  11   7 -10    1.50    4.40
 -11  -7  10   24.20   15.70
  10   7 -10   -0.80    4.10
  10   7 -10    6.70    4.90
 -10  -7  10    7.50   13.50
   9   7 -10    2.30    3.60
   9   7 -10    5.80    4.00
  -9  -7  10   25.50   14.50
   8   7 -10   15.40    3.90
   8   7 -10   17.60    4.10
  -8  -7  10   10.70   14.60
   7   7 -10  114.29    8.00
   7   7 -10  139.09    8.40
  -7  -7  10  147.09   23.40
   6   7 -10   43.90    5.90
   6   7 -10   55.39    6.20
  -6  -7  10   55.69   16.50
   5   7 -10   20.90    4.60
   5   7 -10    7.20   16.30
  -5  -7  10   18.70    4.20
  -5  -7  10   32.90   14.70
   4   7 -10   98.89   21.20
   4   7 -10  124.09    9.20
  -4  -7  10  110.99    8.40
  -4  -7  10   70.29   18.30
   3   7 -10  411.66   20.70
  -3  -7  10  386.86   19.50
  -3  -7  10  432.86   34.10
   2   7 -10    9.30    4.70
   2   7 -10  -14.80    8.90
  -2  -7  10   11.20   12.60
  -2  -7  10   13.30    4.60
   1   7 -10   63.19   18.30
   1   7 -10   51.09    9.20
  -1  -7  10   51.99    8.30
  -1  -7  10   77.49   21.00
   0   7 -10   38.20    8.40
   0  -7  10   30.80    7.40
   0  -7  10   43.30   16.70
   0  -7  10   34.60   14.90
  -1   7 -10  325.97   21.10
   1  -7  10  322.27   20.00
   1  -7  10  275.27   29.20
   1  -7  10  257.27   29.30
  -2   7 -10   24.30    8.40
   2  -7  10   -4.80   11.20
   2  -7  10   16.20   14.80
   2  -7  10   12.60    6.70
  -3   7 -10  159.48   16.90
   3  -7  10  251.97   47.50
   3  -7  10  171.28   16.10
   3  -7  10  172.98   25.80
  -4   7 -10   -2.60    6.60
  -4   7 -10   -2.40   13.70
   4  -7  10   -6.20    9.20
   4  -7  10    2.40    6.40
  -5   7 -10  202.28   34.40
  -5   7 -10  174.18   18.70
   5  -7  10  131.99   20.60
   5  -7  10  163.68   17.40
  -6   7 -10    5.30   16.80
   6  -7  10   11.20    7.60
  -7   7 -10  165.58   32.50
   7  -7  10  147.99   18.30
  -8   7 -10   10.80   17.60
   8  -7  10  -10.90    7.30
  -9   7 -10   37.30   23.00
   9  -7  10    8.60    9.50
 -10   7 -10  -15.50   19.00
  10  -7  10    6.80   10.50
 -11   7 -10  145.99   36.70
  11  -7  10  152.78   22.10
  12   6 -10   17.40    7.60
  12   6 -10   24.50    8.60
 -12  -6  10   15.40   16.50
  11   6 -10    6.80    6.80
  11   6 -10    6.50    5.90
 -11  -6  10    4.30   13.20
  10   6 -10    7.60    6.10
  10   6 -10    3.50    5.10
 -10  -6  10   -6.10   11.40
   9   6 -10   83.49   10.00
   9   6 -10   64.19   13.00
  -9  -6  10   70.39   18.60
   8   6 -10  118.79   10.70
   8   6 -10  106.59    9.50
  -8  -6  10   82.89   19.10
   7   6 -10   97.99    9.10
   7   6 -10   68.69    7.90
  -7  -6  10   84.19   18.40
   6   6 -10   29.00   15.80
   6   6 -10   14.30    4.40
  -6  -6  10   16.80    4.80
  -6  -6  10   -3.40    8.30
   5   6 -10  217.38   27.20
   5   6 -10  264.47   14.80
  -5  -6  10  265.97   14.60
  -5  -6  10  300.57   26.60
   4   6 -10  197.58   12.50
   4   6 -10  195.98   24.70
  -4  -6  10  216.48   24.20
  -4  -6  10  184.28   12.00
   3   6 -10   58.09    7.80
   3   6 -10   62.89   17.60
  -3  -6  10   43.30    6.60
  -3  -6  10   35.40   14.20
   2   6 -10   15.80    8.20
   2   6 -10   22.90   14.20
  -2  -6  10   11.40   11.70
  -2  -6  10   11.30    4.50
   1   6 -10   86.99   19.40
   1   6 -10  103.09   10.40
  -1  -6  10  105.69    9.80
  -1  -6  10  110.29   21.00
   0   6 -10   93.39   10.70
   0  -6  10   66.09   18.90
   0  -6  10   69.89    9.60
   0  -6  10   95.09   20.60
  -1   6 -10    8.20    5.70
   1  -6  10   16.10   12.90
   1  -6  10    8.60    6.20
   1  -6  10   -6.70    9.00
  -2   6 -10  149.99   14.80
   2  -6  10  142.59   13.50
   2  -6  10  144.89   22.00
   2  -6  10  155.28   21.50
  -3   6 -10   -0.90    5.80
   3  -6  10    0.20    5.70
   3  -6  10    0.50   13.50
   3  -6  10    2.60   10.60
  -4   6 -10  384.06   37.20
  -4   6 -10  396.56   30.90
   4  -6  10  423.26   31.90
   4  -6  10  430.36   26.70
  -5   6 -10   11.50   16.10
  -5   6 -10   -5.40    5.30
   5  -6  10    5.20    9.90
   5  -6  10    4.60    6.40
  -6   6 -10   14.20   18.00
   6  -6  10   48.60   11.90
   6  -6  10   41.90   13.80
  -7   6 -10  -10.90   14.20
   7  -6  10   -7.90    6.00
  -8   6 -10   29.10   17.80
   8  -6  10   35.10   12.00
  -9   6 -10  -19.90   20.80
   9  -6  10   -5.40    7.20
 -10   6 -10   27.80   21.20
  10  -6  10   17.70   11.10
 -11   6 -10    5.10   18.40
  11  -6  10   -2.80    8.40
  13   5 -10    6.30   15.50
  13   5 -10   10.90    9.20
 -13  -5  10   -7.80   11.90
  12   5 -10   30.40    9.70
  12   5 -10   64.49   12.30
 -12  -5  10   47.10   17.00
  11   5 -10   38.90    8.90
 -11  -5  10   51.99   17.60
  10   5 -10    3.40    6.50
  10   5 -10    0.40    5.10
   9   5 -10   22.20    6.20
   9   5 -10   17.20    7.50
  -9  -5  10   14.10   13.20
   8   5 -10    3.10    4.60
   8   5 -10    4.50    6.10
  -8  -5  10   -6.10   10.00
   7   5 -10  147.39   24.30
   7   5 -10  167.28   12.80
  -7  -5  10  165.38   21.30
   6   5 -10  220.98   14.30
   6   5 -10  176.18   25.20
  -6  -5  10  231.88   23.20
  -6  -5  10  230.38   14.20
   5   5 -10    2.70   11.00
   5   5 -10    7.30    4.20
  -5  -5  10   20.20    5.70
  -5  -5  10   33.30   12.70
   4   5 -10   27.40   13.60
   4   5 -10   20.00    5.00
  -4  -5  10   19.30    5.10
  -4  -5  10   12.20   10.60
   3   5 -10  114.49   21.70
  -3  -5  10  146.79   10.90
  -3  -5  10  165.28   19.40
   2   5 -10   53.29    8.20
   2   5 -10   39.10   14.50
  -2  -5  10   66.69    7.90
  -2  -5  10   83.89   19.40
   1   5 -10   10.10   11.60
   1   5 -10   12.70    5.70
  -1  -5  10   18.10    5.80
  -1  -5  10   -0.10    9.40
   0   5 -10   13.90    6.20
   0  -5  10   25.60   13.20
   0  -5  10   17.50    5.80
   0  -5  10   31.00   13.80
  -1   5 -10    8.70    5.70
   1  -5  10    4.60    5.70
   1  -5  10   13.20   10.90
   1  -5  10   -7.90    8.60
  -2   5 -10    0.20    4.80
   2  -5  10    2.40    5.60
   2  -5  10    9.90   11.30
  -3   5 -10  391.06   34.20
  -3   5 -10  397.96   26.00
   3  -5  10  404.16   29.30
   3  -5  10  445.86   25.60
  -4   5 -10   -3.80   13.50
   4  -5  10   19.30   10.30
   4  -5  10    9.50    7.10
  -5   5 -10   53.89   12.40
  -5   5 -10   17.20   17.10
   5  -5  10   33.50   12.80
   5  -5  10   37.20   10.90
  -6   5 -10   15.40   15.90
   6  -5  10    4.80    7.90
   6  -5  10    9.70    7.70
  -7   5 -10  182.38   28.90
   7  -5  10  196.28   31.10
   7  -5  10  217.78   20.90
  -8   5 -10    1.70   15.90
   8  -5  10   -9.50    6.40
  -9   5 -10   15.90   18.50
   9  -5  10    6.20    8.80
 -10   5 -10    2.60   17.30
  10  -5  10    0.40    9.20
 -11   5 -10    8.90   21.20
  11  -5  10   21.40   13.60
  13   4 -10   43.00   11.80
  13   4 -10   52.19   13.00
 -13  -4  10   52.99   18.70
  12   4 -10   52.89   13.10
  12   4 -10   63.89   16.20
 -12  -4  10   50.59   16.20
  11   4 -10    5.20    7.30
  11   4 -10    6.60    8.10
 -11  -4  10    1.30   11.50
  10   4 -10   84.79   12.70
  10   4 -10   92.49   13.60
 -10  -4  10  124.29   20.00
   9   4 -10   75.29   12.30
   9   4 -10   60.39    9.80
  -9  -4  10   98.09   19.10
   8   4 -10  207.98   14.90
   8   4 -10  170.98   25.80
   8   4 -10  229.98   17.10
  -8  -4  10  245.48   23.30
   7   4 -10   48.70   16.50
   7   4 -10   50.99    8.20
  -7  -4  10   62.39   15.10
  -7  -4  10   63.49    9.50
   6   4 -10    0.70    9.60
   6   4 -10   13.10    5.00
  -6  -4  10   22.10    6.10
  -6  -4  10    9.30   10.60
   5   4 -10   18.10    5.10
   5   4 -10   12.20   10.70
  -5  -4  10   37.80   12.20
  -5  -4  10   25.50    6.10
   4   4 -10  455.45   23.00
   4   4 -10  458.25   32.80
  -4  -4  10  455.45   23.20
   3   4 -10    3.80    8.00
   3   4 -10   -2.10    3.40
  -3  -4  10   12.10    4.90
  -3  -4  10   -2.00    7.60
   2   4 -10  108.59   20.00
   2   4 -10   91.89    9.80
  -2  -4  10  109.09    9.70
  -2  -4  10  108.59   18.70
   1   4 -10   26.40   11.60
   1   4 -10   14.50    5.80
  -1  -4  10   13.30    5.20
  -1  -4  10   20.50   11.90
   0   4 -10  672.93   32.90
   0  -4  10  657.43   40.30
   0  -4  10  645.24   32.00
   0  -4  10  679.53   40.00
  -1   4 -10    3.70    4.60
   1  -4  10    9.10    9.90
   1  -4  10   -4.80    9.10
   1  -4  10    4.90    5.10
  -2   4 -10  850.21   42.20
   2  -4  10  858.91   45.90
   2  -4  10  908.11   42.20
   2  -4  10  873.11   49.00
  -3   4 -10   37.80   16.50
  -3   4 -10   16.20    7.00
   3  -4  10   23.60    9.90
   3  -4  10   18.30    7.20
  -4   4 -10   93.79   18.50
  -4   4 -10  126.79   22.90
   4  -4  10   87.69   15.50
   4  -4  10   72.69   11.20
  -5   4 -10    0.50    6.30
  -5   4 -10   29.90   16.10
   5  -4  10   -9.30    4.50
   5  -4  10   -5.00    7.30
  -6   4 -10  283.07   30.50
   6  -4  10  245.58   21.20
   6  -4  10  214.08   25.80
  -7   4 -10   14.70   15.30
   7  -4  10   19.00   10.80
   7  -4  10   19.40    9.60
  -8   4 -10    5.40   15.80
   8  -4  10   24.20   12.10
  -9   4 -10   15.00   15.20
   9  -4  10    0.00    7.90
 -10   4 -10    8.70   17.20
  10  -4  10   52.29   14.40
 -11   4 -10    6.50   18.50
  11  -4  10    6.70   10.50
  13   3 -10   26.50   10.90
 -13  -3  10   20.50   13.40
  12   3 -10   -1.90    7.10
  12   3 -10    3.30    9.30
 -12  -3  10   -0.70   10.80
  11   3 -10   26.60   10.70
  11   3 -10   32.20   12.50
 -11  -3  10   37.90   16.10
  10   3 -10   83.19   12.60
  10   3 -10  117.19   15.30
 -10  -3  10  113.59   18.30
   9   3 -10  196.88   16.20
   9   3 -10  202.68   18.00
  -9  -3  10  252.77   23.30
   8   3 -10    6.30   12.00
   8   3 -10   -5.20    4.50
  -8  -3  10   -7.30    8.80
  -8  -3  10    6.20    6.60
   7   3 -10  144.49   28.70
   7   3 -10   65.79    8.90
  -7  -3  10  112.99   18.70
  -7  -3  10   62.99    9.60
   6   3 -10   15.90    5.30
   6   3 -10   19.90   11.10
  -6  -3  10   17.50    5.60
  -6  -3  10    7.70    8.80
   5   3 -10  276.77   24.60
   5   3 -10  286.57   17.00
  -5  -3  10  294.27   17.80
  -5  -3  10  255.97   26.60
   4   3 -10   61.69   14.00
   4   3 -10   73.19    8.40
  -4  -3  10   70.49   13.50
  -4  -3  10   61.09    8.50
   3   3 -10   11.50    4.60
   3   3 -10    5.90    8.00
  -3  -3  10   -0.30    7.80
  -3  -3  10   15.70    5.50
   2   3 -10   59.89   13.60
   2   3 -10   84.59    9.10
  -2  -3  10   90.89    9.40
  -2  -3  10   81.79   13.50
   1   3 -10  570.44   29.90
   1   3 -10  614.24   35.30
  -1  -3  10  623.34   30.00
  -1  -3  10  649.74   35.50
   0   3 -10   24.10    7.00
   0  -3  10   32.20    7.60
   0  -3  10   43.30   12.50
   0  -3  10   23.60   11.50
  -1   3 -10   77.79   10.30
   1  -3  10   69.69   11.40
   1  -3  10   89.29   15.40
   1  -3  10  116.89   14.80
  -2   3 -10    9.20    6.50
   2  -3  10   -8.90    5.70
   2  -3  10    1.50   10.90
   2  -3  10   20.90    6.90
  -3   3 -10    6.00    5.20
  -3   3 -10    4.30   11.10
   3  -3  10   -6.30    5.70
   3  -3  10   18.10    7.00
  -4   3 -10    3.20   11.20
  -4   3 -10   -2.10    5.40
   4  -3  10   18.50    8.90
   4  -3  10    5.20    6.20
  -5   3 -10   68.19   18.50
  -5   3 -10   32.20    9.80
   5  -3  10   47.30   11.10
   5  -3  10   49.99   11.70
  -6   3 -10   17.20   13.60
   6  -3  10    5.00    7.60
   6  -3  10    1.10    6.40
  -7   3 -10   38.20   18.30
   7  -3  10   35.60   12.20
   7  -3  10   46.20   11.60
  -8   3 -10    4.80   15.90
   8  -3  10   -7.80    5.80
  -9   3 -10  156.78   29.30
   9  -3  10  173.98   19.80
 -10   3 -10   22.40   32.50
  10  -3  10   18.40   10.80
 -11   3 -10   17.10   19.60
  11  -3  10   17.50   11.30
  13   2 -10   53.79   15.00
 -13  -2  10   26.70   14.70
  12   2 -10   22.80   10.80
 -12  -2  10   49.20   16.80
  11   2 -10   75.19   15.20
  11   2 -10   81.09   14.30
 -11  -2  10  109.29   21.50
  10   2 -10    2.10    8.30
 -10  -2  10   10.80   11.10
   9   2 -10    1.40    5.80
   9   2 -10    8.50   13.40
   9   2 -10  -10.70    5.00
  -9  -2  10   -2.40    7.20
   8   2 -10   47.80   16.50
   8   2 -10   29.90    8.40
  -8  -2  10   26.50   12.00
  -8  -2  10   45.30   10.00
   7   2 -10   30.30   12.80
   7   2 -10   23.60    7.00
  -7  -2  10   25.60   10.80
  -7  -2  10   45.20   11.50
   6   2 -10  131.59   11.30
   6   2 -10  129.09   17.50
  -6  -2  10  123.89   15.10
  -6  -2  10   95.69   11.20
   5   2 -10   60.69    8.50
   5   2 -10   25.20   10.70
  -5  -2  10   71.89   13.60
  -5  -2  10   57.59    9.00
   4   2 -10  252.27   21.70
   4   2 -10  285.07   16.90
  -4  -2  10  260.87   17.00
  -4  -2  10  239.88   18.90
   3   2 -10    9.00    8.50
   3   2 -10    2.20    4.50
  -3  -2  10    3.50    6.90
  -3  -2  10   -3.90    3.70
   2   2 -10  789.52   40.40
   2   2 -10  763.82   35.80
  -2  -2  10  763.82   35.70
  -2  -2  10  747.13   37.70
   1   2 -10   95.39    9.80
   1   2 -10  123.79   14.30
  -1  -2  10   84.09   12.30
  -1  -2  10   73.39    9.40
   0   2 -10  156.58   13.10
   0  -2  10  148.09   12.50
   0  -2  10  158.38   16.30
   0  -2  10  131.29   15.10
  -1   2 -10    3.90    5.20
   1  -2  10    4.60    8.90
   1  -2  10   10.20    6.80
   1  -2  10   -0.70    4.50
  -2   2 -10   42.70    9.40
  -2   2 -10   36.50   13.20
   2  -2  10   21.00    8.60
   2  -2  10   40.70    9.10
  -3   2 -10    1.90   10.40
  -3   2 -10    1.00    5.30
   3  -2  10   13.90    6.80
   3  -2  10    6.00    6.10
  -4   2 -10   -3.80    9.40
   4  -2  10    5.90    6.30
   4  -2  10    3.70    5.40
  -5   2 -10   21.80   14.00
  -5   2 -10   -6.60    4.90
   5  -2  10    6.60    7.30
   5  -2  10    8.80    6.60
  -6   2 -10  449.66   35.00
   6  -2  10  442.56   27.30
   6  -2  10  417.76   28.30
  -7   2 -10  122.59   23.80
   7  -2  10   65.19   14.20
   7  -2  10   91.99   14.70
  -8   2 -10   43.50   17.70
   8  -2  10   23.10   12.20
   8  -2  10   28.70   10.80
  -9   2 -10   30.10   17.20
   9  -2  10    5.30    8.10
 -10   2 -10   -2.10   14.90
  10  -2  10    6.60    9.80
 -11   2 -10   24.80   17.90
  11  -2  10   10.90   11.00
  14   1 -10   -0.40   10.40
 -14  -1  10   17.60   12.40
  13   1 -10   83.59   17.50
 -13  -1  10   65.39   16.90
  12   1 -10   55.59   14.60
 -12  -1  10   33.30   13.60
  11   1 -10   72.19   17.10
  11   1 -10   70.59   15.00
 -11  -1  10   72.89   17.70
  10   1 -10   -1.70    7.00
  10   1 -10   11.30    7.70
 -10  -1  10    9.50    9.90
   9   1 -10  138.29   26.20
   9   1 -10  124.49   20.90
  -9  -1  10  159.98   18.50
   8   1 -10   93.39   12.00
  -8  -1  10   98.09   14.70
  -8  -1  10  102.19   12.90
   7   1 -10   -3.40    7.70
   7   1 -10   -0.30    4.60
  -7  -1  10    0.20    5.10
  -7  -1  10  -10.20    6.20
   6   1 -10    1.90    7.80
   6   1 -10    1.90    4.10
  -6  -1  10  -10.00    4.10
  -6  -1  10    7.50    8.20
   5   1 -10  733.13   35.60
   5   1 -10  705.93   39.60
  -5  -1  10  746.63   38.60
  -5  -1  10  779.82   37.20
   4   1 -10   71.29   11.90
   4   1 -10   70.69    9.10
  -4  -1  10   83.29   11.10
  -4  -1  10   65.19    9.50
   3   1 -10  128.29   11.50
   3   1 -10  133.89   14.40
  -3  -1  10  150.28   13.00
  -3  -1  10  129.09   11.90
   2   1 -10   -0.50    3.90
   2   1 -10    7.20    7.30
  -2  -1  10    8.20    5.40
  -2  -1  10    7.20    5.50
   1   1 -10   34.40    7.70
  -1  -1  10   20.80    8.20
  -1  -1  10   16.00    6.10
  -1  -1  10   32.70    8.20
   0   1 -10   -2.70    4.60
   0  -1  10    0.40    6.20
   0  -1  10   14.20    6.80
  -1   1 -10  359.96   22.20
   1  -1  10  354.86   21.90
   1  -1  10  381.06   20.50
   1  -1  10  374.06   23.30
  -2   1 -10   17.40   10.20
  -2   1 -10   22.20    6.80
   2  -1  10   18.20    6.00
   2  -1  10   24.40    7.80
  -3   1 -10   42.80   10.80
  -3   1 -10   57.29   13.60
   3  -1  10   42.10    8.80
   3  -1  10   38.60    9.50
  -4   1 -10   41.20   11.00
  -4   1 -10   12.40   10.10
   4  -1  10   51.79   10.70
   4  -1  10   25.50    7.50
  -5   1 -10  113.69   14.80
  -5   1 -10  135.39   21.40
   5  -1  10  108.29   13.80
   5  -1  10  111.89   13.00
  -6   1 -10  128.09   20.20
   6  -1  10   96.59   13.90
   6  -1  10   78.89   12.90
  -7   1 -10  523.55   37.10
   7  -1  10  490.85   31.80
   7  -1  10  456.95   34.40
  -8   1 -10   -5.30   13.00
   8  -1  10   14.60   11.50
   8  -1  10   12.10    8.60
  -9   1 -10  113.29   25.20
   9  -1  10  116.79   17.60
 -10   1 -10   42.50   20.60
  10  -1  10   28.10   11.90
 -11   1 -10   -0.50   17.30
  11  -1  10   48.60   14.20
  14   0 -10  153.18   22.60
 -14   0  10  104.69   21.70
 -13   0  10    3.80   10.40
  12   0 -10    9.20    9.70
 -12   0  10   17.60   11.40
  11   0 -10  127.59   18.70
 -11   0  10  110.39   18.20
  10   0 -10  463.05   31.70
  10   0 -10  422.16   28.60
 -10   0  10  453.65   31.40
   9   0 -10   33.90   14.80
   9   0 -10   49.20   10.50
  -9   0  10   54.09   11.20
  -9   0  10   73.19   15.30
   8   0 -10   13.40   12.30
   8   0 -10   19.90   12.20
  -8   0  10   49.80   11.50
  -8   0  10   46.40   13.60
   7   0 -10    3.30    8.20
   7   0 -10    4.10    5.20
  -7   0  10   12.70    7.60
  -7   0  10   14.80    7.10
   6   0 -10  294.67   20.10
   6   0 -10  328.67   23.90
  -6   0  10  299.77   20.60
  -6   0  10  330.27   21.20
   5   0 -10   34.50   10.80
   5   0 -10   26.40    7.00
  -5   0  10   19.50    7.10
  -5   0  10   47.60    9.70
   4   0 -10  259.47   18.90
   4   0 -10  264.17   17.60
  -4   0  10  291.07   17.10
  -4   0  10  227.68   17.20
   3   0 -10    8.20    6.40
   3   0 -10    8.60    5.80
  -3   0  10   18.60    6.00
  -3   0  10    8.90    6.10
   2   0 -10  136.89   12.20
   2   0 -10  134.49   12.20
  -2   0  10  129.39   10.30
  -2   0  10  138.79   15.40
   1   0 -10    1.90    4.30
  -1   0  10   -4.90    4.10
  -1   0  10   -3.60    4.90
  -1   0  10   -1.20    3.80
   0   0 -10  410.06   24.40
   0   0  10  429.76   24.40
   0   0  10  456.65   21.50
   0   0  10  440.76   20.60
  -1   0 -10   -0.50    4.10
   1   0  10    0.50    3.50
   1   0  10   -3.90    5.30
   1   0  10   -7.90    3.60
  -2   0 -10  129.89   13.20
  -2   0 -10  185.58   16.40
   2   0  10  124.09   10.00
   2   0  10  127.59   13.00
  -3   0 -10   78.29   13.20
  -3   0 -10   79.29   13.90
   3   0  10   68.99   12.10
   3   0  10   84.19    9.00
  -4   0 -10  196.38   17.90
  -4   0 -10  192.38   19.80
   4   0  10  201.78   14.90
   4   0  10  204.88   17.10
  -5   0 -10    2.90    6.90
  -5   0 -10   16.30   11.10
   5   0  10   10.30    7.40
   5   0  10    1.20    6.70
  -6   0 -10  170.38   20.20
   6   0  10  105.79   15.30
   6   0  10   98.99   14.20
  -7   0 -10    6.90   12.00
   7   0  10    6.90    9.50
   7   0  10   20.80    9.30
  -8   0 -10   47.80   16.80
   8   0  10   16.10   10.20
   8   0  10   25.30   13.30
  -9   0 -10   24.30   15.90
   9   0  10    7.40    9.80
 -10   0 -10   20.70   16.60
  10   0  10   27.30   12.70
 -11   0 -10   28.50   19.40
  11   0  10   -9.80    9.00
  14  -1 -10   16.10   12.80
 -14   1  10   17.20   13.20
  13  -1 -10    4.10   10.40
 -13   1  10   -5.10    9.10
  12  -1 -10   57.09   15.60
 -12   1  10   38.00   15.00
  11  -1 -10   10.50    7.70
 -11   1  10    5.60   10.10
  10  -1 -10    4.00    8.40
 -10   1  10   -3.40    7.10
   9  -1 -10   -1.80    8.60
   9  -1 -10    2.60    6.30
  -9   1  10    2.00    8.80
  -9   1  10    2.40    6.40
   8  -1 -10   90.69   12.50
   8  -1 -10   73.29   16.40
  -8   1  10   71.09   13.00
  -8   1  10   75.49   13.00
   7  -1 -10  270.17   28.70
   7  -1 -10  270.97   22.30
  -7   1  10  303.07   21.00
  -7   1  10  261.97   20.50
   6  -1 -10   10.70    7.90
   6  -1 -10   -2.90    4.30
  -6   1  10   18.80    7.60
  -6   1  10    1.60    5.60
   5  -1 -10   95.09   12.20
   5  -1 -10  106.19   11.80
  -5   1  10  103.39   12.00
  -5   1  10   88.89   10.80
   4  -1 -10    8.10    6.40
   4  -1 -10    5.00    5.10
  -4   1  10   -3.10    4.30
  -4   1  10    2.70    5.00
   3  -1 -10  230.48   16.70
   3  -1 -10  250.87   16.20
  -3   1  10  202.48   16.40
  -3   1  10  244.08   13.40
   2  -1 -10    1.60    4.50
   2  -1 -10   10.60    5.20
  -2   1  10    4.90    5.10
  -2   1  10    2.50    3.10
   1  -1 -10   55.69    9.50
  -1   1  10   45.00    9.30
   0  -1 -10   -2.60    3.70
   0   1  10    6.00    5.10
  -1  -1 -10    5.40    6.10
   1   1  10   13.80    5.00
   1   1  10    8.70    3.30
   1   1  10   13.60    6.50
  -2  -1 -10   19.00    7.10
  -2  -1 -10   46.10   10.00
   2   1  10   39.80    9.90
   2   1  10   34.30    6.10
  -3  -1 -10  182.38   20.40
  -3  -1 -10  183.58   16.50
   3   1  10  214.58   16.90
   3   1  10  185.28   13.10
  -4  -1 -10   -6.50    5.20
  -4  -1 -10    7.30    9.70
   4   1  10   12.40    7.50
   4   1  10    5.00    7.00
  -5  -1 -10   13.00   10.40
  -5  -1 -10    6.70    7.80
   5   1  10    2.10    7.50
   5   1  10    2.30    6.90
  -6  -1 -10   -1.20   10.30
   6   1  10   19.20   10.10
   6   1  10    2.10    6.70
  -7  -1 -10   14.60   12.60
   7   1  10   34.50   11.70
   7   1  10   16.30   11.90
  -8  -1 -10   12.20   13.50
   8   1  10   -1.50    7.40
   8   1  10   14.10   12.80
  -9  -1 -10    9.10   14.10
   9   1  10    3.70    8.20
 -10  -1 -10   31.80   17.00
  10   1  10   22.10   11.60
  13  -2 -10   14.30   12.40
 -13   2  10   -0.70    9.80
  12  -2 -10   25.50   12.50
 -12   2  10    6.20   10.00
  11  -2 -10    0.00    7.70
 -11   2  10   23.70   12.90
  10  -2 -10  298.77   26.80
 -10   2  10  285.57   24.80
   9  -2 -10   39.00   13.20
  -9   2  10   61.29   13.10
  -9   2  10   86.69   14.70
   8  -2 -10   84.29   16.80
   8  -2 -10   73.79   15.20
  -8   2  10   77.39   14.60
  -8   2  10   76.69   12.90
   7  -2 -10    4.10    7.80
   7  -2 -10   -1.30    5.10
  -7   2  10    1.60    5.50
   6  -2 -10  376.76   24.70
   6  -2 -10  421.76   25.90
  -6   2  10  382.36   23.00
  -6   2  10  377.96   24.90
   5  -2 -10    7.80    6.30
  -5   2  10    0.80    5.20
  -5   2  10    1.50    4.50
   4  -2 -10   43.70    8.90
   4  -2 -10   28.10    8.70
  -4   2  10   56.99   10.90
  -4   2  10   34.80    7.00
   3  -2 -10   -3.20    3.90
   3  -2 -10    5.40    4.70
  -3   2  10   -2.60    4.90
  -3   2  10    2.60    3.60
   2  -2 -10   37.40    8.40
  -2   2  10   31.80    8.40
   1  -2 -10   19.80    6.30
  -1   2  10   27.00    7.50
   0  -2 -10  594.14   31.70
   0   2  10  587.54   31.20
  -1  -2 -10    2.20    4.90
   1   2  10    9.30    7.20
  -2  -2 -10  108.69   10.90
  -2  -2 -10   89.99   12.10
   2   2  10  112.49   12.70
   2   2  10   97.69    8.30
  -3  -2 -10   67.89   11.20
  -3  -2 -10   28.10    8.70
   3   2  10   37.80    8.80
   3   2  10   39.70    8.10
  -4  -2 -10  486.65   31.70
  -4  -2 -10  573.44   30.40
   4   2  10  545.65   31.40
   4   2  10  548.85   29.80
  -5  -2 -10    1.50    8.70
  -5  -2 -10   11.10    8.30
   5   2  10   13.10    7.80
   5   2  10    6.60    8.70
   6   2  10  126.19   15.70
   6   2  10  123.29   19.20
  -7  -2 -10   23.00   13.70
   7   2  10   -4.30    6.70
   7   2  10    1.20   12.00
  -8  -2 -10   14.00   13.40
   8   2  10   32.20   17.10
   8   2  10   16.60   11.10
  -9  -2 -10   30.20   17.00
   9   2  10    0.30    8.20
 -10  -2 -10  143.19   26.80
  10   2  10  136.59   19.50
  13  -3 -10   13.30   12.00
 -13   3  10    5.90   11.00
  12  -3 -10  -10.10    7.90
 -12   3  10   -5.20   10.30
  11  -3 -10  269.87   30.10
 -11   3  10  213.58   23.90
  10  -3 -10  -11.00    6.30
 -10   3  10    1.20    8.60
   9  -3 -10  121.29   20.80
  -9   3  10  117.59   17.00
  -9   3  10  111.59   15.90
   8  -3 -10    5.10    8.60
  -8   3  10   12.00    7.70
  -8   3  10    2.70    7.30
   7  -3 -10  101.39   13.30
   7  -3 -10   84.69   13.20
  -7   3  10  102.49   13.80
  -7   3  10  100.99   14.10
   6  -3 -10    7.50    6.80
   6  -3 -10    2.50    6.20
  -6   3  10   -3.20    5.20
  -6   3  10    6.70    6.50
   5  -3 -10  318.07   20.10
   5  -3 -10  322.27   22.10
  -5   3  10  288.27   21.90
  -5   3  10  339.77   19.70
   4  -3 -10    9.30    6.70
   4  -3 -10    4.40    5.10
  -4   3  10   -0.20    4.60
  -4   3  10   -3.90    3.90
   3  -3 -10   41.90    9.30
   3  -3 -10   42.80    6.50
  -3   3  10   33.30    5.80
  -3   3  10   34.50    9.00
   2  -3 -10   11.60    6.50
  -2   3  10   -3.40    5.00
   1  -3 -10  156.18   14.80
  -1   3  10  179.68   15.50
   0  -3 -10    4.40    5.90
   0   3  10   -0.90    4.80
  -1  -3 -10   30.80   11.80
   1   3  10   35.20    9.20
  -2  -3 -10   76.79   11.90
  -2  -3 -10   97.39    9.60
   2   3  10   52.99   10.50
  -3  -3 -10 1054.59   50.79
  -3  -3 -10 1045.40   44.90
   3   3  10  995.20   44.40
   3   3  10 1038.80   49.90
  -4  -3 -10    8.70    7.00
  -4  -3 -10   12.90    7.70
   4   3  10   21.30    9.40
   4   3  10   11.70    6.90
  -5  -3 -10   16.50    9.60
   5   3  10   18.70    9.10
   5   3  10   11.90   10.30
   6   3  10    9.90    8.00
   6   3  10   12.40   12.80
  -7  -3 -10   87.79   17.80
   7   3  10  122.29   16.70
   7   3  10  120.79   21.70
  -8  -3 -10   30.00   14.10
   8   3  10   16.80   13.20
   8   3  10    8.20   16.50
  -9  -3 -10   20.20   16.00
   9   3  10    4.50   10.20
  13  -4 -10   23.30   15.40
 -13   4  10   20.50   15.80
  12  -4 -10    3.10    9.40
 -12   4  10   17.10   13.80
  11  -4 -10    2.00    8.30
 -11   4  10  -10.00    8.60
 -10   4  10   50.09   15.60
   9  -4 -10   13.40    9.70
  -9   4  10    1.30    7.50
  -9   4  10   11.40    9.00
   8  -4 -10   25.80   10.50
  -8   4  10   12.70    9.90
  -8   4  10   15.00    8.50
   7  -4 -10   28.70    9.70
  -7   4  10   31.70   10.80
  -7   4  10   16.80    8.30
   6  -4 -10   12.80    7.40
   6  -4 -10    4.40    8.00
  -6   4  10   17.30    8.60
  -6   4  10    9.20    7.70
   5  -4 -10   -0.20    5.10
   5  -4 -10    0.30    5.10
  -5   4  10   10.70    7.50
  -5   4  10   12.60    7.10
   4  -4 -10   59.29    8.80
   4  -4 -10   41.10   10.10
  -4   4  10   63.79   10.30
  -4   4  10   62.99   12.10
   3  -4 -10    4.20    3.40
   3  -4 -10   -0.40    4.90
  -3   4  10   -1.90    5.10
   2  -4 -10    4.70    5.80
  -2   4  10    2.40    5.50
   1  -4 -10    5.00    5.60
  -1   4  10    3.10    6.20
   0  -4 -10   13.20    7.70
   0   4  10    5.60    6.10
  -1  -4 -10   21.60    8.00
   1   4  10   20.50    8.60
  -2  -4 -10   43.00   11.50
   2   4  10   37.00    9.60
  -3  -4 -10   39.30    7.90
  -3  -4 -10    3.10    6.70
   3   4  10   52.29   11.50
   3   4  10   30.50    7.70
  -4  -4 -10    2.00    7.10
   4   4  10    6.80    9.60
   4   4  10   11.70    8.80
  -5  -4 -10   12.40    9.10
   5   4  10   11.60    8.60
   5   4  10   25.40   12.50
   6   4  10   -9.60    6.90
   6   4  10    9.80   13.80
  -7  -4 -10    5.50   11.40
   7   4  10   21.60   10.90
   7   4  10    9.40   16.10
  -8  -4 -10   15.30   13.00
   8   4  10    4.00   10.90
   8   4  10   -0.60   18.20
  -9  -4 -10   19.00   15.00
   9   4  10   15.10   12.20
  13  -5 -10   14.80   12.80
  12  -5 -10   19.00   11.50
 -12   5  10   19.90   14.90
  11  -5 -10  187.08   24.00
 -11   5  10  158.88   23.30
  10  -5 -10   18.50   12.30
 -10   5  10  -15.40    8.50
   9  -5 -10   40.40   12.60
  -9   5  10   49.00   15.00
  -8   5  10   30.80   12.50
  -8   5  10   23.60   10.20
   7  -5 -10   -7.10    6.20
  -7   5  10    7.10    6.60
  -7   5  10   32.80   12.70
   6  -5 -10    4.60    6.20
  -6   5  10   -3.00    7.40
  -6   5  10    8.80    7.60
   5  -5 -10  515.45   25.90
  -5   5  10  477.25   28.30
  -5   5  10  508.65   31.50
   4  -5 -10    8.00    6.10
   4  -5 -10   13.00    5.50
  -4   5  10   21.40    7.90
  -4   5  10   18.00    8.70
   3  -5 -10   49.00   11.70
   3  -5 -10   23.50    5.80
   3  -5 -10   29.90    4.50
  -3   5  10   43.70   10.70
   2  -5 -10    0.60    5.80
  -2   5  10   -0.90    5.40
   1  -5 -10  355.86   23.30
  -1   5  10  300.57   22.60
   0  -5 -10   27.70    8.10
   0   5  10   29.00    9.10
  -1  -5 -10  113.99   14.70
   1   5  10  129.69   14.80
  -2  -5 -10   30.40    9.10
   2   5  10    4.90    7.90
  -3  -5 -10   21.60    6.70
   3   5  10   21.00    9.10
   3   5  10   20.50    8.40
  -4  -5 -10   24.80    8.50
   4   5  10   32.10   11.20
   4   5  10   33.30   10.60
  -5  -5 -10  136.19   15.40
   5   5  10  121.49   16.70
   5   5  10  133.89   19.80
   6   5  10   -2.60    7.70
   6   5  10   15.10   15.10
  -7  -5 -10   28.80   13.40
   7   5  10   37.60   13.80
   7   5  10   30.50   20.20
  -8  -5 -10   42.40   14.90
   8   5  10   73.49   15.80
   8   5  10   69.09   26.00
  12  -6 -10   85.39   20.30
 -12   6  10  172.18   30.80
  11  -6 -10    4.80   10.00
 -11   6  10    4.00   11.70
  10  -6 -10  139.59   24.50
 -10   6  10  141.19   21.40
   9  -6 -10   -0.20    7.70
  -9   6  10   -7.80    8.10
  -9   6  10   11.20    9.20
   8  -6 -10   37.80   11.40
  -8   6  10   54.49   15.80
  -8   6  10   43.80   16.70
   7  -6 -10   97.09   13.20
  -7   6  10   93.99   17.80
   6  -6 -10  597.24   31.40
  -6   6  10  596.84   35.50
  -6   6  10  635.94   37.70
   5  -6 -10    1.40    9.60
  -5   6  10    5.20    8.90
  -5   6  10    8.50    7.70
   4  -6 -10   14.10    8.10
   4  -6 -10   10.50    5.10
  -4   6  10    5.20    7.00
   3  -6 -10   13.20    3.90
   3  -6 -10   15.00    5.00
  -3   6  10   19.00    9.00
  -2   6  10  294.67   22.70
   1  -6 -10    4.20   11.10
  -1   6  10    3.70    6.30
   0  -6 -10    6.30    8.30
   0   6  10   11.40    7.60
   1   6  10   23.10    9.40
   2   6  10  -14.30    5.30
  -3  -6 -10   20.30    6.70
   3   6  10   15.60    9.60
  -4  -6 -10   31.70    8.80
   4   6  10   46.50   12.60
   4   6  10   30.20   12.80
  -5  -6 -10   10.60    8.20
   5   6  10    7.70   13.50
   5   6  10   21.00   10.30
  -6  -6 -10    7.70   11.70
   6   6  10   39.80   13.00
   6   6  10   17.40   16.90
  -7  -6 -10   60.79   14.90
   7   6  10  117.89   26.10
   7   6  10  132.49   25.80
  11  -7 -10  127.19   24.40
 -11   7  10  110.19   25.10
  10  -7 -10   -2.70    8.40
 -10   7  10   -5.20   10.70
   9  -7 -10   25.50    9.90
  -9   7  10   32.30   14.00
  -9   7  10   33.10   12.70
   8  -7 -10   15.50    9.20
  -8   7  10    5.60    8.00
  -8   7  10   21.40   12.30
   7  -7 -10   -0.50    6.10
  -7   7  10   13.00   10.80
  -7   7  10   12.40   11.10
   6  -7 -10   18.10    7.80
  -6   7  10   52.19   14.40
  -6   7  10    7.60    8.70
   5  -7 -10    2.60    6.50
  -5   7  10   20.60   10.90
   4  -7 -10   22.20    9.30
   4  -7 -10   17.90    5.50
  -4   7  10   11.60    8.70
   3  -7 -10   40.10    5.80
   3  -7 -10   46.40    7.80
  -3   7  10   51.19   12.60
  -2   7  10   13.10    8.50
  -1   7  10   24.40   10.00
   0   7  10  113.39   15.30
   1   7  10  257.77   22.00
   2   7  10   29.20   10.00
  -3  -7 -10   89.39    9.50
   3   7  10  102.29   16.30
  -4  -7 -10    5.30    6.90
   4   7  10    8.50   13.70
   4   7  10   33.00   12.00
  -5  -7 -10   13.30    8.70
   5   7  10   19.60   15.90
   5   7  10  -13.70    7.70
  -6  -7 -10   57.69   13.40
   6   7  10   69.59   22.90
   6   7  10   48.50   19.20
 -11   8  10   21.40   17.70
  10  -8 -10   46.60   16.30
 -10   8  10   61.29   20.40
   9  -8 -10    0.40    8.50
  -9   8  10   -5.10    6.20
  -9   8  10   -2.00   11.00
  -8   8  10   42.00   13.80
  -8   8  10   58.09   17.50
   7  -8 -10    0.00    6.70
  -7   8  10   -8.10    9.80
  -7   8  10    3.80    7.60
   6  -8 -10  230.08   17.50
  -6   8  10  273.17   24.30
   5  -8 -10   17.40   11.10
   5  -8 -10    4.10    5.90
   4  -8 -10   74.39    8.70
   4  -8 -10   91.29   14.00
  -4   8  10   84.69   17.40
   3  -8 -10    1.50    6.00
   3  -8 -10    2.10    3.90
  -3   8  10    9.90    7.60
  -2   8  10  181.78   19.80
  -1   8  10   68.19   13.70
   0   8  10   29.60   10.70
   1   8  10   -7.20    7.30
  -2  -8 -10    2.20    4.90
   2   8  10   17.40   11.00
  -3  -8 -10   46.30   12.30
  -3  -8 -10   30.80    6.70
   3   8  10   37.80   12.60
  -4  -8 -10   44.40    9.60
   4   8  10   66.99   15.70
  -5  -8 -10   13.60    8.70
   5   8  10   33.90   18.00
   5   8  10   38.20   18.80
   9  -9 -10   14.90   12.80
  -9   9  10   33.60   15.90
   8  -9 -10    8.30    8.40
  -8   9  10   15.80   10.10
  -8   9  10   27.60   15.50
   7  -9 -10  428.06   27.00
  -7   9  10  458.85   34.10
   6  -9 -10    8.80    6.90
  -6   9  10    2.40    8.10
   5  -9 -10   34.90    8.60
   5  -9 -10   54.69   14.70
  -5   9  10   64.39   14.90
   4  -9 -10    7.20    6.00
   4  -9 -10   -4.30    8.40
  -4   9  10    5.90    9.90
   3  -9 -10   75.29    8.20
   3  -9 -10   88.19   11.30
  -3   9  10   90.49   19.80
   2  -9 -10    7.70    5.00
   2  -9 -10   30.10    4.80
  -2   9  10   14.10   10.70
  -1   9  10   31.10   11.90
   0   9  10   14.50    9.30
   1   9  10   -1.10    9.00
  -2  -9 -10   66.89    8.50
  -2  -9 -10   46.00    6.60
   2   9  10   86.19   15.90
  -3  -9 -10   -1.80    9.90
  -3  -9 -10    0.30    5.40
   3   9  10   29.50   16.40
  -4  -9 -10   16.10   23.60
  -4  -9 -10    5.10    7.20
   4   9  10    0.80   11.50
   8 -10 -10  118.99   17.00
  -8  10  10  175.78   22.70
   7 -10 -10   21.00   15.80
   7 -10 -10   -5.30    6.90
  -7  10  10   -1.90    8.80
   6 -10 -10    8.40    8.00
   6 -10 -10    1.10   12.30
  -6  10  10    9.80   10.80
   5 -10 -10   30.40    8.70
   5 -10 -10   46.40   15.40
  -5  10  10   27.00   11.90
   4 -10 -10    3.90    9.80
   4 -10 -10    3.00    9.40
  -4  10  10    9.80   10.00
   3 -10 -10   14.70    8.30
   3 -10 -10    9.90    5.40
  -3  10  10   15.60   11.40
   2 -10 -10    2.90    4.00
   2 -10 -10    5.30    5.70
  -2  10  10   -1.10    9.20
  -1  10  10   16.60   10.30
   0  10  10   -6.00    9.60
   1  10  10   40.80   13.50
  -2 -10 -10    3.30    4.70
  -2 -10 -10   14.40    6.50
  -2 -10 -10   13.10    6.30
   2  10  10    5.60   10.70
   5 -11 -10   18.40   17.00
   5 -11 -10   29.20    9.10
  -5  11  10   23.90   13.20
   4 -11 -10   -1.40    9.90
   4 -11 -10    1.40    6.30
  -4  11  10   -1.50    8.80
   3 -11 -10   23.80   10.10
   3 -11 -10   13.60    7.10
  -3  11  10   18.00   11.30
   2 -11 -10   12.30    4.90
   2 -11 -10   12.30    6.50
  -2  11  10   26.50   12.60
  -1  11  10   42.40   14.30
  -1 -15  11   10.60    5.70
  -1 -15  11   -1.30   22.00
  -1 -15  11    9.50    5.80
   0 -15  11   41.20   30.00
   0 -15  11   16.60    8.70
   0 -15  11   17.80    8.80
   1 -15  11   52.59   31.50
   1 -15  11   16.60   10.00
   1 -15  11   17.60    9.20
   2 -15  11    4.70   10.50
   2 -15  11   -5.80    9.20
   2 -15  11  -15.70   25.20
  -4 -14  11   26.90   25.20
  -3 -14  11    4.60   22.90
  -2 -14  11    1.10   22.60
  -1 -14  11   16.50    8.20
  -1 -14  11    7.10   21.10
  -1 -14  11   10.20    5.90
   0 -14  11  -18.80   17.90
   0 -14  11   12.00    9.20
   0 -14  11   15.40    8.30
   1 -14  11  -10.20   25.00
   1 -14  11   16.30    9.00
   1 -14  11    3.10    8.30
   2 -14  11   17.50   10.30
   2 -14  11    7.40   23.60
   2 -14  11    6.40    9.00
   3 -14  11   -8.70    8.00
   3 -14  11   11.60   22.50
   4 -14  11    8.40   23.50
   4 -14  11   -3.10    8.80
   5 -14  11   16.00   25.90
   5 -14  11   27.10   12.80
  -6 -13  11    8.40   19.70
  -5 -13  11    5.70   21.90
  -4 -13  11   23.40   22.20
  -3 -13  11   88.89   29.80
  -2 -13  11    6.20    3.60
  -2 -13  11    4.70    3.70
  -2 -13  11   14.10   24.70
  -1 -13  11   88.79   29.90
  -1 -13  11   28.20    8.90
  -1 -13  11   55.49    8.60
   0 -13  11    2.00    6.90
   0 -13  11   10.30   22.10
   0 -13  11   11.70    8.60
   1 -13  11   12.20   23.00
   1 -13  11   -4.30    7.20
   1 -13  11    5.10    7.50
   2 -13  11   16.30    9.80
   2 -13  11   49.60   25.50
   3 -13  11  169.38   35.80
   3 -13  11  229.68   21.50
   4 -13  11   43.30   12.50
   4 -13  11   57.19   27.50
   5 -13  11   13.70   23.70
   5 -13  11   -1.70   13.10
   6 -13  11    3.70   10.80
   6 -13  11  -22.80   19.40
   7 -13  11   14.20   11.20
   7 -13  11  -15.60   19.00
  -8 -12  11  155.58   35.20
  -7 -12  11   -4.80   19.10
  -6 -12  11   -2.20   17.50
  -5 -12  11   28.70   22.60
  -4 -12  11  186.88   36.30
  -3 -12  11   14.70   20.00
  -2 -12  11   63.09   25.60
  -2 -12  11   57.99    7.60
  -2 -12  11   61.29    7.30
  -1 -12  11   27.30    7.80
  -1 -12  11   25.90   21.30
  -1 -12  11   36.30    8.20
   0 -12  11   16.80   21.60
   0 -12  11   35.10    9.80
  -1  12 -11   97.09   15.80
   1 -12  11  120.99   13.90
   1 -12  11   65.59   25.70
  -2  12 -11   22.10   11.50
   2 -12  11   44.70   11.40
   2 -12  11   25.40   21.20
  -3  12 -11   20.10   11.90
   3 -12  11   29.50   11.00
   3 -12  11  -17.70   17.00
   4 -12  11   12.70   22.40
   4 -12  11   12.50    9.20
   5 -12  11   21.30   22.90
   5 -12  11    9.90    9.50
   6 -12  11    8.30   10.60
   6 -12  11   46.70   25.40
   7 -12  11   -5.30   24.90
   7 -12  11   -1.90   10.20
   8 -12  11   40.90   32.20
   8 -12  11   11.50   11.70
  -9 -11  11   37.70   22.60
  -8 -11  11   -3.30   18.40
  -7 -11  11    4.60   17.10
  -6 -11  11   34.80   23.10
  -5 -11  11  194.18   38.40
  -4 -11  11   -4.50   18.80
  -3 -11  11    4.70   18.50
  -2 -11  11   23.30    5.90
  -2 -11  11   24.90   18.70
   1  11 -11   25.20    8.40
  -1 -11  11   34.50   20.70
  -1 -11  11   21.80    7.30
   0  11 -11  287.87   21.60
   0 -11  11  281.77   19.80
   0 -11  11  320.47   39.10
  -1  11 -11   11.40    9.20
   1 -11  11   10.00    7.40
   1 -11  11   -4.80   17.30
  -2  11 -11   12.20   10.20
   2 -11  11  -10.60   16.00
   2 -11  11   18.50    9.00
  -3  11 -11   -2.80    9.30
   3 -11  11   -5.90    6.90
   3 -11  11   13.60   18.40
   4 -11  11   51.19   13.40
   4 -11  11   35.90   23.60
   5 -11  11    1.00    9.60
   5 -11  11  -15.80   16.20
   6 -11  11   37.10   25.90
   7 -11  11    4.30   21.80
   7 -11  11   10.60   11.40
  -8  11 -11   54.49   31.20
   8 -11  11   40.50   14.40
  -9  11 -11    1.20   23.10
   9 -11  11    4.10   10.40
 -10 -10  11   39.00   21.10
  -9 -10  11  -10.90   16.60
  -8 -10  11   22.60   18.60
  -7 -10  11   16.70   19.20
  -6 -10  11   52.39   20.40
  -5 -10  11   34.10   19.80
  -4 -10  11   56.79   20.40
  -3 -10  11  127.59   27.80
  -3 -10  11  116.99    8.20
   2  10 -11   67.79    9.60
  -2 -10  11   35.00    6.70
  -2 -10  11   60.49   22.70
   1  10 -11    3.40    6.90
  -1 -10  11   37.60    7.70
  -1 -10  11   46.30   22.10
   0  10 -11   24.10    9.10
   0 -10  11   -1.00    5.70
   0 -10  11    8.40   20.20
  -1  10 -11    9.30    8.10
   1 -10  11   -6.70   14.30
   1 -10  11   12.90    7.30
  -2  10 -11   68.69   13.40
   2 -10  11   98.79   13.90
   2 -10  11   42.50   21.80
  -3  10 -11   31.30   11.90
   3 -10  11   49.10   11.60
   3 -10  11   17.40   17.50
   4 -10  11   59.79   12.90
   4 -10  11   48.60   26.00
   5 -10  11   10.40    9.30
   5 -10  11    0.10   21.60
   6 -10  11   13.50    9.40
   6 -10  11    8.00   20.20
  -7  10 -11   79.89   30.90
   7 -10  11   55.79   14.80
  -8  10 -11    3.00   24.00
   8 -10  11   14.60   10.90
  -9  10 -11   -2.70   23.80
   9 -10  11   19.90   12.20
 -10  -9  11   22.30   18.10
  -9  -9  11  147.39   27.70
  -8  -9  11    8.30   15.80
  -7  -9  11  -12.30   16.10
  -6  -9  11   15.30   15.70
  -5  -9  11  169.68   31.80
   4   9 -11   40.00    5.70
  -4  -9  11   26.80   18.40
  -4  -9  11   36.70    4.80
   3   9 -11  111.39   10.00
  -3  -9  11  142.39   28.30
  -3  -9  11   99.79    8.80
   2   9 -11   21.90    9.90
  -2  -9  11   29.20   17.90
  -2  -9  11   19.90    5.80
   1   9 -11   28.10    8.10
  -1  -9  11   28.00   17.90
  -1  -9  11   23.70   20.50
  -1  -9  11   24.70    6.70
   0   9 -11    8.10    7.40
   0  -9  11   25.40   18.80
   0  -9  11    1.30    6.00
   0  -9  11   -5.40   14.40
  -1   9 -11  370.26   24.60
   1  -9  11  369.96   37.90
   1  -9  11  442.06   46.10
   1  -9  11  323.57   22.00
  -2   9 -11    5.90    8.70
   2  -9  11    0.50   14.90
   2  -9  11    6.90    7.30
  -3   9 -11   12.00    9.60
   3  -9  11   14.40    8.40
   3  -9  11    8.10   15.20
  -4   9 -11   24.40   11.80
   4  -9  11   40.90   21.10
   4  -9  11   37.10   11.30
   5  -9  11   23.10   19.00
   5  -9  11   37.20   11.10
  -6   9 -11   81.89   29.10
   6  -9  11   75.29   16.00
  -7   9 -11    5.20   20.20
   7  -9  11    6.00    9.20
  -8   9 -11   -7.70   20.00
   8  -9  11    0.30    8.40
  -9   9 -11  -39.00   19.50
   9  -9  11    6.80    8.70
 -10   9 -11   21.30   28.60
  10  -9  11   58.49   17.40
 -11  -8  11  -22.30   13.00
 -10  -8  11   25.90   17.60
  -9  -8  11   13.50   15.90
  -8  -8  11    9.40   18.40
  -7  -8  11  100.99   25.70
  -6  -8  11  115.99   24.50
   5   8 -11   70.29    6.90
  -5  -8  11   75.09   20.90
  -5  -8  11   77.29    6.60
   4   8 -11   85.39   29.90
   4   8 -11   89.39    8.70
  -4  -8  11  104.79   23.40
  -4  -8  11   85.59    7.90
   3   8 -11   17.90   16.30
   3   8 -11   30.50    6.60
  -3  -8  11   42.80   17.60
  -3  -8  11   37.20    6.20
   2   8 -11   20.60   17.40
   2   8 -11   45.20    8.90
   2   8 -11   46.00    8.90
  -2  -8  11   62.09   19.20
  -2  -8  11   53.59    8.10
   1   8 -11  298.87   20.20
  -1  -8  11  323.87   19.10
  -1  -8  11  308.87   34.10
  -1  -8  11  337.67   33.50
   0   8 -11   13.60    7.80
   0  -8  11   28.90    7.50
   0  -8  11   41.70   18.20
   0  -8  11   64.59   21.50
  -1   8 -11   31.30    9.20
   1  -8  11   34.10   16.40
   1  -8  11   30.10   17.60
   1  -8  11   36.40    9.00
  -2   8 -11   12.60    8.50
   2  -8  11   15.30   16.30
   2  -8  11    3.10    5.60
   2  -8  11   22.70   15.60
  -3   8 -11  182.18   19.70
   3  -8  11  206.88   18.30
   3  -8  11  197.48   29.10
   3  -8  11  111.79   23.20
  -4   8 -11    6.90    8.70
   4  -8  11   10.00    8.10
   4  -8  11    1.90   14.70
  -5   8 -11  254.57   35.50
   5  -8  11  222.48   20.60
  -6   8 -11  -29.00   15.40
   6  -8  11    4.50    7.40
  -7   8 -11   47.90   25.60
   7  -8  11   61.99   18.80
  -8   8 -11   12.10   21.50
   8  -8  11    7.80    9.00
  -9   8 -11  203.68   41.10
   9  -8  11  127.09   19.80
 -10   8 -11   25.90   25.60
  10  -8  11    5.20   11.00
  12   7 -11    8.20    7.00
 -12  -7  11   31.20   18.20
  11   7 -11   -0.40    5.30
  11   7 -11    4.40    5.90
 -11  -7  11   15.60   15.50
  10   7 -11    4.80    5.20
  10   7 -11    5.30    4.70
 -10  -7  11  -11.30   12.40
   9   7 -11   27.50    5.70
   9   7 -11   15.00    5.30
  -9  -7  11   25.20   14.90
   8   7 -11   10.60    4.90
   8   7 -11   12.30    4.50
  -8  -7  11   17.30   14.80
   7   7 -11   76.79    8.00
   7   7 -11   94.99    8.60
  -7  -7  11   57.19   17.20
   6   7 -11  243.58   15.10
  -6  -7  11  321.67   15.60
  -6  -7  11  293.17   29.50
   5   7 -11    8.20    4.80
   5   7 -11    9.70   13.80
  -5  -7  11   10.50    4.60
  -5  -7  11    5.40   12.90
   4   7 -11    0.50    4.60
   4   7 -11   -0.50   14.70
  -4  -7  11  -10.50   10.60
  -4  -7  11   -0.10    3.80
   3   7 -11   46.60   17.60
   3   7 -11   89.99   11.30
  -3  -7  11   71.69    8.30
  -3  -7  11  101.79   21.70
   2   7 -11  217.48   32.00
   2   7 -11  281.47   17.30
  -2  -7  11  338.47   30.40
  -2  -7  11  230.28   15.50
   1   7 -11    5.40    5.40
   1   7 -11   25.60   16.80
  -1  -7  11   11.60    5.60
  -1  -7  11    4.50   11.40
   0   7 -11    2.20    5.80
   0  -7  11    4.80    5.50
   0  -7  11    8.20   14.10
   0  -7  11   -6.40   10.30
  -1   7 -11   25.70    8.00
   1  -7  11   21.90   14.00
   1  -7  11   38.70   16.40
   1  -7  11   54.79   10.10
  -2   7 -11  364.26   24.80
   2  -7  11  353.26   34.40
   2  -7  11  376.26   23.70
  -3   7 -11    0.50   11.50
   3  -7  11   -2.40   11.30
   3  -7  11   -2.70    5.40
   3  -7  11    0.80   13.70
  -4   7 -11   23.10    9.80
   4  -7  11   14.40    8.80
   4  -7  11   45.30   16.00
   4  -7  11   68.19   22.20
  -5   7 -11  -10.70   16.50
   5  -7  11    0.40    6.90
   5  -7  11   31.10   16.90
  -6   7 -11  100.69   27.20
   6  -7  11  107.79   18.90
  -7   7 -11   23.90   20.00
   7  -7  11   -8.30    6.60
   8  -7  11   34.60   12.90
  -9   7 -11  -15.80   18.10
   9  -7  11   -2.60    9.40
 -10   7 -11   26.20   24.50
  10  -7  11    1.10   10.10
  12   6 -11   12.90    8.00
  12   6 -11   33.90   10.10
 -12  -6  11   26.60   17.10
  11   6 -11   11.90    7.80
  11   6 -11   15.60    7.00
 -11  -6  11   15.30   12.90
  10   6 -11   16.80    7.30
  10   6 -11    8.70    6.30
 -10  -6  11   -3.90   11.30
   9   6 -11   32.30    8.10
   9   6 -11   28.20    6.80
  -9  -6  11    7.70   13.20
   8   6 -11  353.76   20.00
  -8  -6  11  301.47   29.60
   7   6 -11    9.50    5.40
  -7  -6  11   14.60   12.80
   6   6 -11   44.40    7.60
   6   6 -11   56.89   20.20
  -6  -6  11   31.10   13.70
  -6  -6  11   31.60    6.30
   5   6 -11    3.20    4.50
   5   6 -11    4.70   13.00
  -5  -6  11    4.40    4.10
  -5  -6  11    9.90   11.30
   4   6 -11  133.89   28.00
  -4  -6  11  115.89   10.30
  -4  -6  11  146.49   20.50
   3   6 -11    2.20    4.70
   3   6 -11   -3.50   10.50
  -3  -6  11  -10.80    9.50
  -3  -6  11    5.00    4.20
   2   6 -11    6.00    5.30
   2   6 -11    3.10   10.00
  -2  -6  11    2.90    9.40
  -2  -6  11    7.50    5.00
   1   6 -11   19.30   13.30
   1   6 -11   23.10    7.60
  -1  -6  11   21.30    7.20
  -1  -6  11   23.50   14.10
   0   6 -11   53.89    9.90
   0  -6  11   68.99    9.60
   0  -6  11   47.70   16.70
   0  -6  11   62.59   18.90
  -1   6 -11   55.49   10.90
   1  -6  11   71.29   11.50
   1  -6  11   42.90   18.00
   1  -6  11   81.99   19.40
  -2   6 -11   -2.50    5.50
   2  -6  11   15.00    7.20
   2  -6  11    7.60   11.50
   2  -6  11   10.70   13.80
  -3   6 -11    6.50    7.20
   3  -6  11    4.60   10.70
   3  -6  11    6.00    6.10
   3  -6  11    0.40   14.60
  -4   6 -11   14.70   17.80
  -4   6 -11    6.00    7.20
   4  -6  11    6.40   11.40
   4  -6  11    2.30    6.90
  -5   6 -11   43.30   19.80
   5  -6  11   23.80   12.40
   5  -6  11   31.10   10.30
  -6   6 -11   45.60   20.50
   6  -6  11   16.50    8.90
  -7   6 -11   16.00   16.90
   7  -6  11   -1.20    7.10
  -8   6 -11  -26.00   13.70
   8  -6  11    2.90    9.00
  -9   6 -11   36.00   21.10
   9  -6  11   51.99   15.60
 -10   6 -11   14.10   25.40
  10  -6  11   -6.80    8.10
 -11   6 -11   15.70   25.20
  11  -6  11   11.30   11.70
  13   5 -11    7.80   10.00
  13   5 -11    9.70    9.30
 -13  -5  11   12.10   13.90
  12   5 -11   10.00    9.30
  12   5 -11   14.90    8.10
 -12  -5  11   13.40   13.30
  11   5 -11   72.79   11.80
  11   5 -11   95.59   14.20
 -11  -5  11  137.49   22.50
  10   5 -11   50.49    9.40
  10   5 -11   50.79   10.70
 -10  -5  11   26.30   14.60
   9   5 -11   10.80    7.40
   9   5 -11    9.40    5.80
  -9  -5  11   15.40   13.20
   8   5 -11   42.50    8.70
   8   5 -11   56.09    8.50
  -8  -5  11   55.69   17.10
   7   5 -11   29.10    6.70
   7   5 -11   68.49   22.00
  -7  -5  11   40.80    7.90
  -7  -5  11   28.30   13.10
   6   5 -11  290.57   17.50
   6   5 -11  332.17   31.50
  -6  -5  11  304.07   26.60
  -6  -5  11  307.57   18.00
   5   5 -11   -2.00    3.60
   5   5 -11   11.90   11.70
  -5  -5  11    1.70    8.60
  -5  -5  11    3.50    5.00
   4   5 -11   31.60    6.60
   4   5 -11   32.00   14.90
  -4  -5  11   42.90   14.70
  -4  -5  11   43.80    8.00
   3   5 -11    8.20   11.60
   3   5 -11   31.10    7.30
  -3  -5  11   26.60   12.60
  -3  -5  11   18.30    5.80
   2   5 -11  622.64   41.20
   2   5 -11  646.44   31.80
  -2  -5  11  668.53   45.40
  -2  -5  11  658.93   31.20
   1   5 -11    3.70   10.40
   1   5 -11    0.70    4.90
  -1  -5  11   -5.10    3.80
  -1  -5  11   17.90   13.80
   0   5 -11  124.09   12.50
   0  -5  11  116.09   21.70
   0  -5  11  112.39   11.70
   0  -5  11  158.88   21.90
  -1   5 -11   71.59   10.70
   1  -5  11   61.29   16.10
   1  -5  11   57.89   10.30
  -2   5 -11  103.19   13.20
   2  -5  11  115.29   13.00
   2  -5  11  123.39   24.20
   2  -5  11  160.28   20.00
  -3   5 -11   10.90    6.90
   3  -5  11  -11.00    8.00
   3  -5  11   11.60    6.90
   3  -5  11   15.90   14.10
  -4   5 -11  294.87   22.80
  -4   5 -11  304.47   31.70
   4  -5  11  218.98   22.80
   4  -5  11  266.27   20.80
  -5   5 -11  -10.00   13.30
  -5   5 -11   -7.40    5.30
   5  -5  11   10.10    8.20
   5  -5  11   -2.80    9.60
  -6   5 -11   71.39   21.20
   6  -5  11   82.39   16.10
   6  -5  11   69.39   16.10
  -7   5 -11   23.50   18.00
   7  -5  11   -0.40    6.90
  -8   5 -11  182.68   33.50
   8  -5  11  155.68   20.10
  -9   5 -11   15.70   25.10
   9  -5  11    5.20    9.60
 -10   5 -11    8.20   20.40
  10  -5  11   -6.40    8.90
 -11   5 -11   14.20   22.70
  11  -5  11   10.60   11.10
  13   4 -11   56.79   13.50
  13   4 -11   61.89   13.40
 -13  -4  11   82.59   21.30
  12   4 -11    2.50    8.90
  12   4 -11   10.60    8.40
 -12  -4  11   -2.20   11.20
  11   4 -11   24.20    8.70
  11   4 -11   40.70   11.30
 -11  -4  11   53.69   17.60
  10   4 -11   24.50    7.30
  10   4 -11   38.70   10.60
 -10  -4  11   28.00   13.60
   9   4 -11   58.39   13.20
   9   4 -11   41.20    9.20
  -9  -4  11   52.39   15.70
   8   4 -11   31.30    7.90
  -8  -4  11   41.40    8.50
  -8  -4  11   22.90   12.20
   7   4 -11  293.67   29.80
   7   4 -11  270.57   17.80
  -7  -4  11  295.87   25.50
  -7  -4  11  311.07   19.10
   6   4 -11   -3.00    3.80
   6   4 -11    9.30   11.70
  -6  -4  11   18.00    9.60
  -6  -4  11    8.20    5.30
   5   4 -11    8.00    5.20
   5   4 -11   -2.90   10.30
  -5  -4  11   -0.80    8.00
  -5  -4  11    5.00    5.20
   4   4 -11   15.10    5.40
   4   4 -11    7.70    9.90
  -4  -4  11   14.30    9.90
  -4  -4  11   23.60    6.30
   3   4 -11  141.79   19.80
   3   4 -11  187.28   13.60
  -3  -4  11  188.28   13.60
  -3  -4  11  198.78   19.70
   2   4 -11   18.70    6.30
   2   4 -11   19.90   15.50
  -2  -4  11   20.10    6.30
  -2  -4  11   30.90   12.20
   1   4 -11  393.56   22.70
   1   4 -11  395.76   29.20
  -1  -4  11  403.06   22.40
  -1  -4  11  392.66   29.10
   0   4 -11    5.10    5.10
   0  -4  11    4.50    8.00
   0  -4  11   17.70   11.30
   0  -4  11    8.00   10.00
  -1   4 -11  508.35   29.00
   1  -4  11  529.15   28.60
   1  -4  11  532.95   34.00
   1  -4  11  558.84   36.30
  -2   4 -11   58.29   10.70
   2  -4  11   37.10    9.20
   2  -4  11   28.20   10.80
   2  -4  11   84.89   18.50
  -3   4 -11   74.59   12.20
  -3   4 -11  131.29   41.10
   3  -4  11   95.59   15.20
   3  -4  11  120.39   13.50
  -4   4 -11   24.30   14.70
  -4   4 -11   22.70    8.50
   4  -4  11   22.20    8.60
   4  -4  11   35.40   10.60
  -5   4 -11   43.50   11.90
  -5   4 -11   68.49   20.10
   5  -4  11   77.29   14.60
   5  -4  11   48.70   12.90
  -6   4 -11  -11.40   12.50
   6  -4  11    6.30    8.50
   6  -4  11   -3.90    8.00
  -7   4 -11  267.67   32.90
   7  -4  11  246.08   22.90
   7  -4  11  294.37   24.00
  -8   4 -11  -24.90   12.10
   8  -4  11    2.70    8.60
  -9   4 -11   21.10   18.20
   9  -4  11    4.90    9.10
 -10   4 -11  -12.80   16.20
  10  -4  11   -0.10    8.20
 -11   4 -11  -16.70   17.50
  11  -4  11   11.30   10.70
  13   3 -11    6.40    9.50
 -13  -3  11   16.60   15.70
  12   3 -11   -0.70    7.50
  12   3 -11    7.30    9.80
 -12  -3  11   13.80   12.30
  11   3 -11   -0.30    8.00
  11   3 -11    4.10    6.90
 -11  -3  11   -8.80   10.10
  10   3 -11   98.99   14.70
  10   3 -11   75.79   12.00
 -10  -3  11  113.89   19.00
   9   3 -11  110.89   12.70
   9   3 -11  108.49   14.90
  -9  -3  11  115.09   17.80
   8   3 -11    7.50    5.30
   8   3 -11   -7.30   10.30
  -8  -3  11    5.00    6.10
  -8  -3  11  -14.30    7.50
   7   3 -11   21.10    6.50
  -7  -3  11   11.90    9.50
   6   3 -11   -3.30    9.70
   6   3 -11    5.30    5.00
  -6  -3  11    8.40    5.20
  -6  -3  11   14.50    9.60
   5   3 -11  162.98   12.80
   5   3 -11  168.38   20.20
  -5  -3  11  137.59   12.70
  -5  -3  11  153.78   16.80
   4   3 -11  411.16   23.00
   4   3 -11  399.26   29.80
  -4  -3  11  452.75   27.80
  -4  -3  11  441.56   23.60
   3   3 -11   51.79    8.10
   3   3 -11   27.30   11.80
  -3  -3  11   56.79    8.50
  -3  -3  11   63.79   13.00
   2   3 -11  251.77   21.90
   2   3 -11  243.38   16.70
  -2  -3  11  273.47   17.10
  -2  -3  11  255.47   20.80
   1   3 -11   82.19   10.10
  -1  -3  11   93.89   15.90
  -1  -3  11   89.39   10.30
  -1  -3  11   94.29   15.00
   0   3 -11  140.49   12.80
   0  -3  11  119.19   16.10
   0  -3  11  103.49   15.90
   0  -3  11  119.39   12.20
  -1   3 -11   12.40    6.50
   1  -3  11    9.40    9.30
   1  -3  11    8.10    6.10
   1  -3  11    1.70    8.40
  -2   3 -11    1.30    5.10
   2  -3  11    3.90    6.30
   2  -3  11    3.30   10.80
   2  -3  11    0.10    7.30
  -3   3 -11    5.00    6.30
  -3   3 -11   16.70   12.60
   3  -3  11    3.60    5.40
   3  -3  11    6.30    7.30
  -4   3 -11  122.89   39.40
  -4   3 -11  131.19   15.20
   4  -3  11  147.19   15.40
   4  -3  11  137.89   15.20
  -5   3 -11    1.80   12.70
  -5   3 -11   18.50    8.20
   5  -3  11   18.70    9.70
   5  -3  11   17.60    8.10
  -6   3 -11   13.70   14.60
   6  -3  11    2.90    7.90
   6  -3  11    7.60    7.40
  -7   3 -11   -8.10   13.40
   7  -3  11   24.30   10.70
   7  -3  11    2.60    6.40
  -8   3 -11   63.09   22.10
  -9   3 -11   19.50   19.30
   9  -3  11    2.40    8.60
 -10   3 -11   17.70   20.50
  10  -3  11    5.30   10.30
 -11   3 -11   -4.40   17.80
  11  -3  11    3.50    9.10
  13   2 -11   42.90   13.70
 -13  -2  11   84.39   21.00
  12   2 -11   25.70   11.10
 -12  -2  11   23.40   13.60
  11   2 -11   40.70   11.10
  11   2 -11   41.10   12.70
 -11  -2  11   25.00   18.20
  10   2 -11  116.49   14.50
  10   2 -11  165.68   18.20
 -10  -2  11  122.59   18.70
   9   2 -11   82.49   13.30
  -9  -2  11   81.39   16.80
  -9  -2  11   77.89   13.30
   8   2 -11   26.70   13.20
   8   2 -11   10.30    6.40
  -8  -2  11   38.60    9.30
  -8  -2  11   44.10   13.10
   7   2 -11  106.19   20.60
   7   2 -11  130.89   12.40
  -7  -2  11  107.69   15.70
  -7  -2  11  124.19   13.10
   6   2 -11   62.69    9.10
   6   2 -11   85.39   16.80
  -6  -2  11   78.69   13.50
  -6  -2  11   71.49   10.20
   5   2 -11   28.30    7.20
   5   2 -11   27.60   11.90
  -5  -2  11   53.19   12.70
   4   2 -11    7.30    4.60
   4   2 -11   13.30    8.50
  -4  -2  11    2.20    6.20
  -4  -2  11    7.00    5.10
   3   2 -11  319.47   20.30
   3   2 -11  322.17   24.60
  -3  -2  11  393.06   23.00
  -3  -2  11  362.66   21.00
   2   2 -11   23.00    6.80
  -2  -2  11   20.30    8.10
  -2  -2  11   22.10    7.50
   1   2 -11 1034.80   47.20
  -1  -2  11 1035.20   48.50
  -1  -2  11  994.30   50.09
  -1  -2  11 1065.29   48.60
   0   2 -11   13.00    6.80
   0  -2  11    0.20    8.20
   0  -2  11   10.50    5.50
   0  -2  11    2.00    7.00
  -1   2 -11  245.18   17.90
   1  -2  11  233.68   20.40
   1  -2  11  231.18   17.30
   1  -2  11  249.88   19.00
  -2   2 -11    4.90    6.80
   2  -2  11   -1.40    5.60
   2  -2  11  -11.50    7.70
   2  -2  11    1.80    4.70
  -3   2 -11  142.09   22.00
  -3   2 -11  114.29   19.00
   3  -2  11  109.99   13.10
   3  -2  11  127.09   13.00
  -4   2 -11   -2.30    5.20
  -4   2 -11   -4.60   10.20
   4  -2  11   -4.30    6.40
   4  -2  11    6.60    5.80
  -5   2 -11   -2.00   11.00
  -5   2 -11   -1.40    6.10
   5  -2  11    3.60    6.90
   5  -2  11  -12.40    5.40
  -6   2 -11   26.80   15.50
   6  -2  11   12.80    8.80
   6  -2  11   -0.40    7.70
  -7   2 -11  125.89   25.00
   7  -2  11   88.29   16.20
   7  -2  11   69.09   14.50
  -8   2 -11   62.69   20.70
  -9   2 -11    7.00   17.50
   9  -2  11   22.00   11.40
 -10   2 -11  -19.60   22.60
  10  -2  11    8.60    9.20
 -11   2 -11   18.30   21.50
  11  -2  11   17.20   12.10
  13   1 -11   30.40   13.00
 -13  -1  11   41.20   17.10
  12   1 -11  134.89   21.80
 -12  -1  11  121.19   23.60
  11   1 -11   17.70   10.40
 -11  -1  11   22.30   11.90
  10   1 -11   12.00    8.30
  10   1 -11   -1.60    6.00
 -10  -1  11   13.50   12.00
   9   1 -11   -2.40    5.30
   9   1 -11    0.10   11.20
  -9  -1  11    9.40   10.20
  -9  -1  11   -1.30    5.90
   8   1 -11 1055.59   63.29
   8   1 -11 1019.40   50.69
  -8  -1  11 1098.29   52.99
  -8  -1  11 1095.59   51.59
   7   1 -11   27.00   11.80
   7   1 -11    8.00    6.30
  -7  -1  11   12.90    9.50
  -7  -1  11   34.70    9.40
   6   1 -11   31.80   12.50
   6   1 -11   35.50    8.80
  -6  -1  11   26.40    8.10
   5   1 -11   33.10   10.70
   5   1 -11   37.40    8.00
  -5  -1  11   49.99    9.40
  -5  -1  11   65.59   12.30
   4   1 -11  409.16   26.70
   4   1 -11  413.56   23.20
  -4  -1  11  403.46   23.60
  -4  -1  11  364.36   22.70
   3   1 -11    1.90    4.40
   3   1 -11   13.70    7.90
  -3  -1  11    5.70    5.00
  -3  -1  11   -3.70    5.80
   2   1 -11  528.75   28.30
   2   1 -11  515.35   29.60
  -2  -1  11  544.65   28.50
  -2  -1  11  531.55   27.00
   1   1 -11   11.50    6.00
  -1  -1  11    6.00    5.90
  -1  -1  11   15.50    8.20
  -1  -1  11    5.60    6.30
   0   1 -11  306.37   20.30
   0  -1  11  300.67   19.80
   0  -1  11  304.37   19.80
   0  -1  11  330.67   19.40
  -1   1 -11    6.80    5.50
   1  -1  11    2.70    5.20
   1  -1  11   13.60    8.60
   1  -1  11    4.50    5.70
  -2   1 -11    8.20    5.60
   2  -1  11   -1.00    4.90
   2  -1  11   21.60   10.80
   2  -1  11    2.90    5.10
  -3   1 -11   -6.20    4.30
  -3   1 -11  -10.50    9.50
   3  -1  11   -0.50    4.90
   3  -1  11   -0.80    5.20
  -4   1 -11    0.70    6.10
  -4   1 -11  -18.60    8.40
   4  -1  11   -2.50    5.20
   4  -1  11   -1.20    5.60
  -5   1 -11   27.90   15.80
  -5   1 -11   28.00   17.70
   5  -1  11   44.90   12.10
   5  -1  11   36.90    9.50
  -6   1 -11  160.98   23.00
   6  -1  11  154.08   17.30
   6  -1  11  119.59   14.80
  -7   1 -11    2.50   13.30
   7  -1  11   -1.30    6.90
  -8   1 -11  110.09   23.40
   8  -1  11  114.89   20.50
   8  -1  11   86.49   24.70
  -9   1 -11    4.80   16.10
   9  -1  11  -12.50    6.40
 -10   1 -11   42.10   26.20
  10  -1  11   49.60   14.60
  13   0 -11  106.69   19.80
 -13   0  11   73.59   18.80
  12   0 -11   17.60   11.20
 -12   0  11    5.40   10.60
  11   0 -11   33.70   12.20
 -11   0  11   18.20   11.20
  10   0 -11   39.40   12.00
 -10   0  11   39.50   14.00
   9   0 -11   27.80   14.60
   9   0 -11   15.20    8.40
  -9   0  11   30.70    9.50
  -9   0  11   64.49   15.40
   8   0 -11   12.80   10.20
   8   0 -11    5.20    6.20
  -8   0  11   -3.20    6.00
  -8   0  11    4.60    8.30
   7   0 -11    9.30   10.80
   7   0 -11   -4.80    7.70
  -7   0  11   10.10    7.50
  -7   0  11   19.50    9.30
   6   0 -11   12.30    8.70
   6   0 -11   10.40    5.90
  -6   0  11    6.30    6.60
  -6   0  11   10.80    7.60
   5   0 -11  414.26   24.90
   5   0 -11  404.86   26.80
  -5   0  11  452.65   25.90
  -5   0  11  419.66   24.00
   4   0 -11   10.00    7.80
   4   0 -11    6.80    4.90
  -4   0  11   20.20    7.10
  -4   0  11   15.20    6.20
   3   0 -11   85.59   10.40
   3   0 -11   73.49   11.30
  -3   0  11   83.99    9.30
  -3   0  11   68.49   10.40
   2   0 -11   -0.20    5.50
   2   0 -11    0.00    4.30
  -2   0  11    5.10    4.90
  -2   0  11   -0.70    4.70
   1   0 -11   88.49   10.80
  -1   0  11   79.09    7.90
  -1   0  11   89.69    9.20
  -1   0  11   82.39   10.40
   0   0 -11    5.90    5.20
   0   0  11   14.90    5.10
   0   0  11   15.50    4.20
   0   0  11   35.40    8.90
  -1   0 -11   -0.10    4.00
   1   0  11   -3.20    6.00
   1   0  11    1.70    4.60
   1   0  11    6.30    4.00
  -2   0 -11   11.00    7.90
   2   0  11   -0.50    3.80
   2   0  11    6.70    5.90
  -3   0 -11  246.98   21.20
  -3   0 -11  176.58   17.80
   3   0  11  259.77   19.40
   3   0  11  247.48   15.00
  -4   0 -11   68.29   12.90
  -4   0 -11   79.49   15.80
   4   0  11   64.19   10.10
   4   0  11   59.79   11.80
  -5   0 -11  128.09   19.80
   5   0  11  123.39   14.40
   5   0  11  145.99   16.10
  -6   0 -11    9.90   12.80
   6   0  11    2.40    6.50
   6   0  11    6.40    9.00
  -7   0 -11    3.70   13.10
   7   0  11   10.30   10.70
   7   0  11   15.20    9.20
  -8   0 -11   11.80   14.80
   8   0  11   16.10   11.50
   8   0  11   10.60   12.90
  -9   0 -11   53.39   20.10
   9   0  11   69.29   15.90
 -10   0 -11   -0.80   15.10
  10   0  11  -17.30    7.10
  13  -1 -11   -1.00    8.70
 -13   1  11   -3.00   10.30
  12  -1 -11   -9.80   13.50
 -12   1  11    4.30   11.50
  11  -1 -11   22.40   11.90
 -11   1  11   33.50   12.60
 -10   1  11   11.40    9.40
   9  -1 -11   19.20   12.90
  -9   1  11   -0.30    7.60
  -9   1  11    3.50    6.30
   8  -1 -11  449.16   31.80
   8  -1 -11  437.96   28.20
  -8   1  11  475.35   28.90
  -8   1  11  447.46   29.30
   7  -1 -11  138.99   14.60
   7  -1 -11  117.79   16.10
  -7   1  11  153.18   16.00
  -7   1  11  159.38   15.90
   6  -1 -11   24.10   10.20
   6  -1 -11    6.90    6.50
  -6   1  11   15.40    7.20
  -6   1  11    3.50    6.00
   5  -1 -11   13.50    6.90
   5  -1 -11    6.80    7.40
  -5   1  11   15.00    6.80
  -5   1  11   25.00    8.50
   4  -1 -11  374.16   23.60
   4  -1 -11  383.96   23.20
  -4   1  11  411.96   20.60
  -4   1  11  376.56   24.00
   3  -1 -11   19.90    6.60
   3  -1 -11   21.70    7.30
  -3   1  11   31.80    8.40
  -3   1  11   27.00    5.50
   2  -1 -11  228.38   17.40
  -2   1  11  241.58   17.70
  -2   1  11  243.08   11.70
   1  -1 -11    1.10    4.70
  -1   1  11    6.50    5.30
   0  -1 -11  240.48   18.10
   0   1  11  267.37   18.70
  -1  -1 -11   28.70    9.20
   1   1  11   35.80    4.60
   1   1  11   36.90    6.30
   1   1  11   49.70    9.90
  -2  -1 -11  146.09   15.10
   2   1  11  131.39    9.80
   2   1  11  156.48   14.80
  -3  -1 -11   19.00    7.40
   3   1  11   45.50    8.20
   3   1  11   42.80   10.50
  -4  -1 -11  322.37   24.90
  -4  -1 -11  326.87   25.20
   4   1  11  371.46   22.40
   4   1  11  396.76   25.50
  -5  -1 -11   -0.70   10.80
   5   1  11    3.50    7.80
   5   1  11  -13.00    7.50
  -6  -1 -11  152.68   20.20
   6   1  11  143.99   17.10
   6   1  11  161.58   18.10
  -7  -1 -11    5.10   12.80
   7   1  11   25.60   12.80
   7   1  11   24.50   10.20
  -8  -1 -11   47.20   17.40
   8   1  11   48.00   16.20
   8   1  11   46.90   13.80
  -9  -1 -11   17.10   16.10
   9   1  11    0.40    9.20
 -10  -1 -11   -8.70   14.60
  10   1  11   11.70   10.60
  13  -2 -11  162.38   24.20
 -13   2  11  191.18   24.80
  12  -2 -11    0.60    9.00
 -12   2  11   -6.10    9.80
  11  -2 -11    8.00   12.10
 -11   2  11   14.20   11.30
 -10   2  11   28.30   10.30
 -10   2  11   33.40   12.10
   9  -2 -11  950.30   53.69
  -9   2  11 1024.10   52.59
  -9   2  11 1031.00   51.49
   8  -2 -11    3.00    8.60
  -8   2  11   10.10    8.70
  -8   2  11   -0.30    6.60
   7  -2 -11   99.59   17.30
   7  -2 -11   84.79   12.70
  -7   2  11   99.09   16.40
   6  -2 -11   17.30    7.60
   6  -2 -11   22.70    8.70
  -6   2  11   27.10    9.40
  -6   2  11   15.40    7.50
   5  -2 -11  226.28   18.00
  -5   2  11  235.98   15.40
  -5   2  11  199.48   18.00
   4  -2 -11   -3.20    4.50
   4  -2 -11    3.60    5.20
  -4   2  11    3.60    6.10
  -4   2  11   -5.00    4.00
   3  -2 -11  208.18   13.40
   3  -2 -11  175.88   21.50
  -3   2  11  209.48   11.30
  -3   2  11  228.98   17.80
   2  -2 -11   -5.80    3.90
  -2   2  11    5.70    5.80
   1  -2 -11    5.00    6.40
  -1   2  11   -2.70    4.60
   0  -2 -11   11.40    7.80
   0   2  11    7.10    6.40
  -1  -2 -11  669.73   36.10
   1   2  11  663.43   35.30
  -2  -2 -11    7.30    6.50
   2   2  11   -1.80    4.90
   2   2  11    3.10    3.90
  -3  -2 -11   -7.00    8.60
  -3  -2 -11    3.40    6.40
   3   2  11   -0.50    6.30
   3   2  11    4.50    6.50
  -4  -2 -11   17.50   10.00
   4   2  11    4.10    7.70
   4   2  11    9.00    7.60
  -5  -2 -11   51.39   13.10
   5   2  11   66.69   13.60
   5   2  11   59.49   12.40
   6   2  11   -8.30    9.90
   6   2  11    9.60    9.20
  -7  -2 -11    2.30   11.60
   7   2  11   17.80   14.80
   7   2  11   34.80   11.90
  -8  -2 -11   15.90   13.50
   8   2  11   27.10   11.90
   8   2  11    5.30   14.80
  -9  -2 -11   64.49   19.50
   9   2  11  109.59   19.40
  13  -3 -11   -4.70    9.00
 -13   3  11   15.30   15.70
  12  -3 -11   73.09   19.00
 -12   3  11   63.19   18.00
  11  -3 -11   83.09   19.10
 -11   3  11   33.20   13.30
 -10   3  11  124.19   18.00
 -10   3  11  141.89   19.10
   9  -3 -11    7.70   10.40
  -9   3  11   19.40    9.50
  -9   3  11   -1.00    8.20
   8  -3 -11    6.10    8.50
  -8   3  11    6.50    7.90
  -8   3  11   -1.90    6.90
   7  -3 -11   31.70   10.80
  -7   3  11   45.90   11.90
  -7   3  11   53.09   12.40
   6  -3 -11   31.10    9.70
   6  -3 -11   25.10    9.30
  -6   3  11   25.10    8.60
  -6   3  11   11.10    7.40
   5  -3 -11    2.70    6.10
   5  -3 -11    4.70    5.80
  -5   3  11   13.70    6.30
  -5   3  11   11.10    6.80
   4  -3 -11   15.80    6.50
   4  -3 -11   -2.80    4.90
  -4   3  11    1.00    6.50
  -4   3  11    3.00    5.00
   3  -3 -11    4.60    5.60
  -3   3  11   -6.70    4.40
   2  -3 -11    3.20    5.00
  -2   3  11    0.20    5.10
   1  -3 -11   -1.90    5.20
  -1   3  11   10.20    7.40
   0  -3 -11   43.70   10.90
   0   3  11   24.10    9.20
  -1  -3 -11    9.70    6.80
   1   3  11    0.20    5.80
  -2  -3 -11   10.40    7.60
   2   3  11   -0.30    6.60
  -3  -3 -11    3.80    7.10
  -3  -3 -11   -4.10    7.70
   3   3  11    4.20    7.30
   3   3  11   -2.00    5.80
  -4  -3 -11    4.60    9.10
   4   3  11    5.80    8.50
   4   3  11   10.00    8.50
  -5  -3 -11   -6.00    8.60
   5   3  11   -0.60    9.70
   5   3  11   27.50   10.50
  -6  -3 -11  -15.90    9.60
   6   3  11    5.30    8.30
   6   3  11   13.20   12.50
  -7  -3 -11   13.50   13.20
   7   3  11   -4.00   14.10
   7   3  11   17.10   14.30
  -8  -3 -11   17.10   13.80
   8   3  11    9.00   16.70
   8   3  11   21.20   11.50
  -9  -3 -11   90.29   21.80
   9   3  11   73.59   17.10
  13  -4 -11  101.49   21.80
 -13   4  11   57.59   21.00
  12  -4 -11   -1.40    9.80
 -12   4  11  -10.60   10.40
  11  -4 -11   -0.90    8.30
 -11   4  11   -3.40   10.70
 -10   4  11   -3.00    5.70
 -10   4  11    0.90    9.30
   9  -4 -11   43.30   13.70
  -9   4  11   59.89   14.90
  -9   4  11   50.29   14.10
   8  -4 -11    6.70    9.60
  -8   4  11   -0.20    8.90
  -8   4  11   -2.40    6.90
   7  -4 -11    8.70    8.00
  -7   4  11   -2.00    5.80
  -7   4  11    7.50    8.50
   6  -4 -11   31.60    9.80
  -6   4  11   20.30    9.00
  -6   4  11   38.90   10.40
   5  -4 -11  121.89   11.80
  -5   4  11  103.39   14.00
  -5   4  11   83.39   11.30
   4  -4 -11   13.10    7.50
   4  -4 -11   18.70    6.00
  -4   4  11   18.00    7.90
  -4   4  11   27.50    7.10
   3  -4 -11  434.96   27.00
  -3   4  11  394.86   26.30
   2  -4 -11   17.00    7.60
  -2   4  11   31.90    9.20
   1  -4 -11   -0.90    5.80
  -1   4  11    3.70    6.70
   0  -4 -11    5.60    7.20
   0   4  11    3.00    7.10
  -1  -4 -11  139.59   15.60
   1   4  11  144.69   15.90
  -2  -4 -11   14.70   13.50
   2   4  11   54.69   11.30
  -3  -4 -11  175.38   12.60
   3   4  11  137.39   11.60
   3   4  11  117.79   15.70
  -4  -4 -11   -3.80    7.40
   4   4  11   -0.70    6.80
   4   4  11   10.30    9.00
  -5  -4 -11   69.39   14.10
   5   4  11   77.89   15.60
   5   4  11   59.79   13.30
  -6  -4 -11   59.59   15.10
   6   4  11   53.19   16.30
   6   4  11   59.19   13.60
  -7  -4 -11   45.00   15.00
   7   4  11   33.10   12.40
   7   4  11   80.09   20.60
  -8  -4 -11    9.70   13.50
   8   4  11   23.00   11.40
   8   4  11    0.00   19.90
  12  -5 -11    2.70   11.00
 -12   5  11   15.40   13.30
  11  -5 -11    2.60    9.80
 -11   5  11    7.30   12.10
 -10   5  11  134.49   20.00
 -10   5  11  121.49   18.20
   9  -5 -11   43.40   14.00
  -9   5  11   43.30   14.30
  -9   5  11   37.00   12.90
   8  -5 -11   74.79   15.50
  -8   5  11  109.19   19.30
  -8   5  11  119.09   22.20
   7  -5 -11    1.90    7.30
  -7   5  11   11.00    8.70
  -7   5  11    9.30    7.30
   6  -5 -11   86.39   12.10
  -6   5  11  101.09   13.70
  -6   5  11  101.19   17.10
   5  -5 -11   50.29    9.10
  -5   5  11   64.79   12.10
  -5   5  11   45.60   11.80
   4  -5 -11  669.73   29.20
  -4   5  11  627.54   37.30
  -3   5  11   16.90    8.60
  -2   5  11   64.89   13.10
  -1   5  11   -1.10    6.30
   0   5  11  255.47   21.30
   1   5  11    9.60    8.00
   2   5  11  126.79   15.90
  -3  -5 -11    0.90    6.30
   3   5  11    7.90    8.20
  -4  -5 -11   46.20    9.80
   4   5  11   60.09   12.40
   4   5  11   57.39   13.60
  -5  -5 -11   46.90   11.90
   5   5  11   60.89   14.90
   5   5  11   47.60   13.60
  -6  -5 -11   74.79   15.40
   6   5  11   65.79   21.40
   6   5  11   70.69   19.40
  -7  -5 -11    9.30   12.20
   7   5  11   19.00   18.10
   7   5  11    7.00   11.10
  -8  -5 -11   27.70   15.00
   8   5  11   22.20   12.70
   8   5  11   50.19   24.90
  12  -6 -11   21.20   15.20
 -12   6  11   25.70   15.50
  11  -6 -11   79.99   21.00
 -11   6  11   55.89   18.80
 -10   6  11   -1.90    6.30
 -10   6  11    1.70   10.50
   9  -6 -11   61.29   15.90
  -9   6  11   68.09   15.70
  -9   6  11  120.79   21.20
   8  -6 -11   15.50    9.30
  -8   6  11   31.00   12.20
  -8   6  11   19.80   10.30
   7  -6 -11   59.69   12.20
  -7   6  11   89.29   24.10
  -7   6  11   60.69   15.00
   6  -6 -11    0.00    6.20
  -6   6  11    1.20    7.90
  -6   6  11    4.40    7.50
   5  -6 -11  114.59   11.40
  -5   6  11  126.29   16.60
   4  -6 -11    0.30    5.60
   4  -6 -11    0.10    4.30
  -4   6  11   -5.20    5.80
  -3   6  11   64.29   13.30
  -2   6  11   27.60    9.80
  -1   6  11  131.29   16.20
   0   6  11    2.80    6.90
   1   6  11    8.60    8.80
   2   6  11   -5.80    7.80
   3   6  11    2.20    8.70
  -4  -6 -11   33.60    8.90
   4   6  11   40.10   12.10
   4   6  11   49.80   12.20
  -5  -6 -11   27.10   10.00
   5   6  11   37.80   13.80
   5   6  11   19.00   24.00
  -6  -6 -11   35.90   13.10
   6   6  11   18.80   11.40
   6   6  11   32.90   17.00
  -7  -6 -11   42.40   15.10
   7   6  11   38.40   22.10
   7   6  11   39.70   14.40
  11  -7 -11   22.60   14.80
 -11   7  11    4.60   12.20
  10  -7 -11    1.50    9.50
 -10   7  11   16.00   13.70
   9  -7 -11   -1.60    8.40
  -9   7  11   13.40   12.90
  -9   7  11   -4.00    6.50
   8  -7 -11    5.90    9.00
  -8   7  11    3.10    9.80
  -8   7  11    4.30    7.30
   7  -7 -11  -12.60    6.60
  -7   7  11   -3.10   11.50
  -7   7  11   -0.50    6.90
   6  -7 -11   15.30    7.70
  -6   7  11   32.50   11.20
  -6   7  11   22.30   11.40
   5  -7 -11   10.30    6.20
   5  -7 -11    1.20    8.40
  -5   7  11    5.20   11.40
   4  -7 -11   79.39   10.40
   4  -7 -11   97.99    8.40
  -4   7  11  105.59   15.90
  -3   7  11   34.60   12.00
  -2   7  11   25.10   10.20
  -1   7  11   15.50    9.00
   0   7  11   71.09   15.20
   1   7  11   65.49   13.60
   2   7  11  140.49   18.20
   3   7  11   -1.30    7.90
  -4  -7 -11  117.59   12.40
   4   7  11  169.48   24.00
  -5  -7 -11   27.00   10.10
   5   7  11   17.70   12.60
  -6  -7 -11    9.00   11.30
   6   7  11   20.20   18.00
   6   7  11   -9.90   10.80
  10  -8 -11   11.00   11.60
 -10   8  11   -0.60   11.80
   9  -8 -11  154.08   19.10
  -9   8  11  200.38   23.30
  -9   8  11  208.18   25.40
   8  -8 -11   -0.20    7.90
  -8   8  11   -5.70   10.00
  -8   8  11   13.10    9.40
   7  -8 -11   52.79   12.10
  -7   8  11   71.19   16.80
  -7   8  11   66.49   26.10
   6  -8 -11   23.20    8.50
   6  -8 -11   23.10   12.40
  -6   8  11    7.30    8.70
   5  -8 -11  337.57   23.70
   5  -8 -11  294.87   18.80
  -5   8  11  360.16   28.30
   4  -8 -11   29.10    7.40
   4  -8 -11   21.10    5.60
  -4   8  11   21.60   10.60
  -3   8  11   -2.30   13.20
  -2   8  11   11.10    9.60
  -1   8  11  406.96   29.90
   0   8  11   43.50   12.10
   1   8  11   -5.70    7.00
   2   8  11  -15.10   11.00
   3   8  11   12.20   12.60
  -4  -8 -11   34.50   11.20
  -4  -8 -11   31.50    8.00
   4   8  11   28.90   13.50
   9  -9 -11   -4.80    9.50
  -9   9  11   30.90   15.60
  -9   9  11    1.70    8.80
  -8   9  11   61.89   16.80
  -8   9  11   62.89   17.60
   7  -9 -11    9.90    7.90
   7  -9 -11   30.10   16.00
  -7   9  11   20.30   10.50
   6  -9 -11  123.99   19.40
   6  -9 -11  110.19   12.70
  -6   9  11  120.99   18.80
   5  -9 -11    6.00    9.60
   5  -9 -11    2.60   10.40
  -5   9  11   -7.30    6.50
   4  -9 -11   -2.20    6.20
   4  -9 -11    2.70    4.60
  -4   9  11    2.30   10.00
  -3   9  11   12.80    9.30
  -2   9  11   33.10   12.40
  -1   9  11   17.20   11.10
   0   9  11   74.59   17.50
   1   9  11   16.10   10.60
   2   9  11   25.00   12.20
   3   9  11   31.40   14.00
   7 -10 -11   12.20    9.00
   7 -10 -11   -2.70   13.10
  -7  10  11    6.80   10.90
   6 -10 -11    3.20    7.00
   6 -10 -11   -2.60   11.60
  -6  10  11   -0.80    8.10
   5 -10 -11   49.00   13.50
  -5  10  11   57.89   16.00
   4 -10 -11    7.60    7.00
   4 -10 -11    3.90    4.90
  -4  10  11   35.10   13.10
  -3  10  11   19.50   10.30
  -2  10  11   -5.50    9.10
  -1  10  11   -4.20    9.10
   0  10  11    4.40   10.60
   1  10  11    9.10   12.00
  -4 -14  12   34.80   27.40
  -3 -14  12    5.60   23.70
  -2 -14  12  -12.70   21.50
  -1 -14  12   48.00   28.30
  -1 -14  12   10.30    8.10
  -1 -14  12   20.30    7.30
   0 -14  12   18.10    8.40
   0 -14  12   19.70   23.50
   0 -14  12   20.10    9.60
   1 -14  12   24.50   26.60
   1 -14  12   33.10   10.70
   1 -14  12   15.30   10.10
   2 -14  12   64.69   13.40
   2 -14  12   40.80   12.40
   2 -14  12  109.19   32.10
   3 -14  12  -13.90   21.00
   3 -14  12    4.40   10.50
   4 -14  12   26.50   12.60
   4 -14  12   28.00   26.10
  -6 -13  12   33.80   22.90
  -5 -13  12  -25.00   18.50
  -4 -13  12  -25.30   16.60
  -3 -13  12   -7.80   22.20
  -2 -13  12   50.39    7.00
  -2 -13  12   59.89   29.80
  -2 -13  12   65.59    7.70
  -1 -13  12  -20.70   18.20
  -1 -13  12    3.10    6.70
  -1 -13  12   -2.20    5.50
   0 -13  12    2.10   18.50
   0 -13  12    3.40    7.50
   0 -13  12   18.80    8.30
   1 -13  12   31.40   27.20
   1 -13  12   30.60   10.20
  -2  13 -12    4.80   10.50
   2 -13  12    5.80   21.90
   2 -13  12    6.30    8.40
   3 -13  12   38.20   27.90
   3 -13  12   13.40   10.20
   4 -13  12  156.18   38.30
   4 -13  12  133.29   18.80
   5 -13  12   -1.20   19.50
   5 -13  12   15.20   11.90
   6 -13  12  -16.50   21.50
   6 -13  12    2.80   10.60
  -7 -12  12   54.99   26.20
  -6 -12  12   -1.70   18.90
  -5 -12  12    7.30   20.90
  -4 -12  12   24.60   21.50
  -3 -12  12  107.59   29.80
  -2 -12  12    7.80    5.10
  -2 -12  12    9.00   19.50
  -2 -12  12   20.60    6.40
  -1 -12  12   34.30   24.60
  -1 -12  12   11.60    6.40
   0  12 -12   74.39   13.10
   0 -12  12   80.39   12.40
   0 -12  12   77.69   27.70
  -1  12 -12   33.30   11.50
   1 -12  12   33.30   23.60
   1 -12  12   22.60    8.70
  -2  12 -12   29.80   12.60
   2 -12  12   10.60   20.50
   2 -12  12   41.40   12.40
   3 -12  12    7.20    8.60
   3 -12  12  -26.70   16.30
   4 -12  12    6.10    9.90
   4 -12  12   29.20   25.80
   5 -12  12   -2.40    9.50
   5 -12  12    1.50   18.20
   6 -12  12   52.69   14.80
   6 -12  12   61.69   28.40
   7 -12  12    2.20    9.50
   7 -12  12  -28.10   21.30
  -8 -11  12   43.20   22.90
  -7 -11  12   -3.10   16.70
  -6 -11  12   22.60   21.30
  -5 -11  12   91.79   26.10
  -4 -11  12  113.49   28.40
  -3 -11  12   37.90   27.30
  -3 -11  12   21.30    4.60
   2  11 -12   28.60   11.60
  -2 -11  12   13.90    5.80
  -2 -11  12   36.50   24.60
   1  11 -12  106.29   13.90
  -1 -11  12   72.29   10.60
  -1 -11  12  111.29   28.90
   0  11 -12  410.26   26.90
   0 -11  12  419.26   25.10
   0 -11  12  450.55   45.90
  -1  11 -12    8.70    9.40
   1 -11  12   27.80   23.30
   1 -11  12    4.30    7.40
  -2  11 -12   42.90   12.80
   2 -11  12   43.90   24.10
   2 -11  12   49.60   10.70
  -3  11 -12   34.70   13.00
   3 -11  12   13.80    8.80
   3 -11  12    6.40   22.80
   4 -11  12   28.50   22.90
   4 -11  12    4.70    8.80
   5 -11  12   15.60   21.90
   5 -11  12   14.70   10.00
   6 -11  12   42.70   27.00
   6 -11  12   -6.90    7.90
   7 -11  12   72.99   30.10
   7 -11  12   50.99   15.50
  -8  11 -12   27.10   27.20
   8 -11  12  -35.00   20.40
   8 -11  12    4.00   10.70
  -9 -10  12    6.50   18.20
  -8 -10  12   24.50   19.90
  -7 -10  12  190.08   30.30
  -6 -10  12    3.90   16.90
  -4 -10  12    4.00   17.90
  -4 -10  12    4.70    3.20
   3  10 -12  210.38   14.10
  -3 -10  12  196.78   12.60
  -3 -10  12  242.28   33.60
   2  10 -12    9.20    6.80
  -2 -10  12    8.30    5.20
  -2 -10  12   17.20   19.30
   1  10 -12   51.39   11.10
  -1 -10  12   67.89   24.90
  -1 -10  12   30.50    7.80
   0  10 -12    1.20    7.60
   0 -10  12    7.90    6.70
   0 -10  12   -4.40   16.30
  -1  10 -12   -4.50    7.90
   1 -10  12    3.60    6.90
   1 -10  12   -5.20   16.10
  -2  10 -12    5.30    9.00
   2 -10  12   -0.30    6.80
   2 -10  12   15.40   19.50
  -3  10 -12   32.90   12.30
   3 -10  12   42.30   10.80
   3 -10  12   14.80   18.20
   4 -10  12   17.20   21.00
   4 -10  12    0.60    7.30
   5 -10  12   16.10   10.60
   5 -10  12   -9.60   18.80
   6 -10  12   -3.40   10.90
   6 -10  12    8.50   22.90
  -7  10 -12    5.50   20.20
   7 -10  12   -0.40    9.70
  -8  10 -12   35.60   26.70
   8 -10  12   21.60   12.90
  -9  10 -12  -24.60   21.90
   9 -10  12   -2.80    9.20
 -10  -9  12  -17.90   14.00
  -9  -9  12   31.30   20.10
  -8  -9  12  154.48   29.60
  -7  -9  12   -5.00   14.70
  -6  -9  12   20.60   17.40
   5   9 -12   54.79    5.80
  -5  -9  12   68.39   24.30
  -5  -9  12   50.59    5.40
   4   9 -12   18.50    5.90
  -4  -9  12   24.30   16.90
  -4  -9  12   18.60    5.40
   3   9 -12    0.90    5.40
  -3  -9  12    3.60   14.60
  -3  -9  12   -3.90    4.10
   2   9 -12   41.10    8.80
  -2  -9  12   20.40   17.90
  -2  -9  12   35.40    7.70
   1   9 -12   87.59   12.50
  -1  -9  12   84.59   10.60
  -1  -9  12  121.79   28.10
   0   9 -12   13.30    8.30
   0  -9  12   25.50    8.80
   0  -9  12   20.40   18.00
  -1   9 -12  278.47   22.30
   1  -9  12  299.57   21.10
   1  -9  12  261.57   33.60
  -2   9 -12   51.59   18.90
   2  -9  12   52.19   21.90
   2  -9  12   56.09   11.60
  -3   9 -12   28.20   11.50
   3  -9  12   54.69   22.10
   3  -9  12   56.19   12.00
   4  -9  12   12.90    8.80
   4  -9  12   -5.00   16.00
   5  -9  12  188.48   20.40
   5  -9  12  234.38   35.90
   6  -9  12   52.39   14.80
  -7   9 -12   90.59   31.10
   7  -9  12   29.90   12.50
  -8   9 -12   29.30   24.70
   8  -9  12    7.30   11.00
  -9   9 -12   29.60   25.00
   9  -9  12   38.40   15.60
 -11  -8  12    9.30   16.80
 -10  -8  12   67.09   21.10
  -9  -8  12   24.60   17.10
  -8  -8  12    6.60   14.80
   7   8 -12   70.89    6.50
   7   8 -12   60.09    6.20
  -7  -8  12   57.89   19.30
   6   8 -12   78.79    8.00
  -6  -8  12   85.49   21.10
   5   8 -12   21.40    6.00
  -5  -8  12   42.30    6.40
  -5  -8  12   25.50   15.20
   4   8 -12  126.19   11.80
  -4  -8  12  139.19   10.80
  -4  -8  12  187.58   32.50
   3   8 -12   16.30    6.50
   3   8 -12   10.70   16.80
  -3  -8  12   18.70   17.10
  -3  -8  12   19.30    5.70
   2   8 -12   45.80   20.60
   2   8 -12   58.79   10.40
  -2  -8  12   92.49   23.20
  -2  -8  12   67.19    9.10
   1   8 -12   26.40    8.40
  -1  -8  12   27.90   18.40
  -1  -8  12   27.70    7.70
  -1  -8  12   38.20   17.90
   0   8 -12  149.69   15.70
   0  -8  12  167.78   14.70
   0  -8  12  138.49   28.10
   0  -8  12  161.78   27.30
  -1   8 -12   -3.30    6.00
   1  -8  12    6.20   14.50
   1  -8  12   42.40   18.70
   1  -8  12   13.90    7.50
  -2   8 -12   16.30    9.00
   2  -8  12   19.60   15.40
   2  -8  12    9.00    7.20
   2  -8  12   21.10   18.50
  -3   8 -12   14.70    9.70
   3  -8  12    8.40   17.30
   3  -8  12   23.80   17.50
   3  -8  12   25.60    9.10
   4  -8  12  371.56   40.00
   4  -8  12  413.96   27.80
   5  -8  12  -10.90    6.80
   5  -8  12    5.20   15.60
  -6   8 -12   21.80   20.40
   6  -8  12    8.50    9.10
  -7   8 -12  -45.20   31.50
   7  -8  12   22.90   11.10
  -8   8 -12   89.19   31.50
   8  -8  12   55.59   16.40
  -9   8 -12    9.20   22.50
   9  -8  12    3.80   10.60
 -10   8 -12   30.50   27.50
  10  -8  12    7.90   11.20
  11   7 -12   26.40    7.80
 -11  -7  12    7.60   14.00
  10   7 -12    4.90    6.30
  10   7 -12    8.00    6.10
 -10  -7  12   10.10   13.70
   9   7 -12    0.10    5.40
   9   7 -12    1.30    4.80
  -9  -7  12   -7.70   14.10
   8   7 -12  143.79   11.80
   8   7 -12  144.29   11.20
  -8  -7  12  147.39   23.90
   7   7 -12    1.60    4.70
  -7  -7  12   11.80   14.10
   6   7 -12  127.49   11.00
  -6  -7  12  123.69   10.30
  -6  -7  12  135.09   23.70
   5   7 -12   39.50   21.80
   5   7 -12   52.79    8.70
  -5  -7  12   48.20    7.80
  -5  -7  12   50.29   17.50
   4   7 -12   44.10    8.30
   4   7 -12   44.30   18.90
  -4  -7  12   33.50   14.90
  -4  -7  12   38.50    7.50
   3   7 -12    5.00    5.70
   3   7 -12   -9.70   13.20
  -3  -7  12    0.30   12.20
  -3  -7  12    2.70    4.80
   2   7 -12  140.09   13.50
   2   7 -12  164.58   28.70
  -2  -7  12  140.49   12.10
  -2  -7  12  201.68   25.70
   1   7 -12    0.40    5.80
  -1  -7  12    0.60    5.10
  -1  -7  12    4.70   12.80
   0   7 -12    2.10    6.40
   0  -7  12    8.50   13.20
   0  -7  12    4.40    6.20
  -1   7 -12    2.20    7.00
   1  -7  12    8.10    6.30
   1  -7  12    2.60   14.70
  -2   7 -12   32.50    9.90
   2  -7  12   19.00    8.20
   2  -7  12   22.90   17.40
   2  -7  12   27.40   15.80
  -3   7 -12   24.50    9.20
   3  -7  12   56.49   12.20
   3  -7  12   57.89   17.90
   3  -7  12   74.99   22.50
  -4   7 -12   -2.20    6.90
   4  -7  12   -0.90   17.10
   4  -7  12    4.60   12.60
   4  -7  12   -9.60    4.90
  -5   7 -12    3.50   18.10
   5  -7  12    5.30    7.60
  -6   7 -12  -17.90   17.40
   6  -7  12   13.60    9.20
  -7   7 -12   20.40   22.50
   7  -7  12   25.20   11.40
  -8   7 -12   -0.50   19.40
   8  -7  12   -6.70    7.60
  -9   7 -12   17.10   22.90
   9  -7  12    8.20    9.90
 -10   7 -12   10.60   22.30
  10  -7  12   18.50   11.80
  12   6 -12    5.80    7.20
  12   6 -12    6.50   12.30
 -12  -6  12    5.10   13.20
  11   6 -12   19.60    7.70
  11   6 -12   33.60    9.20
 -11  -6  12   38.70   15.80
  10   6 -12   -2.30    5.50
  10   6 -12   16.30    7.90
 -10  -6  12    0.70   12.20
   9   6 -12   29.20    8.40
   9   6 -12   20.50    6.80
   8   6 -12   65.39    9.30
   8   6 -12   79.89   11.30
  -8  -6  12   81.99   20.10
   7   6 -12   49.60    8.30
  -7  -6  12   78.69   18.60
  -7  -6  12   53.59    8.70
   6   6 -12   25.40    6.30
   6   6 -12   20.00   17.90
  -6  -6  12   31.50   15.30
  -6  -6  12   21.50    6.00
   5   6 -12   11.90   15.80
   5   6 -12    0.70    4.70
  -5  -6  12    1.60    4.70
  -5  -6  12   -3.60   10.40
   4   6 -12  176.38   34.40
   4   6 -12  194.68   14.50
  -4  -6  12  175.78   23.00
  -4  -6  12  226.38   14.60
   3   6 -12   97.09   10.90
   3   6 -12  110.09   22.00
  -3  -6  12   91.29   10.00
  -3  -6  12  103.19   19.90
   2   6 -12   74.39   19.40
   2   6 -12   49.10    9.30
  -2  -6  12   63.09    9.90
  -2  -6  12   73.29   20.40
   1   6 -12   12.30    7.20
  -1  -6  12  -12.20   11.30
  -1  -6  12    2.00   11.50
  -1  -6  12   -0.70    4.60
   0   6 -12  343.57   22.30
   0  -6  12  319.67   20.90
   0  -6  12  331.37   31.60
   0  -6  12  374.66   32.70
  -1   6 -12    8.10    6.70
   1  -6  12    0.40   12.10
   1  -6  12   28.30    8.60
   1  -6  12   16.50   14.40
  -2   6 -12   78.99   14.20
   2  -6  12   89.89   14.70
   2  -6  12   73.09   20.80
   2  -6  12   81.59   18.50
  -3   6 -12    6.70    8.10
   3  -6  12   22.10    8.60
   3  -6  12   18.80   15.20
   3  -6  12    7.00   13.40
  -4   6 -12   48.00   12.40
   4  -6  12   88.29   23.10
   4  -6  12   64.19   17.50
   4  -6  12   48.00   11.20
  -5   6 -12   -6.50   15.80
   5  -6  12    6.50    9.90
   5  -6  12   -6.90    6.00
  -6   6 -12   78.89   25.70
   6  -6  12   98.89   17.60
  -7   6 -12   25.20   19.80
  -8   6 -12  -12.20   15.80
   8  -6  12  -12.20    6.50
  -9   6 -12  -22.40   17.80
   9  -6  12   -8.30    6.60
 -10   6 -12   47.50   26.20
  10  -6  12   54.49   16.20
  12   5 -12   11.00    8.40
  12   5 -12    7.40    8.60
 -12  -5  12    5.20   12.60
  11   5 -12  102.29   15.10
  11   5 -12   78.29   12.70
 -11  -5  12   86.29   19.60
  10   5 -12    8.20    6.80
  10   5 -12   -5.60    6.70
 -10  -5  12    6.50   13.00
   9   5 -12   36.20   10.00
   9   5 -12   41.30    8.90
  -9  -5  12   39.90   14.90
   8   5 -12    1.70    5.20
  -8  -5  12    5.10    5.70
  -8  -5  12    8.70   10.70
   7   5 -12   23.70   19.80
   7   5 -12   10.70    6.20
  -7  -5  12   19.10    6.60
  -7  -5  12   48.80   16.70
   6   5 -12   51.79   17.90
   6   5 -12   55.59    8.50
  -6  -5  12   30.50   13.80
  -6  -5  12   31.90    7.30
   5   5 -12  326.07   18.70
   5   5 -12  255.07   42.20
  -5  -5  12  282.27   25.60
  -5  -5  12  298.67   18.40
   4   5 -12   -1.10    5.00
   4   5 -12    4.70   11.30
  -4  -5  12   -9.20    4.10
  -4  -5  12  -11.40    8.60
   3   5 -12    0.40   10.30
   3   5 -12   -2.70    4.60
  -3  -5  12    7.20    5.40
  -3  -5  12   13.40   10.80
   2   5 -12   35.10    7.90
   2   5 -12   43.80   14.20
  -2  -5  12   30.90   13.30
  -2  -5  12   27.90    6.80
   1   5 -12  451.75   25.90
  -1  -5  12  493.05   35.40
  -1  -5  12  418.06   33.90
   0   5 -12    5.90    6.30
   0  -5  12    8.70   11.60
   0  -5  12   -7.00    9.20
   0  -5  12    2.10    5.20
  -1   5 -12  351.36   23.40
   1  -5  12  353.66   22.60
   1  -5  12  346.87   28.90
   1  -5  12  349.37   30.90
  -2   5 -12   23.10    8.60
   2  -5  12   17.50   14.00
   2  -5  12    9.50   10.70
   2  -5  12   13.00    7.20
  -3   5 -12  139.89   16.00
   3  -5  12  148.59   15.80
   3  -5  12  172.38   19.90
   3  -5  12  154.18   24.20
  -4   5 -12   19.70   16.70
  -4   5 -12   23.30    9.40
   4  -5  12   12.20   10.20
   4  -5  12   21.80    8.90
  -5   5 -12  263.57   32.40
   5  -5  12  221.98   22.30
   5  -5  12  204.78   20.00
  -6   5 -12    1.80   16.40
   6  -5  12    7.70    9.30
   6  -5  12   13.90    8.80
  -7   5 -12  121.59   28.80
   7  -5  12  126.79   18.80
  -8   5 -12   -6.90   16.60
   8  -5  12    1.00    7.70
  -9   5 -12   73.59   27.40
   9  -5  12   32.40   12.60
 -10   5 -12   40.50   22.80
  10  -5  12   10.80   10.20
  13   4 -12   39.10   12.60
 -13  -4  12   33.80   15.70
  12   4 -12   46.30   12.50
  12   4 -12   12.40    8.40
 -12  -4  12   31.90   16.50
  11   4 -12   35.70   16.10
  11   4 -12   82.69   14.80
 -11  -4  12   51.69   17.80
  10   4 -12   -2.00    5.70
  10   4 -12    4.00    7.70
 -10  -4  12    0.20   11.70
   9   4 -12   49.50   10.60
   9   4 -12   27.70    8.20
  -9  -4  12   36.30   14.40
   8   4 -12   25.30    7.70
  -8  -4  12   10.50    6.60
  -8  -4  12   42.10   13.90
   7   4 -12   61.59    9.70
   7   4 -12   80.49   21.10
  -7  -4  12  114.49   16.60
  -7  -4  12   63.79   16.20
   6   4 -12   54.99    8.70
  -6  -4  12   63.89   15.60
  -6  -4  12   50.89    9.70
   5   4 -12    3.60   10.70
   5   4 -12   10.10    5.50
  -5  -4  12   -1.60    4.30
  -5  -4  12   -9.40    8.10
   4   4 -12    5.90    5.10
   4   4 -12    3.20   10.20
  -4  -4  12    8.50    5.70
  -4  -4  12    7.90    9.10
   3   4 -12   52.69   15.30
   3   4 -12   44.30    8.50
  -3  -4  12   40.60   14.70
  -3  -4  12   59.89    9.10
   2   4 -12  100.59   11.20
   2   4 -12  100.69   17.40
  -2  -4  12   98.29   16.40
  -2  -4  12  114.29   13.40
   1   4 -12   24.80    7.30
  -1  -4  12   56.99   15.30
  -1  -4  12   44.10   13.90
  -1  -4  12   77.49   10.10
   0   4 -12  193.68   16.30
   0  -4  12  200.38   21.70
   0  -4  12  201.38   21.70
   0  -4  12  197.58   15.70
  -1   4 -12   27.90    8.80
   1  -4  12   30.90   11.80
   1  -4  12   24.60    7.20
   1  -4  12   17.60   13.70
  -2   4 -12  172.68   17.70
   2  -4  12  165.48   22.00
   2  -4  12  153.78   18.40
   2  -4  12  190.18   16.40
  -3   4 -12   11.80    8.10
   3  -4  12    6.60    7.10
   3  -4  12    4.10   12.50
   3  -4  12   26.10   11.00
  -4   4 -12    7.70    7.20
  -4   4 -12    4.50   14.50
   4  -4  12   13.00    8.80
   4  -4  12    5.40    7.20
  -5   4 -12  -31.60   11.30
   5  -4  12   -1.30    8.90
   5  -4  12   -2.00    6.80
  -6   4 -12  272.57   32.00
   6  -4  12  269.37   22.90
   6  -4  12  224.18   21.60
  -7   4 -12   29.40   19.00
   7  -4  12   14.20    8.80
  -8   4 -12   39.70   22.40
   8  -4  12   35.40   12.70
  -9   4 -12   10.70   19.70
   9  -4  12    4.10    8.40
 -10   4 -12  -19.30   15.30
  10  -4  12    5.10    9.80
  13   3 -12    7.00   10.00
 -13  -3  12    0.40   10.70
  12   3 -12   24.40   11.60
 -12  -3  12   47.20   14.90
  11   3 -12   38.40   12.40
  11   3 -12   24.20    9.60
 -11  -3  12   54.49   16.90
  10   3 -12  143.29   17.10
  10   3 -12   81.59   12.70
 -10  -3  12   87.29   19.00
   9   3 -12    7.00    6.50
  -9  -3  12   -4.60    4.90
  -9  -3  12   -1.50    9.40
   8   3 -12   -2.20    5.40
   8   3 -12    5.30   13.40
  -8  -3  12    9.80    6.70
  -8  -3  12    6.50    9.70
   7   3 -12    6.40    5.40
   7   3 -12   -2.70    9.80
  -7  -3  12    4.30   10.10
  -7  -3  12    2.40    5.50
   6   3 -12   17.80    6.20
   6   3 -12   17.80   12.00
  -6  -3  12   30.00    8.50
  -6  -3  12   10.90    9.70
   5   3 -12  263.57   25.50
   5   3 -12  258.07   17.70
  -5  -3  12  294.77   22.60
  -5  -3  12  274.67   19.40
   4   3 -12  102.19   11.30
   4   3 -12  133.19   18.70
  -4  -3  12  125.99   15.70
  -4  -3  12  124.89   14.50
   3   3 -12  104.29   16.60
   3   3 -12   92.39   10.70
  -3  -3  12   98.99   11.80
  -3  -3  12   86.89   14.10
   2   3 -12   12.70    9.60
   2   3 -12    9.80    5.40
  -2  -3  12    7.90    5.70
  -2  -3  12   16.50    8.90
   1   3 -12  746.63   36.70
  -1  -3  12  716.93   41.40
  -1  -3  12  722.03   39.60
  -1  -3  12  709.43   35.70
   0   3 -12   15.80    6.50
   0  -3  12    8.30    6.40
   0  -3  12    4.70    9.00
   0  -3  12   20.80   11.60
  -1   3 -12   29.60    9.00
   1  -3  12   41.10   12.00
   1  -3  12   53.99   10.60
   1  -3  12   36.40   13.20
   2  -3  12   19.50    7.60
   2  -3  12   16.80   10.80
   2  -3  12   11.60    8.40
  -3   3 -12   77.59   12.60
  -3   3 -12   49.10   17.30
   3  -3  12  106.69   13.20
   3  -3  12   92.29   15.10
  -4   3 -12    0.10    6.40
  -4   3 -12    7.60   13.70
   4  -3  12   11.00    7.70
   4  -3  12   -4.80    6.30
  -5   3 -12  225.08   28.10
   5  -3  12  231.88   20.40
   5  -3  12  210.78   19.00
  -6   3 -12   40.10   19.20
   6  -3  12   25.80   11.20
  -7   3 -12  157.98   29.20
   7  -3  12  146.69   17.80
   7  -3  12  107.49   16.80
  -8   3 -12   35.50   20.30
   8  -3  12   -4.40    8.60
  -9   3 -12  243.68   34.60
   9  -3  12  174.78   21.40
 -10   3 -12    6.40   19.90
  10  -3  12   -0.50    8.40
  13   2 -12    4.90   11.50
 -13  -2  12    1.30   12.10
  12   2 -12   48.20   14.30
 -12  -2  12   89.99   20.20
  11   2 -12   -0.10    8.40
  10   2 -12   72.99   15.50
  10   2 -12   43.80   11.20
 -10  -2  12   54.29   15.50
   9   2 -12   15.00    6.90
  -9  -2  12    5.10    6.30
  -9  -2  12   15.80   11.50
   8   2 -12   87.39   11.70
   8   2 -12   71.19   19.30
  -8  -2  12  126.09   20.30
  -8  -2  12   79.29   12.70
   7   2 -12   11.40   12.30
   7   2 -12    2.30    5.70
  -7  -2  12    0.60    8.50
  -7  -2  12    7.80    6.20
   6   2 -12  380.86   23.10
   6   2 -12  363.56   29.40
  -6  -2  12  409.66   26.10
  -6  -2  12  381.76   24.00
   5   2 -12   44.00   15.10
   5   2 -12   38.40    8.50
  -5  -2  12   55.59   10.40
  -5  -2  12   64.89   12.90
   4   2 -12  242.58   22.30
   4   2 -12  238.68   16.70
  -4  -2  12  197.58   17.80
  -4  -2  12  215.48   16.60
   3   2 -12    4.10    4.80
   3   2 -12   -6.20    7.40
  -3  -2  12   -9.30    5.40
  -3  -2  12    8.60    5.80
   2   2 -12 1196.38   54.99
   2   2 -12 1294.87   60.29
  -2  -2  12 1246.78   54.99
  -2  -2  12 1211.98   55.59
   1   2 -12   98.59   11.70
  -1  -2  12  100.89   11.40
  -1  -2  12  110.59   13.80
  -1  -2  12  148.19   18.90
   0   2 -12  206.98   16.70
   0  -2  12  206.38   18.70
   0  -2  12  185.28   15.70
   0  -2  12  196.68   18.20
  -1   2 -12   23.70    7.90
   1  -2  12   18.30   10.20
   1  -2  12   13.50    6.70
   1  -2  12   20.20   10.30
  -2   2 -12  138.49   14.80
   2  -2  12  116.49   13.00
   2  -2  12  156.38   14.90
   2  -2  12  130.89   17.60
  -3   2 -12   -8.80   11.40
  -3   2 -12   -2.00    5.40
   3  -2  12    5.90    6.20
   3  -2  12   10.10    6.60
  -4   2 -12  486.95   35.80
  -4   2 -12  473.55   31.60
   4  -2  12  459.45   29.50
   4  -2  12  488.55   27.30
  -5   2 -12   -0.40   11.70
   5  -2  12    2.10    6.20
   5  -2  12   -0.90    7.10
  -6   2 -12   49.90   19.40
   6  -2  12   45.60   12.40
   6  -2  12   32.50   10.90
  -7   2 -12   19.60   17.20
   7  -2  12    2.00    9.00
   7  -2  12   -2.60    6.90
  -8   2 -12   76.19   23.30
   8  -2  12  132.89   18.60
  -9   2 -12   50.89   22.00
   9  -2  12   -3.00    8.50
 -10   2 -12   26.70   23.30
  10  -2  12   48.00   15.50
  13   1 -12   26.70   25.70
 -13  -1  12   13.00   13.10
  12   1 -12    7.60   10.60
 -12  -1  12   27.50   12.50
  11   1 -12   78.39   16.70
 -11  -1  12   53.59   16.00
 -10  -1  12   14.20   11.20
   9   1 -12    8.20   12.40
   9   1 -12    0.00    5.90
  -9  -1  12    5.00    9.20
  -9  -1  12    5.90    6.10
   8   1 -12  139.49   20.80
   8   1 -12  116.79   13.90
  -8  -1  12  130.79   15.00
  -8  -1  12  140.29   17.00
   7   1 -12  856.01   48.90
   7   1 -12  770.72   49.00
  -7  -1  12  919.31   44.70
  -7  -1  12  896.51   43.90
   6   1 -12   -1.40    8.40
   6   1 -12    4.10    5.20
  -6  -1  12    0.80    6.10
  -6  -1  12   -2.40    7.60
   5   1 -12   66.49   11.70
   5   1 -12   84.69   16.90
  -5  -1  12   65.39   11.60
  -5  -1  12   86.09   14.00
   4   1 -12   21.30   10.40
   4   1 -12    1.30    5.00
  -4  -1  12    8.60    6.20
  -4  -1  12   10.20    7.10
   3   1 -12  446.46   29.50
   3   1 -12  479.85   26.70
  -3  -1  12  497.45   27.10
  -3  -1  12  439.96   24.80
   2   1 -12   17.80    8.50
   2   1 -12   26.80    8.00
  -2  -1  12   19.10    7.20
  -2  -1  12   20.00    6.30
   1   1 -12   74.99   10.60
  -1  -1  12   75.79   12.10
  -1  -1  12   65.19    9.70
  -1  -1  12   75.39   10.40
   0   1 -12    7.70    5.70
   0  -1  12    5.80    7.10
   0  -1  12   11.00    6.30
   0  -1  12    2.10    5.70
  -1   1 -12  280.07   29.20
   1  -1  12  383.06   24.10
   1  -1  12  368.06   20.30
   1  -1  12  404.46   24.10
  -2   1 -12   11.70    6.70
   2  -1  12   17.60    6.50
   2  -1  12    7.30    9.20
   2  -1  12   16.30    7.70
  -3   1 -12    5.30   11.40
  -3   1 -12   -5.70    5.30
   3  -1  12   -6.40    5.70
   3  -1  12   -0.20    5.30
  -4   1 -12   26.70   14.30
   4  -1  12   22.40    9.10
   4  -1  12   15.10    7.40
   5  -1  12   84.29   13.90
   5  -1  12  100.09   12.90
  -6   1 -12  -14.40   12.80
   6  -1  12   -7.00    6.50
   6  -1  12    0.90    8.10
  -7   1 -12   29.10   17.60
   7  -1  12   -3.60    7.20
   7  -1  12   -8.00    9.20
  -8   1 -12    9.30   15.90
   8  -1  12   -2.70    8.30
   8  -1  12   12.70   13.00
  -9   1 -12   31.90   19.90
   9  -1  12   10.00   10.90
 -10   1 -12   -8.00   20.90
  10  -1  12    7.60    9.80
  13   0 -12   57.49   16.90
 -13   0  12   31.80   14.50
  12   0 -12  -13.10    9.20
 -12   0  12    9.70   11.70
  11   0 -12    3.40    8.90
 -11   0  12   -1.70    9.10
 -10   0  12  238.08   21.30
 -10   0  12  228.18   22.50
   9   0 -12  193.98   23.90
  -9   0  12  218.98   21.30
  -9   0  12  261.27   21.60
   8   0 -12   93.49   13.00
   8   0 -12  103.29   20.10
  -8   0  12  114.49   17.70
  -8   0  12   83.99   13.40
   7   0 -12   -8.80    7.10
   7   0 -12    0.50    5.00
  -7   0  12   10.60    7.50
  -7   0  12    7.80    8.50
   6   0 -12   12.80    9.50
   6   0 -12    9.70    6.20
  -6   0  12   24.90    9.20
  -6   0  12    7.70    6.90
   5   0 -12   92.59   12.20
   5   0 -12   98.09   14.10
  -5   0  12  102.39   12.70
  -5   0  12  115.19   12.30
   4   0 -12   13.40    7.40
   4   0 -12    8.80    9.40
  -4   0  12   12.00    6.20
  -4   0  12    8.20    6.10
   3   0 -12    9.30    5.50
   3   0 -12    5.80    7.60
  -3   0  12   13.00    6.80
  -3   0  12    8.10    5.40
   2   0 -12   74.79   10.70
  -2   0  12   86.99   11.30
  -2   0  12   83.09    8.80
   1   0 -12   -1.30    4.60
  -1   0  12    1.00    4.30
  -1   0  12   -0.10    4.50
  -1   0  12   -0.20    5.20
   0   0 -12  212.08   24.20
   0   0  12  226.98   12.70
   0   0  12  237.78   14.00
   0   0  12  243.98   18.20
  -1   0 -12    0.60    5.70
   1   0  12   -0.70    3.60
   1   0  12   15.30    7.00
   1   0  12    5.30    5.50
  -2   0 -12  189.28   17.20
   2   0  12  203.38   17.40
   2   0  12  204.28   12.60
   2   0  12  185.18   16.90
  -3   0 -12   18.70    7.90
  -3   0 -12   14.70   12.20
   3   0  12   25.30    8.70
   3   0  12    8.60    5.40
  -4   0 -12  354.46   28.30
   4   0  12  395.26   22.70
   4   0  12  415.16   27.10
  -5   0 -12   -4.20   11.50
   5   0  12    9.30    8.30
   5   0  12   -2.30    6.80
  -6   0 -12   15.50   14.00
   6   0  12   44.10   12.50
   6   0  12   40.80   12.20
  -7   0 -12   15.50   13.80
   7   0  12    4.50   12.10
  -8   0 -12   23.80   15.70
   8   0  12  -13.60    6.50
   8   0  12   -3.30   11.80
  -9   0 -12   14.20   15.80
   9   0  12  -10.50    8.20
 -10   0 -12   51.89   38.70
  10   0  12   57.09   16.00
  13  -1 -12   34.90   15.00
 -13   1  12   58.49   18.20
  12  -1 -12   11.10   10.30
 -12   1  12    9.60   10.70
  11  -1 -12  224.08   24.90
 -11   1  12  195.98   22.20
 -10   1  12    1.00    6.10
 -10   1  12    5.60    9.30
   9  -1 -12   14.40   11.80
  -9   1  12   11.90    9.90
  -9   1  12    2.30    7.10
   8  -1 -12   16.10   10.60
  -8   1  12    5.80    6.50
  -8   1  12   21.60    9.20
   7  -1 -12  993.90   47.40
   7  -1 -12  841.32   47.80
  -7   1  12  899.71   46.80
  -7   1  12  922.21   44.70
   6  -1 -12    3.50    7.40
   6  -1 -12    3.70    5.90
  -6   1  12    6.00    6.90
  -6   1  12    6.00    6.20
   5  -1 -12   -0.60    4.90
   5  -1 -12   -1.10    6.10
  -5   1  12    2.30    5.80
  -5   1  12   15.40    7.10
   4  -1 -12   71.89   11.30
   4  -1 -12   37.90    9.30
  -4   1  12   70.89   11.20
  -4   1  12   65.99    8.50
   3  -1 -12  628.54   31.40
   3  -1 -12  632.74   35.30
  -3   1  12  656.03   34.80
  -3   1  12  659.03   28.10
   2  -1 -12    1.50    5.10
  -2   1  12   14.20    7.00
  -2   1  12   -1.10    2.70
  -2   1  12    8.10    4.20
   1  -1 -12   73.79   10.90
  -1   1  12   63.99   11.10
   0  -1 -12   12.70    5.90
   0   1  12   24.40    8.10
  -1  -1 -12   70.39   14.10
   1   1  12   43.80   10.40
  -2  -1 -12   16.50    7.70
   2   1  12   18.10    7.60
   2   1  12   13.00    7.80
   2   1  12   21.30    5.60
  -3  -1 -12  548.55   45.50
  -3  -1 -12  555.74   31.70
   3   1  12  565.94   26.70
   3   1  12  526.45   32.00
  -4  -1 -12   -1.50   11.00
   4   1  12   16.30    8.80
   4   1  12    9.20    7.40
  -5  -1 -12    2.70   11.50
   5   1  12    0.30    8.60
   5   1  12   18.00    9.20
  -6  -1 -12   11.70   12.50
   6   1  12   -4.00    7.80
   6   1  12   -8.40    9.30
  -7  -1 -12   79.49   19.70
   7   1  12   94.69   17.80
   7   1  12   56.79   16.10
  -8  -1 -12    8.50   14.90
   8   1  12   10.30    9.60
   8   1  12  -11.50   13.30
  -9  -1 -12   53.49   19.70
   9   1  12   33.00   13.10
  13  -2 -12   30.60   14.00
 -13   2  12   47.70   17.30
  12  -2 -12   40.60   15.00
 -12   2  12   16.00   12.20
  11  -2 -12   38.10   13.50
 -11   2  12   38.60   14.00
 -10   2  12   12.60   10.20
 -10   2  12   -1.10    7.70
   9  -2 -12    5.90   10.70
  -9   2  12    5.80    7.20
  -9   2  12   11.00    9.30
   8  -2 -12  308.77   26.00
  -8   2  12  362.16   24.40
  -8   2  12  324.67   25.30
   7  -2 -12   24.40   10.70
  -7   2  12    6.70    7.10
  -7   2  12   12.90    9.70
   6  -2 -12    2.60    6.10
   6  -2 -12   13.40    8.60
  -6   2  12    8.80    7.20
  -6   2  12    5.60    6.50
   5  -2 -12    2.70    5.90
   5  -2 -12   13.10    8.00
  -5   2  12   25.00    6.90
  -5   2  12   12.70    7.30
   4  -2 -12  472.65   25.90
   4  -2 -12  503.85   29.50
  -4   2  12  513.25   29.60
  -4   2  12  480.15   23.20
   3  -2 -12   44.40    6.90
   3  -2 -12   41.40    9.10
  -3   2  12   26.40    4.60
  -3   2  12   34.40    9.20
   2  -2 -12   10.90    6.30
  -2   2  12   13.20    6.80
   1  -2 -12    8.40    6.10
  -1   2  12    2.90    6.20
   0  -2 -12    4.00    5.80
   0   2  12    7.60    6.90
  -1  -2 -12    0.60    6.40
   1   2  12   -3.00    5.90
  -2  -2 -12  131.49   17.20
   2   2  12  112.89   14.60
  -3  -2 -12    9.00    9.20
   3   2  12    2.00    6.80
   3   2  12    6.80    6.40
  -4  -2 -12   51.99   12.90
   4   2  12   71.59   12.30
   4   2  12   62.79   13.30
  -5  -2 -12   12.00   12.50
   5   2  12   -2.40    6.40
   5   2  12   11.40   10.20
   6   2  12    3.40   11.30
   6   2  12   11.80    9.40
  -7  -2 -12  -10.20   12.50
   7   2  12  -11.30   12.30
   7   2  12   -0.20    8.60
  -8  -2 -12    1.60   13.90
   8   2  12    2.60    9.60
   8   2  12    3.20   16.20
  -9  -2 -12   16.60   16.90
   9   2  12    5.30   10.90
  13  -3 -12    2.80   10.20
 -13   3  12   -8.60    9.70
  12  -3 -12   24.90   13.40
 -12   3  12   23.40   14.30
  11  -3 -12  117.89   22.80
 -11   3  12  150.38   20.90
 -10   3  12    6.60    7.50
 -10   3  12   10.10   10.40
   9  -3 -12    2.40   10.80
  -9   3  12   14.60    9.80
  -9   3  12   13.80    9.20
   8  -3 -12    9.70   10.40
  -8   3  12    7.20    8.80
  -8   3  12    8.40    8.70
   7  -3 -12   30.50   11.20
  -7   3  12   18.20    8.10
  -7   3  12    1.50    7.30
   6  -3 -12    8.20    7.70
  -6   3  12   27.30    9.60
  -6   3  12   30.00    9.00
   5  -3 -12  118.09   13.00
  -5   3  12  124.89   11.80
  -5   3  12  143.79   15.90
   4  -3 -12   -0.40    5.20
   4  -3 -12   -0.90    6.10
  -4   3  12    6.10    6.10
  -4   3  12   -4.70    3.90
   3  -3 -12  150.08   15.20
  -3   3  12  136.19   15.40
   2  -3 -12    9.70    7.30
  -2   3  12   10.10    7.90
   1  -3 -12    9.40    7.10
  -1   3  12   28.30    9.90
   0  -3 -12    4.10    6.80
   0   3  12    7.80    7.00
   1   3  12    8.50    7.30
   2   3  12   17.50    8.80
   3   3  12   15.80    5.80
   3   3  12   36.60   12.20
  -4  -3 -12   16.90   10.20
   4   3  12    6.10    8.40
   4   3  12    6.20    8.30
  -5  -3 -12    1.40   11.40
   5   3  12   16.50   10.30
   5   3  12    6.10   10.90
  -6  -3 -12    4.60   12.10
   6   3  12    0.20   11.70
  -7  -3 -12   21.30   14.40
   7   3  12   13.10   15.50
   7   3  12   10.40   11.00
  -8  -3 -12   40.90   17.80
   8   3  12   48.30   14.50
   8   3  12   46.10   21.10
  12  -4 -12  280.87   30.70
 -12   4  12  277.87   29.20
  11  -4 -12   11.80   11.70
 -11   4  12    4.00   11.40
 -10   4  12    3.00    8.60
 -10   4  12    1.70    9.70
   9  -4 -12   -0.30    9.60
  -9   4  12   -3.20    7.00
  -9   4  12    7.70    9.30
   8  -4 -12   63.99   14.70
  -8   4  12   70.89   15.40
  -8   4  12   72.29   14.50
   7  -4 -12   61.29   12.90
  -7   4  12   48.10   12.00
  -7   4  12   39.60   12.10
   6  -4 -12   78.49   12.20
  -6   4  12   90.19   12.50
  -6   4  12   95.09   16.60
   5  -4 -12   14.70    6.80
  -5   4  12    7.30    6.10
  -5   4  12   -3.30    6.40
   4  -4 -12   97.69    8.70
  -4   4  12   95.79   14.40
  -3   4  12    2.10    6.20
  -2   4  12  180.18   17.90
  -1   4  12   29.20   10.80
   0   4  12    8.00    8.00
   1   4  12    8.10    8.10
   2   4  12  335.27   24.80
   3   4  12    4.60    7.80
  -4  -4 -12   13.90    8.50
   4   4  12   50.19   14.00
   4   4  12   30.20    9.40
  -5  -4 -12   18.80   11.30
   5   4  12    5.30    8.40
  -6  -4 -12   59.89   15.40
   6   4  12   81.79   16.40
   6   4  12   42.80   16.20
  -7  -4 -12   36.80   14.90
   7   4  12   64.59   16.10
   7   4  12   25.10   17.10
  -8  -4 -12   80.19   20.20
   8   4  12   83.29   18.90
   8   4  12  102.89   26.60
  12  -5 -12   -0.20    9.40
 -12   5  12   -0.60   11.40
  11  -5 -12    1.60   10.00
 -11   5  12    5.30   12.00
 -10   5  12   -8.10    6.20
 -10   5  12   -4.40    9.90
   9  -5 -12  103.99   19.40
  -9   5  12   93.69   17.80
  -9   5  12  142.09   22.50
   8  -5 -12    5.50    8.20
  -8   5  12    8.30    8.00
  -8   5  12    1.50    8.70
   7  -5 -12   34.10   10.60
  -7   5  12   45.80   12.30
  -7   5  12   48.50   23.40
   6  -5 -12   -2.30    6.40
  -6   5  12    3.00    5.50
  -6   5  12   19.90    9.10
   5  -5 -12    2.10    5.70
  -5   5  12    4.50    6.90
  -5   5  12    6.30    7.00
  -4   5  12    6.80    7.70
  -3   5  12  383.66   27.30
  -2   5  12   12.30    8.10
  -1   5  12    3.70    7.20
   0   5  12   38.70   12.50
   1   5  12  120.39   15.80
   2   5  12   23.00    9.90
   3   5  12   44.80   12.70
  -4  -5 -12   14.80    7.60
   4   5  12   28.70   11.60
  -5  -5 -12   49.60   11.80
   5   5  12   23.40   11.30
   5   5  12   34.20   13.20
  -6  -5 -12   49.70   13.90
   6   5  12   28.00   15.70
   6   5  12   38.60   13.60
  -7  -5 -12   25.20   14.10
   7   5  12   19.60   18.10
   7   5  12    0.00   11.40
  11  -6 -12   -6.90    7.80
 -11   6  12   -1.80   10.30
 -10   6  12    8.40   10.40
 -10   6  12    2.80   10.60
   9  -6 -12   -7.60    7.90
  -9   6  12    7.50   10.90
  -9   6  12   -5.10    7.50
   8  -6 -12    7.60    9.20
  -8   6  12    3.80    9.80
  -8   6  12   10.00    9.50
   7  -6 -12    6.50    7.20
  -7   6  12    1.50    8.70
  -7   6  12   -4.10    5.90
   6  -6 -12  307.37   21.00
  -6   6  12  386.76   28.10
  -6   6  12  294.07   22.80
   5  -6 -12   17.50    6.30
  -5   6  12   15.00    9.30
  -4   6  12   -4.00    6.40
  -3   6  12    1.70    7.20
  -2   6  12   36.30   11.60
  -1   6  12   10.00    9.40
   0   6  12    8.50    7.90
   1   6  12   -4.70    6.30
   2   6  12   -7.70    6.60
   3   6  12   33.20   13.40
   4   6  12   37.80   12.90
  -5  -6 -12   22.20   10.30
   5   6  12   15.40   11.50
   5   6  12    6.70    9.80
  -6  -6 -12   26.50   12.00
   6   6  12   16.60   11.70
   6   6  12    7.00   16.00
 -10   7  12    6.30   13.10
 -10   7  12   12.00   10.20
   9  -7 -12  114.69   20.10
  -9   7  12  133.49   23.00
  -9   7  12  112.29   21.10
   8  -7 -12   11.70    9.20
  -8   7  12    7.50    8.70
  -8   7  12   15.50   11.20
   7  -7 -12  138.59   15.60
  -7   7  12  164.38   20.10
  -7   7  12  131.69   18.90
   6  -7 -12    2.50    7.40
  -6   7  12    4.40    8.30
   5  -7 -12   10.80    5.90
   5  -7 -12    3.00    7.00
  -5   7  12   10.10    9.00
  -4   7  12    2.00    6.80
  -3   7  12  147.99   31.90
  -2   7  12   -5.50    8.20
  -1   7  12   19.20   10.60
   0   7  12   21.80   12.10
   1   7  12  203.88   38.30
   2   7  12   51.39   14.50
   3   7  12   20.80   13.90
   4   7  12    2.20   10.20
  -5  -7 -12   18.10    9.20
   5   7  12   -9.20    9.00
   9  -8 -12   -2.40    8.80
  -9   8  12   -5.50    7.70
  -9   8  12    4.60   11.70
   8  -8 -12   64.59   14.40
  -8   8  12   74.79   16.90
  -8   8  12   87.49   19.80
   7  -8 -12    8.60    8.50
  -7   8  12   -0.70    7.20
   6  -8 -12    1.20   10.10
   6  -8 -12   -1.70    7.80
  -6   8  12   12.50    9.60
   5  -8 -12    0.60    5.00
   5  -8 -12    8.30    7.90
  -5   8  12   19.00   10.60
  -4   8  12  220.08   22.80
  -3   8  12    7.50    9.10
  -2   8  12    2.50    8.10
  -1   8  12   69.59   14.90
   0   8  12  188.48   21.30
   1   8  12   33.20   12.50
   2   8  12    1.20   10.00
   3   8  12   25.90   13.40
   7  -9 -12   93.09   33.20
   7  -9 -12   47.10   12.00
  -7   9  12   56.29   17.10
   6  -9 -12    9.60   10.30
  -6   9  12    0.00    8.00
   5  -9 -12   17.60    6.10
   5  -9 -12   31.30    8.30
  -5   9  12   19.10   10.80
  -4   9  12   -4.10    8.70
  -3   9  12    5.70    9.70
  -2   9  12   38.50   13.20
  -1   9  12   36.60   12.90
   0   9  12    4.90   10.30
   1   9  12   -6.20    9.00
  -4  10  12  162.48   22.20
  -3  10  12    9.60   10.80
  -2  10  12   -8.90   10.00
  -3 -14  13    8.80   22.30
  -2 -14  13   10.20    4.60
  -2 -14  13   13.50    4.70
  -2 -14  13    7.10   24.80
  -1 -14  13   15.80   24.50
  -1 -14  13   17.90    7.80
  -1 -14  13    8.30    6.80
   0 -14  13   10.20   21.60
   0 -14  13   10.00    8.60
   0 -14  13    8.60    8.80
   1 -14  13   21.10   10.80
   1 -14  13   25.90   11.00
   1 -14  13    4.20   22.80
   2 -14  13  133.29   17.80
   2 -14  13  121.19   36.50
   3 -14  13   36.40   27.30
   3 -14  13   30.50   12.90
   4 -14  13   32.20   26.90
   4 -14  13   12.20   14.90
  -6 -13  13   22.50   24.00
  -5 -13  13   62.39   27.20
  -4 -13  13   24.40   23.30
  -3 -13  13    8.30   21.80
  -2 -13  13   15.10    5.60
  -2 -13  13   18.70    6.40
  -2 -13  13    1.10   23.10
  -1 -13  13  -11.70   22.40
  -1 -13  13   39.00    9.20
   0  13 -13    6.10    9.60
   0 -13  13    3.50    7.70
   0 -13  13  -13.30   19.10
  -1  13 -13   31.00   14.10
   1 -13  13   64.49   13.30
   1 -13  13   49.70   29.70
  -2  13 -13   11.60   12.70
   2 -13  13   12.00    9.50
   2 -13  13  -24.10   17.70
   3 -13  13   33.80   26.60
   3 -13  13   21.90   11.20
   4 -13  13   34.20   31.00
   4 -13  13   23.10   11.90
   5 -13  13   47.30   29.00
   5 -13  13   30.50   12.40
  -7 -12  13    1.40   20.30
  -6 -12  13   49.00   24.10
  -5 -12  13   31.50   22.70
  -4 -12  13   40.70   25.10
  -3 -12  13   25.30    4.90
  -3 -12  13   24.50   21.30
  -3 -12  13   28.20    5.40
  -2 -12  13   57.09    9.00
  -2 -12  13   74.19   29.30
   1  12 -13    0.60    8.10
  -1 -12  13   19.40    8.00
  -1 -12  13  -11.80   17.20
   0  12 -13   58.69   13.50
   0 -12  13   82.09   28.20
   0 -12  13   59.49   11.10
  -1  12 -13   -0.40   15.40
   1 -12  13    7.40    8.90
   1 -12  13   -5.20   19.90
  -2  12 -13   42.70   14.80
   2 -12  13   48.70   25.60
   2 -12  13   37.80   10.90
   3 -12  13   56.89   28.80
   3 -12  13   30.70   11.60
   4 -12  13   -0.80    9.10
   4 -12  13   -3.60   17.60
   5 -12  13  -15.40    8.00
   5 -12  13   16.80   23.10
   6 -12  13   22.30   22.10
   6 -12  13   -6.30    9.20
   7 -12  13  129.39   38.60
   7 -12  13   61.79   17.40
  -8 -11  13   -7.90   18.10
  -7 -11  13   -5.80   16.60
  -6 -11  13   14.10   19.60
  -5 -11  13   86.59   27.40
  -4 -11  13   88.49   28.10
   3  11 -13   79.49   10.50
  -3 -11  13   81.99   26.40
  -3 -11  13   77.09    8.50
   2  11 -13    9.40    7.20
  -2 -11  13    4.50    5.80
  -2 -11  13   11.10   22.50
   1  11 -13  106.79   15.00
  -1 -11  13  103.69   12.50
   0  11 -13   18.40   10.20
   0 -11  13   34.80   10.00
   0 -11  13   25.40   35.80
  -1  11 -13  229.18   25.80
   1 -11  13  160.68   17.10
  -2  11 -13   30.80   13.10
   2 -11  13   22.40   24.80
   2 -11  13   16.80    9.10
   3 -11  13   13.00   19.70
   3 -11  13    8.20    8.20
   4 -11  13   -9.40   18.30
   4 -11  13   -5.50    8.90
   5 -11  13   -8.30   13.60
   5 -11  13    9.00   24.40
   6 -11  13    0.70   20.80
   6 -11  13   27.50   12.70
   7 -11  13   14.10   12.20
   7 -11  13  -20.80   21.00
   8 -11  13   -2.30   10.10
   8 -11  13   -7.30   22.00
  -9 -10  13   11.40   19.80
  -8 -10  13   -2.10   16.30
  -7 -10  13    5.80   18.40
  -6 -10  13  170.78   31.20
  -5 -10  13   12.40   17.50
   4  10 -13   80.39    9.60
  -4 -10  13   78.19    7.90
  -4 -10  13  109.99   30.00
  -3 -10  13   23.30    6.50
  -3 -10  13   26.90   20.70
   2  10 -13  383.86   23.00
  -2 -10  13  332.77   20.40
  -2 -10  13  387.46   40.50
   1  10 -13   91.39   14.20
  -1 -10  13  109.39   28.80
  -1 -10  13  110.89   15.90
   0  10 -13   24.80   10.00
   0 -10  13   25.70    8.20
   0 -10  13   50.69   24.10
  -1  10 -13   25.50   10.70
   1 -10  13   22.00   20.10
   1 -10  13   22.20    9.10
  -2  10 -13    7.70   10.40
   2 -10  13   16.50    9.00
   2 -10  13   -0.10   17.20
   3 -10  13   58.79   25.20
   3 -10  13   38.70   11.40
   4 -10  13   24.40   10.70
   5 -10  13   27.80   23.50
   5 -10  13   47.50   12.80
   6 -10  13   -1.60    8.20
   6 -10  13   -6.70   19.20
   7 -10  13    6.20   24.40
   7 -10  13   43.50   14.20
  -8  10 -13   36.20   26.70
   8 -10  13   13.70   11.50
 -10  -9  13   -1.70   15.30
  -9  -9  13   26.20   18.70
  -8  -9  13  117.69   26.10
  -7  -9  13   34.60   20.10
   6   9 -13    7.40    3.90
   5   9 -13   74.79    8.70
  -5  -9  13   46.50    7.00
  -5  -9  13   84.19   24.70
   4   9 -13   70.59   10.00
   4   9 -13   69.49   10.00
  -4  -9  13   67.39    8.60
  -4  -9  13   66.59   23.40
   3   9 -13    2.30    6.40
  -3  -9  13   10.40   16.00
  -3  -9  13    6.70    5.20
   2   9 -13   46.00   10.30
  -2  -9  13   65.09   10.00
  -2  -9  13   53.49   24.20
   1   9 -13   15.60    9.10
  -1  -9  13   12.50   10.00
  -1  -9  13   13.00   17.20
   0   9 -13   16.80    9.60
   0  -9  13   19.00   19.60
   0  -9  13   22.90    8.90
  -1   9 -13  111.09   15.90
   1  -9  13   96.89   13.70
   1  -9  13  153.28   30.70
  -2   9 -13  320.37   25.90
   2  -9  13  315.57   23.50
   2  -9  13  351.76   38.90
  -3   9 -13    6.60   10.70
   3  -9  13    0.30   17.20
   3  -9  13    7.40    7.70
   4  -9  13   -9.70   15.60
   4  -9  13   10.50    8.30
   5  -9  13  -16.60   17.00
   5  -9  13   32.30   11.10
   6  -9  13  123.39   18.80
   6  -9  13  152.58   36.60
  -7   9 -13   12.50   21.20
   7  -9  13    3.60    8.50
  -8   9 -13   -1.90   20.40
   8  -9  13   16.10   11.40
  -9   9 -13    3.60   25.80
   9  -9  13    2.10   10.80
 -11  -8  13   -4.70   14.70
 -10  -8  13  108.99   25.70
   9   8 -13   48.50    6.80
   9   8 -13   49.60    6.80
  -9  -8  13   88.19   24.30
   8   8 -13   17.20    5.60
   8   8 -13   21.90    5.50
  -8  -8  13    5.90   16.20
   7   8 -13    6.90    5.40
  -7  -8  13   -0.70   16.80
   6   8 -13  284.87   17.00
  -6  -8  13  274.67   15.80
  -6  -8  13  311.87   32.10
   5   8 -13   15.00    8.40
  -5  -8  13   24.90    6.30
  -5  -8  13   47.30   19.40
   4   8 -13   12.70    6.90
  -4  -8  13    3.80   13.80
  -4  -8  13    0.70    4.90
   3   8 -13    2.50    6.20
  -3  -8  13   -7.00   13.40
  -3  -8  13    2.50    5.30
   2   8 -13   11.40   15.10
   2   8 -13   11.90    7.80
  -2  -8  13   36.80   18.80
  -2  -8  13   33.80    7.90
   1   8 -13    5.00    7.80
  -1  -8  13   15.00   18.40
  -1  -8  13   10.10    6.50
  -1  -8  13   26.60   18.00
   0   8 -13   27.70    9.20
   0  -8  13   -2.10   14.50
   0  -8  13   38.30    9.30
   0  -8  13   16.90   15.80
  -1   8 -13  130.79   16.30
   1  -8  13   54.99   21.10
   1  -8  13  137.49   14.80
   1  -8  13  119.99   26.00
  -2   8 -13    8.60    8.40
   2  -8  13    4.60   14.10
   2  -8  13   -7.10    6.90
   2  -8  13    3.20   18.40
  -3   8 -13   20.00   10.90
   3  -8  13    6.30    8.50
   3  -8  13   24.50   17.40
   4  -8  13    7.00    8.10
   4  -8  13   15.80   19.10
   5  -8  13   -5.50    8.20
   5  -8  13   35.90   21.70
  -6   8 -13   -9.20   19.90
   6  -8  13    6.60   14.70
  -7   8 -13   11.70   21.90
   7  -8  13   18.00   10.00
  -8   8 -13   16.30   22.30
   8  -8  13   -3.30    8.60
  -9   8 -13   17.30   24.80
   9  -8  13   77.89   18.60
  11   7 -13   46.70    8.90
  11   7 -13   41.90    9.80
 -11  -7  13   45.30   18.30
  10   7 -13    1.90    5.70
  10   7 -13    9.00    7.40
 -10  -7  13   -2.40   13.80
   9   7 -13    1.40    5.40
   9   7 -13    3.40    6.00
  -9  -7  13   -5.30   12.30
   8   7 -13   71.09   10.50
   8   7 -13   61.89    9.90
  -8  -7  13   71.59   32.80
   7   7 -13  124.79   11.80
  -7  -7  13  115.19   11.10
  -7  -7  13   83.99   22.40
   6   7 -13    6.00    5.70
  -6  -7  13    8.70   12.60
  -6  -7  13    6.30    5.60
   5   7 -13   67.59   10.00
  -5  -7  13   81.59   21.00
  -5  -7  13   71.59    9.10
   4   7 -13   28.40    8.20
   4   7 -13    7.90   14.90
  -4  -7  13   12.80   14.30
  -4  -7  13   19.00    6.70
   3   7 -13   25.70    8.30
   3   7 -13   -3.20   14.00
  -3  -7  13   35.50    8.00
  -3  -7  13   18.10   15.40
   2   7 -13   81.79   22.00
   2   7 -13   93.69   12.60
  -2  -7  13  106.09   11.30
  -2  -7  13  109.59   25.10
   1   7 -13   40.90    9.30
  -1  -7  13   58.49   19.80
  -1  -7  13   47.20   10.00
  -1  -7  13   50.39   19.10
   0   7 -13   15.90    8.30
   0  -7  13   15.80   14.60
   0  -7  13   41.80   16.70
   0  -7  13   23.10    8.10
  -1   7 -13    4.20    7.70
   1  -7  13   15.90   15.60
   1  -7  13   12.20   15.30
   1  -7  13    7.30    7.60
  -2   7 -13   46.40   11.50
   2  -7  13   69.49   20.60
   2  -7  13   69.99   13.60
   2  -7  13   29.80   18.40
  -3   7 -13   25.90   10.50
   3  -7  13   68.69   22.50
   3  -7  13   27.80   10.10
   3  -7  13   22.80   12.70
   4  -7  13   10.70    8.90
   4  -7  13   -2.30   12.90
   4  -7  13   23.80   21.70
   5  -7  13   -0.90    8.10
   5  -7  13  -17.80   14.20
  -6   7 -13    7.70   20.20
   6  -7  13   13.30    8.90
  -7   7 -13  -13.10   18.90
   7  -7  13   10.90    9.70
  -8   7 -13   30.70   23.40
   8  -7  13   54.99   13.90
  -9   7 -13    2.80   21.50
   9  -7  13    3.10    9.60
  12   6 -13   -2.90    7.40
  12   6 -13   11.50    8.60
 -12  -6  13   -9.80   11.60
  11   6 -13   15.90   14.10
  11   6 -13   15.50    7.90
 -11  -6  13    9.40   14.80
  10   6 -13    3.90    7.00
  10   6 -13    6.10    6.70
 -10  -6  13  -11.20   11.50
   9   6 -13   62.69   11.60
   9   6 -13   52.39    9.80
  -9  -6  13  117.29   27.10
   8   6 -13   57.69    9.80
  -8  -6  13   81.09   21.50
  -8  -6  13   49.50    9.40
   7   6 -13  105.89   11.30
  -7  -6  13   99.69   21.40
  -7  -6  13   90.29   11.00
   6   6 -13   28.70    7.20
  -6  -6  13   39.60   16.80
  -6  -6  13   23.40    7.10
   5   6 -13   93.29   11.10
   5   6 -13   91.99   22.00
  -5  -6  13  140.59   24.80
  -5  -6  13  107.49   11.00
   4   6 -13    1.40    5.60
   4   6 -13   -2.90   11.80
  -4  -6  13    2.70   12.30
  -4  -6  13   13.90    6.20
   3   6 -13  291.67   37.50
   3   6 -13  263.67   18.70
  -3  -6  13  260.47   17.60
  -3  -6  13  306.47   28.10
   2   6 -13   28.20   14.40
   2   6 -13   33.40    8.50
  -2  -6  13    6.80    6.30
  -2  -6  13   14.70   13.20
   1   6 -13    3.60    6.00
  -1  -6  13   25.50    7.80
  -1  -6  13   34.50   16.90
  -1  -6  13   16.50   13.20
   0   6 -13   -6.00    5.30
   0  -6  13   -1.20   12.80
   0  -6  13    1.20   11.70
   0  -6  13   12.70    6.90
  -1   6 -13  496.55   29.80
   1  -6  13  464.05   36.50
   1  -6  13  511.25   39.70
   1  -6  13  440.86   27.50
  -2   6 -13    3.00    7.50
   2  -6  13    2.90    6.70
   2  -6  13   -3.50   13.80
   2  -6  13    2.80   11.60
  -3   6 -13   22.20    9.50
   3  -6  13   38.40   18.40
   3  -6  13   40.40   14.50
   3  -6  13   43.40   11.90
   4  -6  13   16.10   16.90
   4  -6  13    5.90    7.10
   4  -6  13    8.20   10.90
  -5   6 -13  141.39   30.70
   5  -6  13  158.28   18.50
   5  -6  13  174.58   21.80
  -6   6 -13   14.40   19.20
   6  -6  13    5.40    8.10
  -7   6 -13  138.69   32.70
   7  -6  13  142.09   19.50
   8  -6  13    0.80    8.40
  -9   6 -13    5.20   22.30
   9  -6  13   -6.40    7.70
 -10   6 -13   17.40   23.70
  10  -6  13   19.90   12.10
  12   5 -13   12.50    8.80
  12   5 -13   -3.20    8.20
 -12  -5  13    2.10   12.10
  11   5 -13   59.49   11.20
  11   5 -13  128.99   16.30
 -11  -5  13   79.59   20.20
  10   5 -13   50.59   11.20
  10   5 -13   60.69   12.40
 -10  -5  13   36.00   15.60
   9   5 -13    3.40    5.60
  -9  -5  13    5.70   10.70
   8   5 -13   -4.10    5.20
  -8  -5  13  -12.00    9.40
  -8  -5  13   11.30    7.20
   7   5 -13   15.60    6.90
  -7  -5  13   23.00    9.40
  -7  -5  13   30.80   14.90
   6   5 -13   64.89   10.10
   6   5 -13   23.40   15.80
  -6  -5  13   47.50   15.10
  -6  -5  13   58.69   10.60
   5   5 -13   45.50    8.90
   5   5 -13   34.70   16.50
  -5  -5  13   33.80   14.10
  -5  -5  13   38.40    8.40
   4   5 -13   72.99   11.20
   4   5 -13   55.29   20.00
  -4  -5  13   50.49   15.90
  -4  -5  13   42.70    9.90
   3   5 -13   14.60   12.50
   3   5 -13    6.40    6.80
  -3  -5  13    7.70    7.00
  -3  -5  13    3.00    9.90
   2   5 -13   -3.10    5.20
   2   5 -13   10.40   12.70
  -2  -5  13   -5.50    9.30
  -2  -5  13   -3.30    4.80
   1   5 -13   41.90    9.40
  -1  -5  13   41.90    9.00
  -1  -5  13   30.80   15.50
  -1  -5  13   44.90   16.50
   0   5 -13  320.97   22.70
   0  -5  13  410.86   32.20
   0  -5  13  379.66   23.00
   0  -5  13  294.67   29.20
  -1   5 -13    6.20    7.80
   1  -5  13   17.30   12.30
   1  -5  13   39.00   15.60
   1  -5  13   22.40    8.30
  -2   5 -13  142.19   16.00
   2  -5  13  135.59   25.70
   2  -5  13  138.69   19.90
   2  -5  13  147.19   15.60
  -3   5 -13    0.50    7.00
   3  -5  13   -4.70   14.00
   3  -5  13   11.90    6.70
   3  -5  13   14.70   10.70
   4  -5  13  148.39   29.30
   4  -5  13  145.39   17.10
  -5   5 -13   14.20   20.30
   5  -5  13   18.80   11.30
   5  -5  13    9.80    8.40
  -6   5 -13   -3.20   17.30
   6  -5  13   21.70   10.40
   6  -5  13    5.80   12.90
  -7   5 -13    1.20   17.40
   7  -5  13    5.70   10.10
  -8   5 -13  -11.20   17.90
   8  -5  13    8.90   10.70
  -9   5 -13  -11.10   18.60
   9  -5  13   21.30   11.30
 -10   5 -13  -17.60   19.40
  10  -5  13    4.70    9.50
  12   4 -13  102.59   17.30
  12   4 -13   93.79   14.70
 -12  -4  13   55.09   18.20
  11   4 -13    0.30    9.10
  11   4 -13   -3.40    6.90
 -11  -4  13    7.90   12.70
  10   4 -13    6.90    9.80
  10   4 -13   -2.90   10.60
   9   4 -13   25.00    8.80
  -9  -4  13   35.90    9.80
  -9  -4  13   52.39   17.00
   8   4 -13    9.20    6.50
  -8  -4  13    0.40    5.50
  -8  -4  13   27.00   12.40
   7   4 -13   34.10    8.80
   7   4 -13   31.60   17.40
  -7  -4  13   11.20    7.40
  -7  -4  13   40.40   14.60
   6   4 -13  128.69   13.00
   6   4 -13  116.69   23.30
  -6  -4  13  160.08   19.20
  -6  -4  13  148.19   13.80
   5   4 -13   47.80   17.60
   5   4 -13   47.60    9.30
  -5  -4  13   40.40    9.20
  -5  -4  13   69.59   15.60
   4   4 -13    4.70   11.80
   4   4 -13   -2.70    4.30
  -4  -4  13   -0.90    4.70
  -4  -4  13   -5.50    7.60
   3   4 -13   75.29   10.40
   3   4 -13   77.39   18.30
  -3  -4  13   96.99   16.20
  -3  -4  13   59.19    9.60
   2   4 -13   36.10    8.40
   2   4 -13   36.10   13.90
  -2  -4  13   28.30   11.70
  -2  -4  13   35.70    8.50
   1   4 -13  142.99   14.00
  -1  -4  13  153.88   14.00
  -1  -4  13  143.79   20.90
  -1  -4  13  154.58   19.90
   0   4 -13   88.19   12.40
   0  -4  13   75.29   16.60
   0  -4  13   87.19   11.80
   0  -4  13  108.49   20.30
  -1   4 -13   25.60   12.80
   1  -4  13   17.00   11.60
   1  -4  13   19.00   13.90
   1  -4  13   32.00    9.40
  -2   4 -13   95.29   13.80
   2  -4  13   99.99   16.10
   2  -4  13  122.99   14.00
  -3   4 -13  118.99   15.50
   3  -4  13  152.98   16.30
   3  -4  13  135.09   17.70
   3  -4  13  178.18   24.50
  -4   4 -13  -35.00   11.50
   4  -4  13   -0.80    9.10
   4  -4  13    9.90    8.50
  -5   4 -13   25.10   17.50
   5  -4  13   34.20    9.80
  -6   4 -13    3.20   16.80
   6  -4  13   12.20    9.10
   6  -4  13    6.60    8.10
  -7   4 -13  126.19   29.10
   7  -4  13  123.69   17.70
  -8   4 -13   17.30   18.80
   8  -4  13   -3.30    8.50
  -9   4 -13   27.90   28.90
   9  -4  13   50.69   14.50
 -10   4 -13    7.30   19.30
  10  -4  13    8.10   10.10
  13   3 -13    5.50   11.50
 -13  -3  13    2.40   11.70
  12   3 -13    1.80    9.30
 -12  -3  13  -12.00    9.00
  11   3 -13  -12.60    7.20
  11   3 -13    0.00    7.00
 -11  -3  13    2.40   11.00
  10   3 -13   49.20   13.10
  10   3 -13   27.80    9.10
 -10  -3  13   73.59   18.20
   9   3 -13    7.50    7.00
  -9  -3  13    2.10   10.20
  -9  -3  13   -3.30    5.80
   8   3 -13  140.89   27.00
   8   3 -13   83.89   11.80
  -8  -3  13  105.59   19.20
  -8  -3  13   82.59   12.50
   7   3 -13   44.70    9.50
   7   3 -13   34.20   16.70
  -7  -3  13   48.40   14.30
  -7  -3  13   44.80    9.90
   6   3 -13   17.10    7.40
   6   3 -13   31.40   15.80
  -6  -3  13   23.00    8.40
  -6  -3  13   42.40   13.60
   5   3 -13   27.00    7.40
   5   3 -13   20.80   12.40
  -5  -3  13   27.40   10.60
  -5  -3  13   28.40    8.20
   4   3 -13  529.75   35.90
   4   3 -13  482.25   27.70
  -4  -3  13  508.75   28.30
  -4  -3  13  521.65   34.80
   3   3 -13   25.50    7.50
   3   3 -13   32.30   13.10
  -3  -3  13   18.70    7.70
  -3  -3  13   28.40   11.10
   2   3 -13   35.70   14.40
   2   3 -13   50.09   10.50
  -2  -3  13   51.59   12.70
  -2  -3  13   52.79   10.30
   1   3 -13   31.40    8.10
  -1  -3  13   22.20   10.70
  -1  -3  13   20.20   11.90
  -1  -3  13   22.40    8.20
   0   3 -13  370.56   24.20
   0  -3  13  304.57   22.50
   0  -3  13  430.46   27.90
   0  -3  13  425.66   28.60
  -1   3 -13   -6.00    4.80
   1  -3  13    1.00    5.30
   1  -3  13   -8.30    8.50
   1  -3  13   -8.40    7.30
  -2   3 -13   81.99   12.90
   2  -3  13   71.59   12.60
   2  -3  13   71.79   13.30
   2  -3  13  119.49   22.00
  -3   3 -13    0.90    6.70
   3  -3  13   -3.70    8.10
   3  -3  13   22.60   13.90
   3  -3  13    5.80    6.10
  -4   3 -13  115.59   23.10
   4  -3  13  106.39   15.20
   4  -3  13  126.99   15.20
  -5   3 -13   26.80   18.30
   5  -3  13    4.00    7.50
   5  -3  13   23.00   10.40
  -6   3 -13  612.04   45.60
   6  -3  13  642.84   37.80
   6  -3  13  561.94   34.40
  -7   3 -13    2.60   15.70
   7  -3  13   -5.90    7.30
   7  -3  13    2.90   10.60
  -8   3 -13  -14.90   16.90
   8  -3  13   -7.50    8.10
  -9   3 -13   -1.40   18.90
   9  -3  13   -1.00    8.30
 -10   3 -13  279.07   40.00
  10  -3  13  229.88   25.80
  13   2 -13  -14.90    8.50
 -13  -2  13   10.90   12.90
  12   2 -13   25.00   12.30
 -12  -2  13   -1.20   11.00
  11   2 -13    2.20    9.20
 -11  -2  13   -0.50   10.10
  10   2 -13   -6.30    6.80
 -10  -2  13    0.50    6.10
 -10  -2  13   -0.40   10.10
   9   2 -13   82.29   13.90
  -9  -2  13   85.99   17.50
  -9  -2  13   83.89   14.40
   8   2 -13   10.10    6.50
   8   2 -13   12.40   14.40
  -8  -2  13   10.80    9.80
  -8  -2  13   15.30    7.80
   7   2 -13   38.10   15.80
   7   2 -13   20.20   11.50
  -7  -2  13   31.40    9.80
  -7  -2  13   41.30   12.10
   6   2 -13    1.60    5.10
   6   2 -13    0.90    8.80
  -6  -2  13    1.40    5.50
  -6  -2  13    5.90    8.70
   5   2 -13  831.82   47.30
   5   2 -13  823.62   40.50
  -5  -2  13  885.91   46.10
  -5  -2  13  768.72   40.30
   4   2 -13   37.00    8.90
   4   2 -13   40.00   13.90
  -4  -2  13   47.30   12.00
  -4  -2  13   29.00    8.80
   3   2 -13   39.60   12.70
   3   2 -13   43.00    9.20
  -3  -2  13   75.99   12.70
  -3  -2  13   36.50   10.20
   2   2 -13    1.60    8.30
   2   2 -13   31.70    8.40
  -2  -2  13   25.50    9.20
  -2  -2  13   24.70    7.30
   1   2 -13  750.52   38.60
  -1  -2  13  734.53   38.20
  -1  -2  13  738.03   52.19
  -1  -2  13  778.62   38.40
   0   2 -13   11.80    9.00
   0  -2  13   30.90   10.90
   0  -2  13   18.50    6.90
  -1   2 -13   28.70    9.40
   1  -2  13   28.60    9.40
   1  -2  13   30.60    9.50
   1  -2  13   44.90   13.30
  -2   2 -13   15.90    8.20
   2  -2  13   -8.80    8.60
   2  -2  13   -3.30    6.60
   2  -2  13   -5.30    5.00
   3  -2  13  202.78   16.90
   3  -2  13  245.78   24.40
   3  -2  13  204.28   18.70
  -4   2 -13   14.50   15.80
   4  -2  13   -2.90    7.30
   4  -2  13   -3.90    6.90
  -5   2 -13  187.38   26.50
   5  -2  13  173.28   16.80
   5  -2  13  198.38   19.70
  -6   2 -13    5.00   15.30
   6  -2  13    5.00    7.50
   6  -2  13    6.60    9.20
  -7   2 -13   62.79   21.40
   7  -2  13   90.99   17.30
   7  -2  13  122.69   20.50
  -8   2 -13   -3.30   16.50
   8  -2  13    3.60    8.90
  -9   2 -13   33.20   21.20
   9  -2  13    3.10    8.70
 -10   2 -13   -3.90   18.30
  10  -2  13   -9.10    7.90
  13   1 -13   13.20   13.40
 -13  -1  13   39.10   14.20
  12   1 -13    4.90   10.80
 -12  -1  13   -0.70   10.20
  11   1 -13   48.20   13.30
 -11  -1  13   38.60   14.50
 -10  -1  13   -2.50    8.80
 -10  -1  13    1.00    7.60
   9   1 -13   19.50   15.50
  -9  -1  13   54.39   15.10
  -9  -1  13   38.70   11.00
   8   1 -13   44.40   16.60
   8   1 -13   31.90    9.70
  -8  -1  13   36.20   12.90
  -8  -1  13   44.00   12.10
   7   1 -13  248.68   19.50
   7   1 -13  238.18   24.60
  -7  -1  13  246.58   20.60
  -7  -1  13  258.97   20.60
   6   1 -13   49.00   15.00
   6   1 -13   40.20   10.20
  -6  -1  13   80.79   14.10
  -6  -1  13   46.50   10.90
   5   1 -13    8.40    9.90
   5   1 -13   -7.90    6.80
  -5  -1  13   13.10    7.10
  -5  -1  13   12.00    7.90
   4   1 -13  112.59   13.50
   4   1 -13   89.99   15.30
  -4  -1  13  100.89   12.50
  -4  -1  13   91.69   11.90
   3   1 -13  109.49   13.40
  -3  -1  13  112.39   12.10
  -3  -1  13  122.39   13.40
   2   1 -13   87.89   17.60
  -2  -1  13  128.59   15.10
  -2  -1  13  123.49   12.20
  -2  -1  13   87.59   11.90
   1   1 -13    7.40    6.20
  -1  -1  13    1.30    5.00
  -1  -1  13   12.30    8.20
  -1  -1  13    6.00    6.40
   0   1 -13  140.49   14.90
   0  -1  13  162.08   15.10
   0  -1  13  145.19   13.00
   0  -1  13  168.08   14.40
  -1   1 -13    3.10    5.50
   1  -1  13   -4.70    4.90
   1  -1  13    2.20    5.40
   1  -1  13   13.40    9.20
  -2   1 -13  159.38   16.40
   2  -1  13  179.18   16.70
   2  -1  13  175.08   18.50
   2  -1  13  167.68   13.90
   3  -1  13   -1.80    5.70
   3  -1  13  -10.40    9.40
   3  -1  13    3.30    6.60
  -4   1 -13    7.40   14.80
   4  -1  13    6.10    7.50
   4  -1  13   13.50    8.30
  -5   1 -13   19.20   14.80
   5  -1  13   -0.70    7.90
   5  -1  13    8.30    7.90
  -6   1 -13   13.60   15.40
   6  -1  13    3.00    8.10
   6  -1  13   11.20   10.80
  -7   1 -13   26.30   17.40
   7  -1  13    4.70    8.80
   7  -1  13    4.70   10.20
  -8   1 -13  -17.80   14.60
   8  -1  13    8.20   10.40
  -9   1 -13    0.10   19.10
   9  -1  13  -12.00    8.30
  13   0 -13   28.30   14.80
 -13   0  13   37.30   16.10
  12   0 -13    7.70   11.40
 -12   0  13   10.50   11.40
  11   0 -13   87.79   18.80
 -11   0  13   82.69   17.90
 -10   0  13  101.89   18.50
 -10   0  13   60.89   15.50
   9   0 -13  730.23   47.80
  -9   0  13  808.02   43.30
  -9   0  13  755.32   42.30
   8   0 -13    0.10   11.80
  -8   0  13    4.40    9.00
  -8   0  13    5.50    6.80
   7   0 -13  324.77   23.20
   7   0 -13  286.47   25.90
  -7   0  13  329.67   22.80
  -7   0  13  318.87   23.70
   6   0 -13   28.50   11.90
   6   0 -13   31.40    9.50
  -6   0  13   26.10    9.30
  -6   0  13   32.20    9.40
   5   0 -13   11.30    8.80
   5   0 -13   18.90    7.20
  -5   0  13   12.80    7.20
  -5   0  13    3.20    6.30
   4   0 -13    2.70    5.70
  -4   0  13   15.30    6.90
  -4   0  13   -0.20    5.30
   3   0 -13  271.57   20.00
   3   0 -13  253.57   19.40
  -3   0  13  258.97   15.90
  -3   0  13  277.87   20.20
   2   0 -13   32.30    9.30
  -2   0  13   57.79   11.00
  -2   0  13   51.49    9.50
  -2   0  13   36.00    6.60
   1   0 -13  139.39   14.80
  -1   0  13  161.88   15.00
  -1   0  13  165.48   11.10
  -1   0  13  160.78   10.90
   0   0 -13    4.90    5.70
   0   0  13    6.80    6.70
   0   0  13    5.50    5.00
   0   0  13    4.40    3.60
  -1   0 -13  520.95   31.40
   1   0  13  565.04   31.30
   1   0  13  520.75   23.10
   1   0  13  485.75   25.60
   2   0  13    1.10    4.80
   2   0  13    4.70    6.80
   2   0  13   -3.80    8.10
   3   0  13  228.58   15.40
   3   0  13  253.37   20.40
  -4   0 -13   12.80   13.10
   4   0  13   -7.00    5.20
   4   0  13   -2.90    6.90
  -5   0 -13   80.99   19.10
   5   0  13   50.79   12.20
   5   0  13   46.30   12.90
  -6   0 -13    0.40   13.20
   6   0  13    7.00    9.40
  -7   0 -13   -0.50   15.00
   7   0  13   12.00    9.70
  -8   0 -13   -8.30   16.00
   8   0  13   36.10   14.00
   8   0  13   19.70   14.30
  -9   0 -13   95.49   26.50
   9   0  13   65.29   16.40
  13  -1 -13   13.40   13.60
 -13   1  13   16.40   13.10
  12  -1 -13   53.49   16.30
 -12   1  13   30.10   14.40
  11  -1 -13    4.30   10.20
 -11   1  13    0.70    9.90
 -10   1  13  292.87   25.40
 -10   1  13  336.87   26.40
   9  -1 -13    0.70    9.90
  -9   1  13    9.10    8.40
  -9   1  13   12.40    9.10
   8  -1 -13   -1.30    9.70
  -8   1  13    0.40    5.60
  -8   1  13    2.20    8.60
   7  -1 -13   12.50   10.10
  -7   1  13    8.50    7.90
  -7   1  13   11.40    8.10
   6  -1 -13  399.06   28.00
   6  -1 -13  427.76   30.70
  -6   1  13  413.06   28.10
  -6   1  13  440.56   24.90
   5  -1 -13  120.59   15.20
   5  -1 -13  115.09   14.00
  -5   1  13  155.98   13.20
  -5   1  13  149.09   16.00
   4  -1 -13   26.40    9.50
   4  -1 -13   14.90    6.90
  -4   1  13   15.30    7.90
  -4   1  13   24.50    6.70
   3  -1 -13    0.20    5.20
   3  -1 -13   -1.70    5.60
  -3   1  13    6.20    4.10
  -3   1  13    1.60    6.80
   2  -1 -13  460.05   28.30
  -2   1  13  472.75   28.40
   1  -1 -13    6.90    5.80
  -1   1  13   15.00    7.40
   0  -1 -13   77.09   13.10
   0   1  13   82.79   14.50
  -1  -1 -13    2.30   11.60
   1   1  13    3.00    5.70
   2   1  13  136.39   11.80
   2   1  13  128.49   15.50
   2   1  13  130.09    9.60
   3   1  13   -7.40    5.70
   3   1  13   10.90    6.60
  -4  -1 -13   63.69   15.90
   4   1  13   86.89   16.50
  -5  -1 -13   12.30   12.60
   5   1  13  -10.10    6.60
   5   1  13    0.50    8.80
  -6  -1 -13   12.40   13.60
   6   1  13   20.10    9.70
   6   1  13   12.60   11.20
  -7  -1 -13   10.60   15.90
   7   1  13   -1.10    8.80
   7   1  13   31.70   14.40
  -8  -1 -13   17.40   18.10
   8   1  13   25.80   12.20
   8   1  13   11.40   14.80
  -9  -1 -13   26.30   20.00
   9   1  13   13.30   12.00
  12  -2 -13    4.20   11.10
 -12   2  13   -2.50   10.30
 -11   2  13    5.40    8.90
 -11   2  13    5.10   11.40
 -10   2  13   11.00    9.80
 -10   2  13    6.60    7.80
   9  -2 -13   -2.80    9.80
  -9   2  13   -1.70    8.00
  -9   2  13    1.30    7.50
   8  -2 -13   -0.60    8.90
  -8   2  13    9.20    7.50
  -8   2  13   -0.20    7.50
   7  -2 -13   29.10   11.80
  -7   2  13   50.49   12.20
  -7   2  13   16.20    8.50
   6  -2 -13   12.60    8.60
  -6   2  13   -6.80    4.80
  -6   2  13    2.20    6.90
   5  -2 -13  422.86   25.30
  -5   2  13  380.06   21.30
  -5   2  13  371.36   26.50
   4  -2 -13    2.80    6.80
  -4   2  13    2.60    6.20
  -4   2  13    9.50    5.10
   3  -2 -13   95.69   17.60
  -3   2  13   76.19   12.30
   2  -2 -13   -0.80    5.90
  -2   2  13   11.30    7.90
   1  -2 -13   42.00   15.40
  -1   2  13   66.79   14.20
   0   2  13    8.90    8.70
   1   2  13   79.19   12.70
   2   2  13    4.00    7.20
   3   2  13    5.80    6.80
   3   2  13    5.00    8.00
   3   2  13    3.30    5.50
  -4  -2 -13    2.30   11.20
   4   2  13   -6.20    6.90
   4   2  13   -1.40    7.60
  -5  -2 -13   29.50   12.70
   5   2  13   -0.90    9.20
   5   2  13    0.80    8.00
  -6  -2 -13   24.10   21.30
   6   2  13    1.20   11.30
   6   2  13   19.40   10.20
  -7  -2 -13   11.10   13.80
   7   2  13   22.90   11.10
   7   2  13   11.50   14.80
  -8  -2 -13   -0.20   15.80
   8   2  13    7.40   10.40
   8   2  13   -6.30   16.50
  12  -3 -13   30.00   14.70
 -12   3  13   49.20   16.10
 -11   3  13   11.30    8.50
 -11   3  13   -0.30    9.20
 -10   3  13  138.49   18.60
 -10   3  13  123.19   18.30
   9  -3 -13    5.20   12.10
  -9   3  13    1.40    6.70
  -9   3  13    8.90    8.20
   8  -3 -13   13.90   10.80
  -8   3  13   35.90   11.20
  -8   3  13   27.00   10.90
   7  -3 -13   13.90    9.20
  -7   3  13   16.90    8.30
  -7   3  13   -1.10    5.90
   6  -3 -13  497.45   30.10
  -6   3  13  574.54   34.10
  -6   3  13  513.15   27.90
   5  -3 -13    4.20    6.80
  -5   3  13    5.50    7.40
  -5   3  13   15.70    6.40
   4  -3 -13  272.77   15.50
  -4   3  13  259.47   13.80
  -4   3  13  276.57   22.00
  -3   3  13    8.80    7.30
  -2   3  13  127.69   15.60
  -1   3  13   26.00    9.70
   0   3  13  124.79   15.50
   1   3  13    0.00    7.70
   2   3  13   -2.10    7.10
   3   3  13   16.70    9.10
  -4  -3 -13   69.69   13.10
   4   3  13   73.09   14.90
   4   3  13   73.19   11.20
  -5  -3 -13    7.80   11.40
   5   3  13   13.30   10.20
  -6  -3 -13   26.40   14.30
   6   3  13   30.50   14.10
   6   3  13   46.80   13.60
  -7  -3 -13   20.80   15.60
   7   3  13    0.20    9.80
   7   3  13   17.70   16.40
  12  -4 -13    5.40   10.40
 -12   4  13   11.90   11.80
 -11   4  13  268.57   26.30
 -11   4  13  200.78   23.50
 -10   4  13   -3.20    9.70
 -10   4  13    3.10    7.70
   9  -4 -13   -0.70   10.10
  -9   4  13   -8.20    8.00
  -9   4  13    1.80    6.80
   8  -4 -13    9.50   10.40
  -8   4  13   23.50   10.20
  -8   4  13   17.20   10.10
   7  -4 -13  205.28   18.90
  -7   4  13  186.48   17.80
  -7   4  13  200.28   22.50
   6  -4 -13    7.00    8.70
  -6   4  13    7.50    7.30
  -6   4  13   -0.10    6.50
   5  -4 -13   61.59   10.30
  -5   4  13   56.19   13.30
  -5   4  13   48.50    9.00
  -4   4  13   -3.90    6.50
  -3   4  13  -10.60    5.80
  -2   4  13   20.10    9.10
  -1   4  13   88.79   14.50
   0   4  13    0.10    7.50
   1   4  13   31.60   11.10
   2   4  13   18.80   10.10
   3   4  13   51.39   13.50
   4   4  13   10.10   11.00
  -5  -4 -13   27.00   11.80
   5   4  13   51.49   15.00
   5   4  13   38.50   12.30
  -6  -4 -13    8.80   12.50
   6   4  13    6.70   13.20
   6   4  13   33.80   13.30
  -7  -4 -13   28.20   15.70
   7   4  13   51.09   19.30
   7   4  13   41.50   15.30
 -11   5  13   -7.00    5.90
 -11   5  13   56.59   16.20
 -10   5  13   57.49   15.40
 -10   5  13   43.70   15.60
   9  -5 -13   -3.50   10.00
  -9   5  13   -3.00    8.70
  -9   5  13   -6.20    6.70
   8  -5 -13   -1.20    8.70
  -8   5  13   13.10    9.20
  -8   5  13    0.50    8.60
   7  -5 -13   -6.70    7.70
  -7   5  13    3.00    8.30
  -7   5  13   -1.30    8.40
   6  -5 -13  109.99   17.50
  -6   5  13   83.89   14.20
  -6   5  13   75.39   16.40
   5  -5 -13    1.70    5.50
  -5   5  13    0.20    6.40
  -4   5  13   -1.40    6.30
  -3   5  13   -3.80    7.30
  -2   5  13    3.80    8.50
  -1   5  13    0.10    6.90
   0   5  13   16.00    9.40
   1   5  13   31.00   11.00
   2   5  13  104.49   18.90
   3   5  13   14.60   11.50
   4   5  13   87.89   17.30
  -5  -5 -13   45.80   11.30
   5   5  13   81.69   13.70
   5   5  13   78.29   15.80
  -6  -5 -13   16.90   12.60
   6   5  13   20.10   12.80
   6   5  13   18.60   16.20
 -10   6  13   10.80   10.70
 -10   6  13   20.30   12.50
  -9   6  13    3.30    8.40
  -9   6  13   -3.00    9.30
   8  -6 -13   -3.10    8.30
  -8   6  13    8.90    8.70
  -8   6  13    5.40    9.90
   7  -6 -13  103.39   14.50
  -7   6  13  129.69   19.30
  -7   6  13  126.99   21.70
   6  -6 -13   14.60    7.40
  -6   6  13    6.70    8.40
   5  -6 -13  225.58   12.50
   5  -6 -13  243.58   14.20
  -5   6  13  240.18   22.80
  -4   6  13   33.10   12.40
  -3   6  13    8.60    9.70
  -1   6  13  289.67   35.60
   0   6  13   48.70   20.20
   1   6  13    7.00    9.30
   2   6  13    6.50    9.60
   3   6  13    2.80    9.40
   4   6  13   76.79   17.20
   5   6  13   78.49   18.30
  -9   7  13    0.10    7.50
  -9   7  13   -1.80   11.00
   8  -7 -13  106.19   16.20
  -8   7  13  170.18   21.00
  -8   7  13  107.89   18.30
   7  -7 -13   -1.70    7.40
  -7   7  13   13.20    9.40
  -7   7  13    6.00   10.10
   6  -7 -13  173.28   17.20
   6  -7 -13  136.09   13.20
  -6   7  13  143.79   19.80
  -5   7  13    3.40    8.70
  -4   7  13   -9.80    6.60
  -3   7  13   41.00   12.60
  -2   7  13  201.88   22.10
  -1   7  13    2.20    7.80
   0   7  13   -4.10    8.40
   1   7  13   50.69   14.00
   2   7  13  110.19   19.30
   3   7  13   41.20   13.70
   4   7  13    5.00   12.60
   8  -8 -13  -12.10    7.90
  -8   8  13   -7.90    6.50
  -8   8  13   15.10   13.10
   7  -8 -13   13.10   12.30
   7  -8 -13   11.60    9.10
  -7   8  13    5.40    8.20
   6  -8 -13   -1.90    6.20
   6  -8 -13    5.80    7.90
  -6   8  13   -1.30    8.90
  -5   8  13  -13.00    7.80
  -4   8  13   25.50   12.40
  -3   8  13   25.10   12.00
  -2   8  13    3.20    8.90
  -1   8  13   62.79   15.30
   0   8  13   44.90   13.40
   1   8  13   26.00   13.50
   2   8  13    2.90   11.50
   6  -9 -13    2.10    6.30
   6  -9 -13    9.40    7.80
  -6   9  13    2.90    8.90
  -5   9  13    6.00   10.60
  -4   9  13   12.90   10.50
  -3   9  13    9.20   10.00
  -2   9  13   74.99   17.40
  -1   9  13   54.19   15.10
   0   9  13   22.40   13.40
  -3 -14  14   71.59   30.80
  -2 -14  14   14.10    6.30
  -2 -14  14   15.40    6.00
  -2 -14  14    4.20   26.80
  -1 -14  14    3.20    7.40
  -1 -14  14   -7.70   24.20
  -1 -14  14   12.40    8.00
   0 -14  14    0.90    7.80
   0 -14  14  -25.20   21.60
   1 -14  14   99.99   37.10
   1 -14  14   70.89   14.10
   2 -14  14  -11.60    8.70
   2 -14  14   -5.40   22.90
  -5 -13  14   -6.10   21.70
  -4 -13  14   36.20   25.10
  -3 -13  14    8.00   23.10
  -2 -13  14    9.10    5.70
  -2 -13  14   27.80   24.80
   1  13 -14   15.70    9.70
  -1 -13  14  -10.80   20.60
  -1 -13  14   20.80   14.80
   0  13 -14   29.40   12.50
   0 -13  14   12.50   24.10
   0 -13  14   58.69   11.80
  -1  13 -14   51.79   15.60
   1 -13  14   21.90   10.50
   1 -13  14   33.90   28.70
   2 -13  14    0.80    9.20
   2 -13  14   -5.00   22.40
   3 -13  14   25.80   26.80
   3 -13  14   -3.30    8.50
   4 -13  14   28.30   25.90
   4 -13  14   55.19   14.70
   5 -13  14   52.19   14.90
   5 -13  14   79.39   33.10
  -7 -12  14    7.80   20.90
  -6 -12  14   -0.70   17.70
  -5 -12  14   16.20   20.80
  -4 -12  14   -7.70   18.70
  -3 -12  14   42.30   24.60
  -3 -12  14   31.50    6.30
   2  12 -14   36.00   10.50
  -2 -12  14   11.20   20.40
  -2 -12  14   42.70    8.60
   1  12 -14   54.99   12.50
  -1 -12  14   52.89   10.30
  -1 -12  14  108.09   31.70
   0  12 -14    4.00    9.90
   0 -12  14    0.00   19.40
   0 -12  14   -3.50    7.30
  -1  12 -14   33.00   13.70
   1 -12  14   53.09   12.60
   1 -12  14   60.59   28.70
   2 -12  14    9.10   22.30
   2 -12  14    6.20   10.20
   3 -12  14   99.69   16.90
   3 -12  14   40.80   26.10
   4 -12  14    7.90   10.10
   4 -12  14  -17.40   21.60
   5 -12  14    3.10    9.60
   5 -12  14   -5.00   19.70
   6 -12  14  -15.20   23.40
   6 -12  14   25.20   13.50
  -8 -11  14   52.69   24.70
  -7 -11  14   10.40   21.30
  -6 -11  14  -16.40   17.70
  -5 -11  14   -5.40   18.10
   4  11 -14  283.37   15.70
  -4 -11  14  305.47   38.90
  -4 -11  14  261.67   14.30
   3  11 -14   14.80   11.00
  -3 -11  14    9.30    5.90
  -3 -11  14   15.30   21.30
   2  11 -14   12.30    9.50
  -2 -11  14   12.50    6.90
  -2 -11  14   46.30   22.90
   1  11 -14    5.70    8.90
  -1 -11  14   27.70   20.90
  -1 -11  14    6.00    7.00
   0  11 -14  117.69   18.20
   0 -11  14  150.48   32.70
   0 -11  14  168.38   16.10
  -1  11 -14   51.59   15.30
   1 -11  14   75.99   13.60
   1 -11  14   56.39   27.50
  -2  11 -14   11.80   14.60
   2 -11  14   20.70    9.80
   2 -11  14    9.30   21.70
   3 -11  14   16.50   21.30
   3 -11  14    6.40    9.00
   4 -11  14   19.50   21.10
   4 -11  14    8.10    9.20
   5 -11  14   21.90   10.90
   5 -11  14   49.60   24.90
   6 -11  14    5.00   10.90
   6 -11  14  -19.20   19.80
   7 -11  14   15.30   27.10
   7 -11  14   -5.00    9.30
  -9 -10  14   79.99   27.60
  -8 -10  14   22.40   19.20
  -7 -10  14   33.20   21.80
  -6 -10  14   99.39   27.10
   5  10 -14  121.29   10.00
  -5 -10  14  135.09   31.30
  -5 -10  14  113.29    8.90
   4  10 -14   27.80    8.40
  -4 -10  14   22.40    6.30
  -4 -10  14   33.70   24.70
   3  10 -14    7.20    7.70
  -3 -10  14   64.89   22.90
  -3 -10  14   13.30    6.20
   2  10 -14  175.38   17.40
  -2 -10  14  160.38   14.60
  -2 -10  14  224.28   33.70
   1  10 -14  118.19   16.20
  -1 -10  14  124.39   13.60
  -1 -10  14  106.89   30.20
   0  10 -14    1.90    9.50
   0 -10  14   20.30    8.40
   0 -10  14  -15.10   17.40
  -1  10 -14   68.09   15.40
   1 -10  14  101.39   14.50
   1 -10  14   89.99   26.70
  -2  10 -14   12.80   10.30
   2 -10  14   13.80   20.70
   2 -10  14   16.50    9.00
   3 -10  14  -19.30   29.50
   3 -10  14    4.80    8.20
   4 -10  14  296.97   24.90
   4 -10  14  321.67   40.90
   5 -10  14    7.60    9.40
   5 -10  14   49.90   24.60
   6 -10  14    0.00   20.10
   6 -10  14   34.80   13.20
   7 -10  14    8.80   26.30
   7 -10  14   -4.50    8.70
   8 -10  14   34.20   14.70
   8 -10  14   88.99   32.50
 -10  -9  14    1.80   16.10
  -9  -9  14   -4.80   16.80
  -8  -9  14  113.49   26.50
   7   9 -14  115.49    8.80
   7   9 -14  112.09    8.80
  -7  -9  14  144.79   28.90
   6   9 -14    5.70    5.70
  -6  -9  14    0.00    4.40
  -6  -9  14    5.20   13.50
   5   9 -14   11.30    7.90
  -5  -9  14    6.00    4.90
  -5  -9  14  -11.30   14.40
   4   9 -14   70.39   11.10
  -4  -9  14   40.60    8.10
  -4  -9  14   33.40   20.20
   3   9 -14   40.40   10.20
  -3  -9  14   24.20   18.50
  -3  -9  14    9.60    6.50
   2   9 -14    6.50    8.20
  -2  -9  14   -6.40    7.80
  -2  -9  14   31.60   20.10
   1   9 -14   33.30   10.30
  -1  -9  14   41.70   19.90
  -1  -9  14   60.29   10.70
   0   9 -14   14.10    9.90
   0  -9  14    8.80    7.30
   0  -9  14   -1.90   15.20
  -1   9 -14   72.09   15.70
   1  -9  14   80.49   13.60
   1  -9  14   85.69   27.30
  -2   9 -14   62.89   14.90
   2  -9  14  113.69   29.70
   2  -9  14   84.49   15.00
   3  -9  14   33.10   11.20
   3  -9  14   53.09   23.90
   4  -9  14   15.70    9.50
   4  -9  14    9.00   17.90
   5  -9  14  -10.70   11.60
   6  -9  14   37.00   12.30
   6  -9  14   69.49   28.30
   7  -9  14   30.10   24.80
   7  -9  14   21.00   11.20
  -8   9 -14   16.10   26.90
   8  -9  14    5.20   10.60
  10   8 -14   10.30    5.50
  10   8 -14    9.60    5.70
 -10  -8  14   26.00   17.90
   9   8 -14  196.98   13.40
   9   8 -14  155.08   12.70
  -9  -8  14  165.28   28.00
   8   8 -14   24.90    6.90
   8   8 -14   18.30    6.60
  -8  -8  14   -6.10   16.00
   7   8 -14    6.20    9.90
  -7  -8  14   -0.70    5.20
  -7  -8  14   -0.30   14.80
   6   8 -14   30.00    8.20
  -6  -8  14   33.00   17.90
  -6  -8  14   35.50    7.50
   5   8 -14  170.78   14.80
  -5  -8  14  168.48   13.10
  -5  -8  14  145.79   28.30
   4   8 -14    6.40    7.20
  -4  -8  14    9.10    5.80
  -4  -8  14   -5.80   13.20
   3   8 -14    4.10    6.70
  -3  -8  14   16.00   16.00
  -3  -8  14    8.30    5.70
   2   8 -14   30.10   10.10
  -2  -8  14   13.00    6.80
  -2  -8  14   21.40   15.80
   1   8 -14   14.90    9.40
  -1  -8  14   40.70    9.40
  -1  -8  14   32.20   25.40
  -1  -8  14   30.10   17.30
   0   8 -14   75.09   14.80
   0  -8  14   77.79   23.00
   0  -8  14   53.89   23.70
   0  -8  14   76.89   12.90
  -1   8 -14   63.79   13.90
   1  -8  14   95.59   26.30
   1  -8  14   70.29   13.60
  -2   8 -14    7.50    9.20
   2  -8  14    8.70    8.40
   2  -8  14  -30.10   13.10
   3  -8  14    7.10    8.20
   3  -8  14   11.50   17.60
   4  -8  14   10.90    9.00
   4  -8  14   14.50   19.80
   5  -8  14   -4.40    8.20
   5  -8  14   -6.90   17.10
   6  -8  14   16.10   10.70
   6  -8  14   -0.30   25.70
  -7   8 -14  -20.50   18.90
   7  -8  14   -4.00    8.90
  -8   8 -14    6.70   22.20
   8  -8  14   -2.50    8.50
  -9   8 -14   48.50   30.80
   9  -8  14    5.00    9.40
  11   7 -14   47.50   10.00
  11   7 -14   49.90    9.80
 -11  -7  14   26.10   17.70
  10   7 -14   75.59   11.90
  10   7 -14   63.29   10.40
 -10  -7  14   78.29   22.00
   9   7 -14    5.00    7.20
   9   7 -14    0.10    6.20
  -9  -7  14    8.00   14.30
   8   7 -14   54.19    9.60
  -8  -7  14   58.79   20.40
  -8  -7  14   32.00    7.60
   7   7 -14   58.59   10.30
  -7  -7  14  110.49   23.90
  -7  -7  14   95.59   10.70
   6   7 -14   11.80    6.70
  -6  -7  14    5.00   13.50
  -6  -7  14    2.20    6.00
   5   7 -14   64.19   10.70
  -5  -7  14   63.49   10.40
  -5  -7  14   39.20   16.70
   4   7 -14    1.80   17.40
   4   7 -14   16.80    7.80
  -4  -7  14   15.10    7.30
  -4  -7  14   13.30   15.70
   3   7 -14  229.28   31.90
   3   7 -14  327.37   21.70
  -3  -7  14  324.07   32.00
  -3  -7  14  344.97   23.70
   2   7 -14    7.40   15.70
   2   7 -14   10.90    7.70
  -2  -7  14    6.30    6.10
  -2  -7  14   19.00   13.40
   1   7 -14   97.99   15.40
  -1  -7  14  103.59   12.60
  -1  -7  14  138.39   28.00
  -1  -7  14  117.19   26.40
   0   7 -14    1.60    7.30
   0  -7  14   11.40    7.40
   0  -7  14   18.50   15.50
   0  -7  14   16.90   15.90
  -1   7 -14   -0.10    7.20
   1  -7  14   17.20   15.60
   1  -7  14   -4.30    6.60
   1  -7  14   10.60   14.70
  -2   7 -14   -0.40    7.30
   2  -7  14   -2.70   15.40
   2  -7  14  -10.30   12.50
   2  -7  14    9.10    7.30
   3  -7  14  151.58   17.60
   3  -7  14  166.78   31.40
   3  -7  14  130.59   23.70
   4  -7  14   -8.90   16.40
   4  -7  14    4.10    8.70
   5  -7  14   -3.30    8.00
   5  -7  14  -12.00   14.90
  -6   7 -14   -2.80   19.90
   6  -7  14   -6.80    8.20
  -7   7 -14   32.00   37.80
   7  -7  14   17.00   11.60
  -8   7 -14   24.30   24.60
   8  -7  14   -0.60    8.80
  -9   7 -14  103.99   32.90
   9  -7  14   47.30   15.50
  11   6 -14  -17.70    7.10
  11   6 -14   17.80    8.60
 -11  -6  14  -15.50   11.30
  10   6 -14   -5.50    7.30
  10   6 -14   -4.30    7.00
 -10  -6  14  -14.30   10.50
   9   6 -14   10.40   13.90
   9   6 -14    3.40    6.40
  -9  -6  14    3.10   12.60
   8   6 -14   42.50    9.30
  -8  -6  14   33.80   12.80
  -8  -6  14   10.50   14.70
   7   6 -14   17.70    7.40
  -7  -6  14   19.80   14.30
  -7  -6  14   25.90    9.70
   6   6 -14    2.70    5.70
  -6  -6  14    2.60   11.90
  -6  -6  14   11.10    7.90
   5   6 -14   24.10   18.10
   5   6 -14   54.89   10.00
  -5  -6  14   27.50   13.10
   4   6 -14   68.19   20.80
   4   6 -14   69.49   10.90
  -4  -6  14   88.39   20.70
  -4  -6  14   59.59   11.00
   3   6 -14   39.20    9.40
   3   6 -14   27.60   16.30
  -3  -6  14   19.70   13.40
  -3  -6  14    9.30    6.10
   2   6 -14  194.58   31.60
   2   6 -14  180.98   16.60
  -2  -6  14  172.48   15.20
  -2  -6  14  206.98   25.30
   1   6 -14    4.40    7.40
  -1  -6  14   40.70   18.70
  -1  -6  14   20.00    8.00
  -1  -6  14   13.10   15.30
   0   6 -14    5.90    9.20
   0  -6  14    1.60   14.00
   0  -6  14    7.10   13.40
   0  -6  14    1.50    7.40
  -1   6 -14   17.90    8.60
   1  -6  14   11.40   13.90
   1  -6  14   20.90    8.50
   1  -6  14   43.50   18.20
  -2   6 -14  145.29   17.60
   2  -6  14  169.98   26.40
   2  -6  14  152.98   16.80
   2  -6  14  162.68   27.40
   3  -6  14    4.00    7.90
   3  -6  14  -16.10   10.20
   3  -6  14    2.50   13.60
   4  -6  14   33.50   12.00
   4  -6  14    7.70   11.90
   4  -6  14   -1.20   17.20
   5  -6  14   21.70   19.70
   5  -6  14    2.60    8.80
  -6   6 -14  153.38   33.60
   6  -6  14  114.39   17.90
  -7   6 -14    1.30   20.80
   7  -6  14   18.70   11.00
  -8   6 -14   36.20   28.20
   8  -6  14   48.30   15.10
  -9   6 -14   -8.00   21.00
   9  -6  14    1.50   10.00
  12   5 -14   13.90    9.90
  12   5 -14    1.20    8.80
 -12  -5  14   21.30   15.40
  11   5 -14    6.40    9.60
  11   5 -14   10.30    8.90
 -11  -5  14   14.40   14.50
  10   5 -14   97.69   15.70
  10   5 -14   54.99   11.10
 -10  -5  14   66.79   18.50
   9   5 -14    0.80    6.40
  -9  -5  14    5.90   12.70
  -9  -5  14   -8.40    5.90
   8   5 -14   13.80    7.40
  -8  -5  14   -2.50    5.60
  -8  -5  14    9.40   12.30
   7   5 -14   46.20   10.00
  -7  -5  14   49.60   10.40
  -7  -5  14   52.49   17.00
   6   5 -14   54.29   20.40
   6   5 -14   72.89   10.60
  -6  -5  14   73.39   17.80
  -6  -5  14   53.39   10.00
   5   5 -14   37.30    9.70
   5   5 -14    9.90   14.90
  -5  -5  14   51.59    9.90
  -5  -5  14   26.30   13.60
   4   5 -14   45.00    9.10
   4   5 -14   44.30   16.90
  -4  -5  14   28.10   13.60
  -4  -5  14   60.19   10.30
   3   5 -14    3.90    6.20
   3   5 -14   -4.80   11.50
  -3  -5  14   -0.70    5.70
  -3  -5  14    9.40   11.10
   2   5 -14   -0.30   11.40
   2   5 -14   11.10    6.70
  -2  -5  14   -2.30   10.80
  -2  -5  14   -7.00    4.30
   1   5 -14   96.69   13.30
  -1  -5  14  146.89   21.40
  -1  -5  14   90.69   21.40
  -1  -5  14  150.68   14.30
   0   5 -14   27.70   11.80
   0  -5  14   37.20   15.50
   0  -5  14   32.20    9.30
   0  -5  14   24.70   13.80
  -1   5 -14    3.10    6.30
   1  -5  14    1.70   12.10
   1  -5  14    0.10   12.00
   1  -5  14    3.60    6.80
  -2   5 -14    1.60    7.70
   2  -5  14   18.90   12.80
   2  -5  14   33.00   16.30
   2  -5  14   14.00    8.70
   3  -5  14   -0.40    7.20
   3  -5  14   12.10   11.60
   3  -5  14  -12.10   13.90
   4  -5  14    0.40    6.80
   4  -5  14    0.10   10.00
   4  -5  14    9.50   16.50
  -5   5 -14  242.28   33.80
   5  -5  14  257.47   23.50
   5  -5  14  240.48   22.60
  -6   5 -14    3.90   21.40
   6  -5  14   -1.10    8.60
  -7   5 -14  -17.20   17.00
   7  -5  14    5.50    9.20
  -8   5 -14   -6.60   21.10
   8  -5  14   -9.60    7.60
  -9   5 -14   23.10   22.00
   9  -5  14   24.30   11.80
  12   4 -14   52.69   15.20
 -12  -4  14   71.29   19.00
  11   4 -14   56.49   14.60
  11   4 -14   41.30   11.80
 -11  -4  14   47.10   16.30
  10   4 -14   25.60   10.50
  10   4 -14    6.10    7.40
 -10  -4  14   12.10   12.80
   9   4 -14   14.60    9.70
  -9  -4  14   14.40    7.90
  -9  -4  14   17.90   11.70
   8   4 -14  101.09   13.00
  -8  -4  14  115.39   18.90
  -8  -4  14  118.39   13.80
   7   4 -14   44.70   10.70
   7   4 -14   14.70   15.20
  -7  -4  14   50.79   15.10
  -7  -4  14   16.50    8.30
   6   4 -14  120.99   24.90
   6   4 -14   79.39   11.70
  -6  -4  14  111.49   12.80
  -6  -4  14  106.49   20.90
   5   4 -14   14.50   12.80
   5   4 -14   12.30    6.80
  -5  -4  14    1.50    6.50
  -5  -4  14   17.10   10.30
   4   4 -14   46.20   17.40
   4   4 -14   22.20    7.70
  -4  -4  14   45.90   13.70
  -4  -4  14   44.70    9.90
   3   4 -14   -2.80    5.20
   3   4 -14    9.80   12.80
  -3  -4  14   -1.40    9.30
  -3  -4  14    5.40    5.90
   2   4 -14  195.08   23.30
   2   4 -14  198.38   17.30
  -2  -4  14  198.98   16.50
   1   4 -14   41.30   10.50
  -1  -4  14   25.00   13.20
  -1  -4  14   44.90    9.90
  -1  -4  14   43.60   14.80
   0   4 -14   70.39   12.70
   0  -4  14   72.49   11.60
   0  -4  14  104.19   19.50
   0  -4  14   97.19   21.10
  -1   4 -14    7.90    6.90
   1  -4  14    0.90   22.60
   1  -4  14   15.40   11.90
   1  -4  14   10.60    7.50
  -2   4 -14  288.27   23.50
   2  -4  14  322.77   29.90
   2  -4  14  305.17   25.10
   2  -4  14  312.07   23.00
   3  -4  14   -9.70   13.30
   3  -4  14    2.50    7.40
   3  -4  14   14.50   10.20
   4  -4  14  173.18   18.60
   4  -4  14  145.29   25.20
   4  -4  14  139.29   17.00
  -5   4 -14   -9.30   15.30
   5  -4  14    6.90    7.70
   5  -4  14   -2.30   10.00
  -6   4 -14   28.20   20.30
   6  -4  14   41.20   12.60
   6  -4  14   41.60   13.00
  -7   4 -14   -2.70   19.80
   7  -4  14   15.60   11.20
  -8   4 -14  156.38   32.30
   8  -4  14  133.39   22.20
  -9   4 -14    7.30   21.60
   9  -4  14    8.50   10.80
  12   3 -14   -4.70    9.30
 -12  -3  14    0.30   10.10
  11   3 -14   13.10    9.80
 -11  -3  14   -2.60   11.30
  10   3 -14    7.20    8.00
 -10  -3  14   14.20   11.50
 -10  -3  14   -3.10    6.70
   9   3 -14  104.99   13.70
  -9  -3  14  118.49   18.80
  -9  -3  14   83.99   14.70
   8   3 -14    6.00    6.90
  -8  -3  14   -2.20    9.80
  -8  -3  14    3.20    6.50
   7   3 -14  188.68   22.60
   7   3 -14  162.28   25.10
  -7  -3  14  170.68   19.80
  -7  -3  14  204.88   17.70
   6   3 -14    5.50    6.60
   6   3 -14   15.30   13.10
  -6  -3  14   18.70    7.30
  -6  -3  14   23.40   11.80
   5   3 -14   53.69   16.40
   5   3 -14   52.49   10.90
  -5  -3  14   41.20   12.60
  -5  -3  14   61.69   11.80
   4   3 -14   11.70   11.40
   4   3 -14   24.90    8.10
  -4  -3  14    4.60    6.50
  -4  -3  14   29.90   13.80
   3   3 -14  329.97   28.60
   3   3 -14  344.37   22.70
  -3  -3  14  354.46   25.40
  -3  -3  14  358.66   23.10
   2   3 -14   28.10   10.80
  -2  -3  14   28.50   11.00
  -2  -3  14   25.20    8.40
   1   3 -14    9.80    7.50
  -1  -3  14    9.20    9.90
  -1  -3  14    9.20    7.00
  -1  -3  14    5.80   11.10
   0   3 -14   58.99   12.20
   0  -3  14   61.49   11.70
   0  -3  14   51.99   13.00
   0  -3  14   79.09   16.60
  -1   3 -14  103.99   14.00
   1  -3  14   99.29   13.30
   1  -3  14  112.89   15.50
   1  -3  14  123.79   18.40
   2  -3  14    1.00   11.20
   2  -3  14    0.20    7.70
   2  -3  14    7.40    8.00
   3  -3  14   53.39   12.60
   3  -3  14   77.69   14.60
   3  -3  14   93.69   33.90
   4  -3  14    2.10    7.60
   4  -3  14    2.70    8.40
  -5   3 -14  238.18   31.20
   5  -3  14  219.68   21.60
   5  -3  14  226.88   19.50
  -6   3 -14  -17.40   15.40
   6  -3  14    0.30    8.20
   6  -3  14   10.50   10.30
  -7   3 -14   40.40   21.30
   7  -3  14   26.70   11.90
  -8   3 -14   24.20   20.50
   8  -3  14   16.80   11.10
   9  -3  14   10.90   10.80
  12   2 -14   -3.20   10.60
 -12  -2  14   11.30   12.80
  11   2 -14   15.60   11.20
 -11  -2  14   33.90   13.40
 -10  -2  14    3.20    9.90
 -10  -2  14    4.80    7.60
   9   2 -14   66.79   15.40
  -9  -2  14   84.49   16.90
  -9  -2  14   35.40   11.20
   8   2 -14    5.80    6.50
   8   2 -14   11.10   13.30
  -8  -2  14    0.80    8.70
  -8  -2  14   -2.60    5.90
   7   2 -14   52.49   11.00
  -7  -2  14   56.09   11.40
  -7  -2  14   22.10   10.80
   6   2 -14    2.80   11.00
   6   2 -14   -5.20    4.50
  -6  -2  14   -2.50    7.30
  -6  -2  14    1.30    6.00
   5   2 -14  142.29   20.10
   5   2 -14   98.59   12.90
  -5  -2  14  108.49   13.50
   4   2 -14   60.19   16.90
   4   2 -14   61.79   11.70
  -4  -2  14   33.90   10.00
  -4  -2  14   83.69   14.00
   3   2 -14   33.30   13.60
   3   2 -14   13.00    6.70
  -3  -2  14   14.10    7.40
  -3  -2  14    4.60    7.50
   2   2 -14  146.19   14.80
  -2  -2  14  172.98   15.50
  -2  -2  14  135.89   17.90
  -2  -2  14  145.09   15.50
   1   2 -14   92.39   12.70
  -1  -2  14   91.69   12.30
  -1  -2  14   96.79   13.30
  -1  -2  14   88.59   14.50
   0   2 -14  105.09   13.90
   0  -2  14  142.69   16.50
   0  -2  14  127.99   14.30
   0  -2  14  125.59   14.70
  -1   2 -14   24.50    9.40
   1  -2  14   12.70    7.40
   1  -2  14   11.60   10.60
   1  -2  14    4.60    7.00
   2  -2  14  142.39   15.50
   2  -2  14  143.39   19.30
   2  -2  14   93.69   12.70
   3  -2  14    4.40    7.50
   3  -2  14   10.10   13.20
   3  -2  14    2.40    7.10
  -4   2 -14  289.77   55.19
   4  -2  14  233.08   21.20
   4  -2  14  220.08   17.80
  -5   2 -14   -4.50   13.70
   5  -2  14    4.90    8.00
   5  -2  14    2.50    7.50
  -6   2 -14   22.60   18.90
   6  -2  14    7.90    8.70
  -7   2 -14   25.60   18.40
   7  -2  14   -4.20    8.80
   7  -2  14   -2.80    7.20
  -8   2 -14   75.19   25.30
   8  -2  14   61.09   15.80
  -9   2 -14   39.30   22.60
   9  -2  14    7.90   10.80
  12   1 -14   21.30   15.40
 -12  -1  14   31.00   14.40
  11   1 -14   -2.60    9.40
 -10  -1  14    0.60    7.70
 -10  -1  14   -0.60    9.40
  -9  -1  14   74.19   16.20
  -9  -1  14   69.09   13.90
   8   1 -14   -0.20   12.30
  -8  -1  14    1.60    7.40
  -8  -1  14   13.80    8.10
   7   1 -14  193.18   23.00
   7   1 -14  142.79   15.60
  -7  -1  14  176.88   17.40
  -7  -1  14  131.49   16.50
   6   1 -14   23.40    8.30
   6   1 -14   58.29   16.30
  -6  -1  14   46.50   11.40
  -6  -1  14   50.69   11.90
   5   1 -14   51.19   15.00
   5   1 -14   44.20   11.00
  -5  -1  14   26.40    9.40
  -5  -1  14   45.90   11.40
   4   1 -14  176.58   16.40
   4   1 -14  184.88   19.80
  -4  -1  14  171.68   16.80
  -4  -1  14  198.98   16.20
   3   1 -14  304.77   21.80
  -3  -1  14  306.17   21.80
  -3  -1  14  290.67   19.20
   2   1 -14   15.70    7.70
  -2  -1  14   14.20    7.40
  -2  -1  14   20.70    9.80
  -2  -1  14   38.20    9.50
   1   1 -14   94.89   12.70
  -1  -1  14   86.59   11.40
  -1  -1  14   69.79   11.30
  -1  -1  14   73.59   11.70
   0   1 -14    2.60    5.50
   0  -1  14    0.10    6.90
   0  -1  14   -0.80    5.60
   1  -1  14  135.39   11.90
   1  -1  14  166.18   16.10
   1  -1  14  147.19   15.80
   2  -1  14   15.30    8.00
   2  -1  14   19.30   10.80
   2  -1  14   37.40   13.70
   3  -1  14  316.47   26.20
   3  -1  14  315.97   24.10
   3  -1  14  312.77   19.30
  -4   1 -14    4.00   15.00
   4  -1  14    2.40    6.80
   4  -1  14   -1.30    6.60
  -5   1 -14  -14.70   13.10
   5  -1  14   15.30   11.20
   5  -1  14    8.50    7.90
  -6   1 -14    5.70   15.40
   6  -1  14    2.70    7.90
   6  -1  14   -3.90    8.40
  -7   1 -14   97.99   24.30
   7  -1  14  115.89   17.80
   7  -1  14  129.29   21.10
  -8   1 -14  -16.00   17.40
   8  -1  14    9.70    9.30
  -9   1 -14    9.30   18.50
   9  -1  14   10.90   10.70
  12   0 -14  139.89   24.60
 -12   0  14  105.89   20.70
 -11   0  14    0.50    7.80
 -11   0  14    3.70    9.90
 -10   0  14  308.27   25.80
 -10   0  14  312.17   26.00
   9   0 -14   14.30   14.30
  -9   0  14   12.90    9.30
  -9   0  14   23.70    9.80
  -8   0  14  327.57   24.80
  -8   0  14  303.67   23.70
   7   0 -14   94.39   18.80
  -7   0  14  128.39   15.80
  -7   0  14  122.09   15.20
   6   0 -14   10.40   10.40
  -6   0  14    8.90    7.10
  -6   0  14   16.30    8.30
   5   0 -14   96.49   13.50
   5   0 -14  107.79   16.20
  -5   0  14  122.89   14.70
  -5   0  14  123.39   12.90
   4   0 -14  747.23   39.50
  -4   0  14  735.33   39.70
  -4   0  14  746.83   34.80
   3   0 -14    5.30    5.80
   3   0 -14   10.20    9.00
  -3   0  14   -3.80    5.70
  -3   0  14    5.60    5.40
   2   0 -14   21.80    8.70
  -2   0  14   17.70    6.90
  -2   0  14   19.00    5.80
  -2   0  14   24.80    9.60
   1   0 -14    8.00    6.70
  -1   0  14   13.00    4.70
  -1   0  14    2.40    4.30
  -1   0  14    0.70    6.40
   0   0  14  202.18   12.30
   0   0  14  205.18   11.00
   0   0  14  210.18   18.50
   1   0  14   -1.00    4.10
   1   0  14    8.10    6.30
   1   0  14   -6.10    6.20
   2   0  14  294.87   23.10
   2   0  14  310.17   21.00
   2   0  14  300.07   16.30
   3   0  14   11.10    6.10
   3   0  14   17.20    8.60
   3   0  14   39.40   13.00
  -4   0 -14  181.18   22.90
   4   0  14  221.88   20.20
   4   0  14  188.48   15.70
  -5   0 -14  -13.00   13.00
   5   0  14    1.40    8.00
   5   0  14   11.20    9.80
  -6   0 -14   20.70   15.10
   6   0  14   19.50   11.50
   6   0  14    5.90    8.70
  -7   0 -14   19.00   17.10
   7   0  14   10.80   10.50
  -8   0 -14    0.50   16.40
   8   0  14  -11.70    8.20
   8   0  14    2.10   13.80
  12  -1 -14   40.30   16.10
 -12   1  14    7.00   10.80
 -11   1  14   35.30   13.70
 -11   1  14    0.50   10.30
 -10   1  14   84.19   17.60
 -10   1  14   63.69   16.10
   9  -1 -14  104.49   22.70
  -9   1  14  109.09   19.10
  -9   1  14   94.39   17.70
   8  -1 -14    6.00   11.00
  -8   1  14    9.80    9.40
  -8   1  14    1.30    7.40
   7  -1 -14    8.90   10.00
  -7   1  14   27.50   10.20
  -7   1  14   -1.40    7.40
   6  -1 -14   13.50   10.90
  -6   1  14   11.90    7.90
  -6   1  14   15.60    7.50
   5  -1 -14   32.40   11.70
  -5   1  14   31.30    9.90
  -5   1  14    7.60    6.30
   4  -1 -14   37.20   10.70
  -4   1  14   30.20    7.00
  -4   1  14   36.60   10.00
  -3   1  14   52.09   12.30
  -3   1  14   25.70    7.50
  -3   1  14   25.80    5.10
  -2   1  14   12.80    7.70
  -1   1  14  158.18   16.50
   0   1  14    6.60    6.60
   1   1  14  152.28   16.70
   2   1  14    1.00    6.00
   2   1  14   -2.00    4.20
   2   1  14    0.10    7.20
   3   1  14    3.00    6.00
   3   1  14   -1.00    7.60
   3   1  14    0.20    8.80
   4   1  14   10.90    9.80
   4   1  14   -1.80    7.50
  -5  -1 -14    2.10   14.30
   5   1  14    6.50    9.50
   5   1  14   -8.60    6.70
  -6  -1 -14    0.20   14.90
   6   1  14   23.20   10.90
   6   1  14    2.70   11.00
  -7  -1 -14   19.30   17.20
   7   1  14    2.60   13.40
   7   1  14   20.40   12.20
  -8  -1 -14   36.10   19.80
   8   1  14   19.70   11.70
   8   1  14   -2.20   15.30
  12  -2 -14   46.30   17.90
 -12   2  14   17.70   12.90
 -11   2  14    6.40   10.40
 -11   2  14   11.10    8.40
 -10   2  14   22.40    9.90
 -10   2  14   42.10   14.50
   9  -2 -14    4.70   11.50
  -9   2  14    0.30    6.80
  -9   2  14   10.50    9.90
   8  -2 -14   16.20   12.40
  -8   2  14   37.90   11.50
  -8   2  14   65.99   14.30
   7  -2 -14    1.20    8.40
  -7   2  14   12.60    8.70
  -7   2  14   -5.90    6.10
   6  -2 -14    6.60    8.80
  -6   2  14    4.50    7.00
  -6   2  14    8.60    7.40
   5  -2 -14   14.80    8.90
  -5   2  14   10.80    5.80
  -5   2  14    9.20    8.00
   4  -2 -14  443.56   24.00
  -4   2  14  460.95   21.10
  -4   2  14  481.75   30.20
  -3   2  14    2.50    6.00
  -2   2  14   90.19   13.50
  -1   2  14    0.00    6.00
   0   2  14  148.09   16.70
   1   2  14   -4.20    6.70
   2   2  14  136.99   16.90
   3   2  14    0.90    7.30
   4   2  14   43.90   10.00
   4   2  14   53.09   15.00
  -5  -2 -14   13.30   13.20
   5   2  14   19.40   10.00
   5   2  14    2.50   10.30
  -6  -2 -14   16.70   15.40
   6   2  14   28.30   13.70
   6   2  14   27.70   12.20
  -7  -2 -14   -2.20   15.30
   7   2  14   30.60   16.90
   7   2  14   32.70   13.10
  12  -3 -14   19.40   13.50
 -12   3  14   15.40   12.20
 -11   3  14   36.40   14.40
 -11   3  14   44.90   15.70
 -10   3  14    8.40   10.60
 -10   3  14    3.30    7.10
   9  -3 -14  146.19   21.20
  -9   3  14  172.68   20.20
  -9   3  14  184.28   19.20
   8  -3 -14   -0.70    9.40
  -8   3  14    0.80    7.80
  -8   3  14   -0.70    7.30
   7  -3 -14   -4.40    8.40
  -7   3  14    8.40    7.20
  -7   3  14   -3.00    6.90
   6  -3 -14    8.60    8.70
  -6   3  14    6.10    7.50
  -6   3  14   -1.90    6.40
   5  -3 -14  734.03   35.50
  -5   3  14  724.53   41.50
  -5   3  14  721.63   33.00
  -4   3  14   -6.20    6.00
  -3   3  14  195.18   19.40
  -2   3  14   14.70    8.80
  -1   3  14   52.99   12.40
   0   3  14    6.60    7.40
   1   3  14  194.78   19.70
   2   3  14   -0.30    7.50
   3   3  14    1.90   12.80
   4   3  14    0.80    8.20
  -5  -3 -14   50.29   14.30
   5   3  14   78.69   13.50
   5   3  14  110.59   17.40
  -6  -3 -14   17.60   14.10
   6   3  14    7.00   10.10
   6   3  14   15.30   12.50
  -7  -3 -14   21.30   16.30
   7   3  14   20.10   15.80
   7   3  14    2.70   10.60
 -11   4  14   36.30   14.70
 -11   4  14   11.00    9.50
  10  -4 -14   50.29   20.40
 -10   4  14   52.39   14.40
 -10   4  14   65.09   17.00
  -9   4  14    5.30    8.00
  -9   4  14   -2.70    8.30
   8  -4 -14  -10.70    8.20
  -8   4  14    8.10    9.00
  -8   4  14   10.00   10.00
   7  -4 -14   -0.90    8.80
  -7   4  14    9.70    8.70
  -7   4  14    1.70    7.70
   6  -4 -14  230.88   18.40
  -6   4  14  227.38   17.30
  -6   4  14  250.47   23.20
   5  -4 -14    5.20    5.70
  -5   4  14    2.40    7.20
  -4   4  14   -9.90    5.40
  -3   4  14   -7.80    5.60
  -2   4  14   14.60    9.30
  -1   4  14   -2.70    7.30
   0   4  14    6.70    8.30
   1   4  14   19.70   10.10
   2   4  14    1.30    8.80
   3   4  14   65.29   14.80
   4   4  14   39.50   13.00
   5   4  14   -5.10    7.70
   5   4  14    4.70    7.80
  -6  -4 -14   14.90   13.90
   6   4  14   13.40   11.80
  10  -5 -14   -1.90   11.30
 -10   5  14    8.30   11.10
 -10   5  14   -1.40    9.00
   9  -5 -14   91.59   23.60
  -9   5  14  136.59   18.10
  -9   5  14   90.79   18.80
   8  -5 -14    4.70    9.40
  -8   5  14   -2.70   14.30
  -8   5  14    0.20    6.40
   7  -5 -14   37.80   12.20
  -7   5  14   24.90   10.40
  -7   5  14   26.60   10.90
   6  -5 -14    4.70    7.10
  -6   5  14  -10.40    6.60
  -6   5  14    2.10    7.90
  -5   5  14  110.79   20.00
  -4   5  14   18.60    9.20
  -3   5  14   31.40   11.70
  -2   5  14   -3.00    8.20
  -1   5  14  102.89   19.40
   0   5  14   11.80    9.00
   1   5  14   74.69   15.30
   2   5  14   36.10   13.00
   3   5  14    0.70    8.10
   4   5  14   17.70   12.20
   5   5  14   41.30   14.90
  10  -6 -14  129.19   22.20
 -10   6  14  157.58   21.90
 -10   6  14  137.89   21.00
   9  -6 -14    0.60   10.90
  -9   6  14   -1.50    9.50
  -9   6  14    8.20    9.90
   8  -6 -14    8.70   10.60
  -8   6  14    7.90   12.30
  -8   6  14   -3.60    7.60
   7  -6 -14    9.20    8.80
  -7   6  14   24.30   11.50
  -7   6  14   26.80   11.50
   6  -6 -14  111.09   11.60
  -6   6  14  121.79   17.70
  -5   6  14   14.70    9.60
  -4   6  14   50.49   14.00
  -3   6  14   -4.40    8.20
  -2   6  14   42.60   12.70
  -1   6  14   51.29   14.50
   0   6  14  157.68   20.10
   1   6  14   61.29   16.00
   2   6  14    6.00   10.10
   3   6  14    2.30   10.70
   4   6  14   20.20   12.70
   8  -7 -14    5.20    9.80
  -8   7  14    4.80   11.10
  -8   7  14    6.50   10.80
  -7   7  14   -3.30    7.60
  -6   7  14   -1.70    8.60
  -5   7  14   27.30   11.40
  -4   7  14    1.10    8.60
  -3   7  14    2.70    9.10
  -2   7  14   28.40   11.60
  -1   7  14   52.39   14.60
   0   7  14    0.10    8.40
   1   7  14    7.60   11.10
   2   7  14   35.90   12.90
   7  -8 -14    6.70    8.60
   7  -8 -14   -4.50    8.90
  -7   8  14    2.70    8.20
  -6   8  14    5.60    9.70
  -5   8  14    5.50    8.80
  -4   8  14   26.30   12.00
  -3   8  14   14.90   11.40
  -2   8  14   18.60   11.50
  -1   8  14   17.70   11.10
   0   8  14   92.99   19.50
  -1 -14  15    7.70   26.80
  -1 -14  15   12.50    8.80
   0  14 -15   10.90   21.10
   0 -14  15  -10.80   22.90
   0 -14  15   -5.30    7.40
  -4 -13  15   17.60   23.20
  -3 -13  15   16.00    5.40
  -3 -13  15   32.60   27.30
   2  13 -15    3.30    9.00
  -2 -13  15   -7.10    5.50
  -2 -13  15   53.99   30.10
   1  13 -15   56.59   13.60
  -1 -13  15   45.50   10.50
  -1 -13  15   67.39   30.30
   0  13 -15   37.80   18.20
   0 -13  15   32.20   11.00
   0 -13  15   49.50   27.20
  -1  13 -15   28.40   14.40
   1 -13  15   66.79   29.10
   1 -13  15    8.50    9.70
   2 -13  15   45.70   27.20
   2 -13  15    1.60    9.60
   3 -13  15   30.60   25.40
   3 -13  15   -8.80    8.30
   4 -13  15   17.60   12.30
   4 -13  15   21.00   26.90
  -6 -12  15  169.08   36.30
  -5 -12  15   -3.10   22.10
  -4 -12  15   10.30    4.20
  -4 -12  15   -3.60   20.70
   3  12 -15    6.40   10.90
  -3 -12  15   16.90   23.10
  -3 -12  15    5.50    5.80
   2  12 -15  101.59   15.20
  -2 -12  15  103.49   13.00
  -2 -12  15   60.99   26.70
   1  12 -15   11.20   10.40
  -1 -12  15   23.60   21.30
  -1 -12  15   -1.50    7.20
   0  12 -15   -4.60   11.40
   0 -12  15   -5.30   21.70
   0 -12  15    3.60    7.90
  -1  12 -15   16.40   13.60
   1 -12  15   14.90   10.40
   1 -12  15   24.50   24.10
   2 -12  15   11.80   10.30
   2 -12  15  -11.00   21.20
   3 -12  15   -4.00   20.40
   3 -12  15    9.80   11.10
   4 -12  15   59.49   29.30
   4 -12  15   50.99   14.70
   5 -12  15    3.10   21.20
   5 -12  15    5.60   10.50
  -7 -11  15   29.10   23.40
  -6 -11  15   30.70   23.40
  -5 -11  15   22.40   22.70
  -5 -11  15    2.40    3.80
   4  11 -15    7.20    8.00
  -4 -11  15    1.60   19.50
  -4 -11  15   20.30    5.80
   3  11 -15   59.49   12.10
  -3 -11  15   59.29    9.50
  -3 -11  15   74.79   27.00
   2  11 -15    9.60    9.50
  -2 -11  15   16.50   20.20
  -2 -11  15    7.50    7.80
   1  11 -15   11.40   10.90
  -1 -11  15    1.00    6.90
  -1 -11  15   31.10   23.60
   0  11 -15   58.99   15.70
   0 -11  15   69.39   29.90
   0 -11  15   41.70   10.90
  -1  11 -15  151.68   21.80
   1 -11  15  178.88   18.40
   1 -11  15  197.38   39.50
   2 -11  15  101.89   16.30
   2 -11  15  139.29   33.50
   3 -11  15   14.40   10.30
   3 -11  15   47.80   28.90
   4 -11  15   69.99   18.10
   4 -11  15   53.49   28.80
   5 -11  15   12.80   21.30
   5 -11  15   -2.10    8.70
   6 -11  15    6.60   10.50
   6 -11  15   37.40   30.80
  -8 -10  15    5.90   20.30
  -7 -10  15    3.60   18.20
   6  10 -15   35.60    6.50
  -6 -10  15   28.30    5.50
  -6 -10  15   21.30   20.50
   5  10 -15   60.09   10.50
  -5 -10  15   78.39    9.10
  -5 -10  15   66.19   23.60
   4  10 -15    8.10    8.00
  -4 -10  15   24.60    7.00
  -4 -10  15    5.30   17.80
   3  10 -15   16.20    8.90
  -3 -10  15   21.00   26.10
  -3 -10  15    7.50    6.30
   2  10 -15   96.69   15.80
  -2 -10  15   98.29   12.70
  -2 -10  15   99.69   29.20
   1  10 -15  122.99   17.60
  -1 -10  15  146.69   31.90
  -1 -10  15  141.59   15.00
   0  10 -15   17.60   11.60
   0 -10  15   14.50    8.40
   0 -10  15    8.40   21.70
  -1  10 -15    9.60   11.20
   1 -10  15    5.50   19.60
   1 -10  15    3.60    7.80
   2 -10  15   35.70   10.80
   3 -10  15   29.30   27.40
   3 -10  15   46.30   12.50
   4 -10  15   27.90   24.40
   4 -10  15   16.80   12.40
   5 -10  15   20.80   10.90
   5 -10  15   10.20   20.90
   6 -10  15   -1.80    9.00
   6 -10  15  -11.70   21.00
   7 -10  15   -2.40   21.30
   7 -10  15    4.90   10.20
  -9  -9  15   36.40   22.20
   8   9 -15   18.00    6.10
   8   9 -15    2.90    4.60
  -8  -9  15   19.80   18.20
   7   9 -15  162.98   13.40
  -7  -9  15  170.18   28.60
   6   9 -15    1.80    9.60
  -6  -9  15   -4.20   16.60
  -6  -9  15    6.50    5.40
   5   9 -15    4.30    7.50
  -5  -9  15    4.30    5.90
   4   9 -15    1.50    8.00
  -4  -9  15    8.70    6.70
  -4  -9  15   -5.60   15.50
   3   9 -15   82.29   13.60
  -3  -9  15   56.09   11.90
  -3  -9  15   64.49   22.00
   2   9 -15   25.90   10.80
  -2  -9  15   31.40    8.70
  -2  -9  15   49.00   23.00
   1   9 -15   10.00    9.90
  -1  -9  15   30.10   19.50
  -1  -9  15   29.30    9.30
   0   9 -15    9.20    9.90
   0  -9  15   -7.00   14.90
   0  -9  15   -7.10    6.60
  -1   9 -15   53.69   15.00
   1  -9  15   28.60   19.50
   1  -9  15   14.60    8.70
   2  -9  15   80.69   28.60
   2  -9  15   43.60   11.90
   3  -9  15   35.50   24.50
   3  -9  15   21.10   10.00
   4  -9  15  -10.30   16.50
   4  -9  15   -1.20    8.40
   5  -9  15    1.40    8.60
   5  -9  15    3.60   16.70
   6  -9  15    5.50   10.10
   6  -9  15   31.50   27.80
   7  -9  15   -1.70   10.20
   7  -9  15   45.60   25.70
  -8   9 -15   -3.80   24.00
   8  -9  15   20.10   12.10
   8  -9  15   16.80   27.70
  10   8 -15    9.00    6.90
 -10  -8  15   -7.70   14.40
   9   8 -15   15.20    7.50
   9   8 -15   16.10    9.20
  -9  -8  15    9.90   16.10
   8   8 -15   89.49   12.30
  -8  -8  15  139.29   26.80
   7   8 -15   -6.50    6.70
  -7  -8  15    7.50    6.20
  -7  -8  15  -11.30   15.80
   6   8 -15   -0.90    6.80
  -6  -8  15   -3.60    5.30
  -6  -8  15   29.20   16.10
   5   8 -15  193.08   17.20
  -5  -8  15  219.98   15.80
  -5  -8  15  217.78   29.50
   4   8 -15   48.20   11.30
  -4  -8  15   42.30   18.30
  -4  -8  15   56.09   14.50
   3   8 -15   -5.50    7.50
  -3  -8  15  -20.50   11.20
  -3  -8  15    3.90    6.40
   2   8 -15   -2.50    8.10
  -2  -8  15   -9.90   13.00
  -2  -8  15   -8.00    4.70
   1   8 -15  133.89   16.90
  -1  -8  15  100.19   13.30
  -1  -8  15  154.08   31.70
   0   8 -15   11.00   10.00
   0  -8  15    1.70    7.60
   0  -8  15    6.10   18.00
  -1   8 -15  147.99   19.50
   1  -8  15  163.98   17.10
   1  -8  15  161.78   31.50
   2  -8  15   11.00   19.20
   2  -8  15   -1.20    7.90
   3  -8  15   24.30   10.80
   3  -8  15   55.59   22.80
   4  -8  15    7.50    8.20
   4  -8  15    6.10   18.90
   5  -8  15   56.39   27.30
   5  -8  15   48.40   13.80
   6  -8  15   51.89   26.80
  -7   8 -15   33.00   27.10
   7  -8  15   24.60   22.40
   7  -8  15   -1.20   10.50
  -8   8 -15   -0.50   24.80
   8  -8  15    2.80    9.20
  11   7 -15   58.19   19.30
  11   7 -15   28.50    9.30
 -11  -7  15   54.69   20.30
  10   7 -15   43.90    9.80
  10   7 -15   61.59   12.20
 -10  -7  15   56.99   22.70
   9   7 -15   20.20    8.50
   9   7 -15   23.30    8.40
  -9  -7  15   17.50   15.90
   8   7 -15   11.70    7.40
  -8  -7  15    5.90    7.50
  -8  -7  15   14.80   17.80
   7   7 -15   33.90    9.40
  -7  -7  15   78.19   11.90
  -7  -7  15   23.90   15.90
   6   7 -15   89.79   12.60
  -6  -7  15  125.19   25.70
   5   7 -15   26.90    8.80
  -5  -7  15   34.20   17.20
  -5  -7  15    7.00    7.00
   4   7 -15   49.40   11.50
  -4  -7  15   43.10   18.60
  -4  -7  15   42.60    9.90
   3   7 -15   87.99   13.40
   3   7 -15   52.09   20.60
  -3  -7  15   92.19   12.00
  -3  -7  15   94.29   21.90
   2   7 -15   80.09   14.00
  -2  -7  15   78.19   11.60
  -2  -7  15   60.59   23.90
  -2  -7  15   75.39   23.00
   1   7 -15   -2.80   11.70
  -1  -7  15   10.00    7.80
  -1  -7  15   -6.70   13.50
  -1  -7  15   17.90   16.70
   0   7 -15  214.58   20.90
   0  -7  15  233.48   30.60
   0  -7  15  263.17   20.50
   0  -7  15  236.38   30.60
  -1   7 -15    6.80    9.40
   1  -7  15   11.00   15.70
   1  -7  15    2.50   14.50
   1  -7  15    3.40    7.50
   2  -7  15   11.70    8.20
   2  -7  15   32.00   20.40
   2  -7  15   26.90   16.20
   3  -7  15    6.50   16.90
   3  -7  15   -2.80    7.80
   4  -7  15   73.39   24.80
   4  -7  15   33.20   12.00
   5  -7  15    3.30   10.80
   5  -7  15   50.89   22.60
   6  -7  15   30.40   22.70
   6  -7  15   -2.60    9.40
  -7   7 -15   -6.20   23.60
   7  -7  15   -5.70    8.40
  -8   7 -15    7.20   23.90
   8  -7  15   28.40   12.70
  11   6 -15   13.30   10.80
  11   6 -15   17.10    9.70
 -11  -6  15    0.50   12.30
  10   6 -15    1.30    8.40
  10   6 -15    9.10    8.10
 -10  -6  15   -1.80   12.10
   9   6 -15   -1.00    6.60
  -9  -6  15   -9.00    5.40
  -9  -6  15    2.90   11.70
   8   6 -15   35.00    9.40
  -8  -6  15   63.59   18.70
  -8  -6  15   55.89   10.40
   7   6 -15   25.80    8.60
  -7  -6  15   21.80    8.10
  -7  -6  15    2.60   12.40
   6   6 -15   61.19   11.70
  -6  -6  15   43.70    9.50
  -6  -6  15   50.29   16.20
   5   6 -15   25.40    8.40
   5   6 -15   11.00   20.00
  -5  -6  15   29.70    8.80
  -5  -6  15   31.80   15.80
   4   6 -15   35.10   17.60
   4   6 -15   51.89   11.10
  -4  -6  15   36.80   15.90
  -4  -6  15   21.60    8.50
   3   6 -15   22.30   18.90
   3   6 -15   54.59   11.60
  -3  -6  15   63.99   18.60
  -3  -6  15   50.29   10.30
   2   6 -15   20.60    8.70
  -2  -6  15    2.20   12.30
  -2  -6  15   -6.70   12.80
  -2  -6  15   15.40    7.60
   1   6 -15    4.70    7.40
  -1  -6  15   13.60   14.50
  -1  -6  15   -5.40    5.90
   0   6 -15   -1.80    6.90
   0  -6  15   -4.90    5.60
   0  -6  15  -13.30   13.20
  -1   6 -15    9.80    8.40
   1  -6  15    9.00   15.50
   1  -6  15   16.30    9.30
   1  -6  15   -0.60   13.80
   2  -6  15   46.40   20.00
   2  -6  15   41.40   10.70
   2  -6  15   10.70   12.90
   3  -6  15   24.70   14.20
   3  -6  15   28.80   10.00
   3  -6  15   50.09   21.10
   4  -6  15   -8.20    6.80
   4  -6  15   11.80   12.70
   4  -6  15    5.30   16.90
   5  -6  15   66.29   25.10
   5  -6  15   21.20   10.80
  -6   6 -15  -25.30   16.80
   6  -6  15   11.70   10.80
  -7   6 -15   37.30   26.20
   7  -6  15   34.80   14.60
  -8   6 -15   28.10   27.80
   8  -6  15    5.90   10.20
  11   5 -15   15.00    9.10
  11   5 -15   16.20   10.80
 -11  -5  15    4.30   12.70
  10   5 -15   10.50   10.00
  10   5 -15   17.10    9.10
 -10  -5  15   33.10   14.70
   9   5 -15   14.00   12.50
  -9  -5  15   15.60    8.50
   8   5 -15    0.70    6.90
  -8  -5  15   -5.20    6.20
  -8  -5  15    9.10   11.90
   7   5 -15   17.30    7.60
  -7  -5  15    1.40   12.20
  -7  -5  15    2.80    6.50
   6   5 -15  197.48   17.40
   6   5 -15  216.98   30.30
  -6  -5  15  224.08   18.10
  -6  -5  15  245.78   24.50
   5   5 -15   19.00   16.10
   5   5 -15   14.40    7.70
  -5  -5  15   12.00    7.40
  -5  -5  15   -0.30   11.60
   4   5 -15   34.60   29.40
   4   5 -15   32.50    9.50
  -4  -5  15   37.60   14.30
  -4  -5  15   17.30    8.50
   3   5 -15   39.90   18.60
   3   5 -15   16.70    8.40
  -3  -5  15   33.80    8.90
  -3  -5  15   38.10   14.50
   2   5 -15  182.28   23.10
  -2  -5  15  159.98   25.90
  -2  -5  15  206.78   17.30
  -2  -5  15  229.68   24.80
   1   5 -15   -2.30    6.90
  -1  -5  15    2.20   13.20
  -1  -5  15   10.20    6.90
  -1  -5  15   -6.60   11.10
   0   5 -15   81.19   14.40
   0  -5  15  105.09   23.20
   0  -5  15   89.69   13.00
   0  -5  15   48.30   17.40
  -1   5 -15    5.50    7.90
   1  -5  15    0.70   14.20
   1  -5  15   13.40    7.70
   1  -5  15   16.10   13.50
   2  -5  15   10.70   11.70
   2  -5  15    6.10    7.50
   2  -5  15   -7.50   11.80
   3  -5  15    2.30   15.10
   3  -5  15   21.90    9.10
   4  -5  15  148.59   18.30
   4  -5  15  184.68   29.60
   4  -5  15  133.49   19.60
   5  -5  15   10.10   10.90
   5  -5  15   -4.70   16.10
   5  -5  15    2.10    9.80
  -6   5 -15  245.38   36.50
   6  -5  15  268.37   25.10
  -7   5 -15  -23.90   18.30
   7  -5  15  -11.80    6.30
  -8   5 -15   24.80   29.00
   8  -5  15   48.90   16.20
  12   4 -15   37.90   14.70
 -12  -4  15   30.90   15.70
  11   4 -15   32.50   12.50
 -11  -4  15   13.40   12.70
  10   4 -15   -5.10    7.20
 -10  -4  15    6.90   12.20
 -10  -4  15    2.60    6.50
   9   4 -15    6.90    7.50
  -9  -4  15   10.50   11.90
  -9  -4  15    9.80    8.10
   8   4 -15    9.40    7.60
  -8  -4  15   10.30   11.50
  -8  -4  15   26.70    8.80
   7   4 -15  201.48   19.20
   7   4 -15  213.38   33.10
  -7  -4  15  219.88   23.00
  -7  -4  15  223.18   18.70
   6   4 -15   42.00   14.50
   6   4 -15    5.50   14.70
  -6  -4  15   30.80    8.70
  -6  -4  15    8.40   11.30
   5   4 -15   82.39   25.90
   5   4 -15   65.99   14.60
  -5  -4  15   70.89   15.90
  -5  -4  15   93.39   12.90
   4   4 -15    6.60   12.60
   4   4 -15    2.10    9.30
  -4  -4  15   13.30    7.20
  -4  -4  15   12.80   10.70
   3   4 -15   58.89   12.20
   3   4 -15   46.40   16.90
  -3  -4  15   86.89   17.10
  -3  -4  15   53.09   10.80
   2   4 -15   40.30    9.50
  -2  -4  15   23.00    8.20
  -2  -4  15   60.49   14.90
  -2  -4  15   42.70   16.10
   1   4 -15  169.78   17.30
  -1  -4  15  180.68   40.00
  -1  -4  15  219.98   18.10
  -1  -4  15  229.08   24.80
   0   4 -15   -1.70    6.10
   0  -4  15   11.00   21.50
   0  -4  15   -6.10    5.70
   0  -4  15   23.90   13.30
   1  -4  15   66.49   19.70
   1  -4  15   65.29   12.90
   1  -4  15   80.19   17.80
   2  -4  15   12.70   10.80
   2  -4  15   29.60   16.30
   2  -4  15    9.70    8.30
   3  -4  15  353.86   26.30
   3  -4  15  381.96   33.90
   3  -4  15  329.77   25.60
   4  -4  15    6.20   16.20
   4  -4  15    9.80    9.10
   4  -4  15    1.80    8.80
  -5   4 -15  169.68   32.10
   5  -4  15  123.99   17.60
   5  -4  15  132.89   18.50
  -6   4 -15   15.40   19.10
   6  -4  15    1.50    8.30
   6  -4  15   16.70   13.70
  -7   4 -15  120.59   31.00
   7  -4  15   38.40   13.60
  -8   4 -15   -4.70   21.90
   8  -4  15   -4.70   10.10
  12   3 -15   -1.70   10.10
 -12  -3  15   35.50   15.40
  11   3 -15   -3.30    9.60
 -11  -3  15   -8.30    8.80
 -10  -3  15    4.90    8.60
 -10  -3  15    6.10   11.90
   9   3 -15  214.88   22.60
  -9  -3  15  156.68   17.60
  -9  -3  15  158.98   20.90
   8   3 -15   25.70    9.20
  -8  -3  15   34.90   10.20
  -8  -3  15   54.89   15.50
   7   3 -15   23.60    8.90
   7   3 -15   19.40   15.40
  -7  -3  15   28.20    9.50
  -7  -3  15   19.30   11.30
   6   3 -15   38.90   22.10
   6   3 -15   41.20   10.50
  -6  -3  15   70.19   13.00
  -6  -3  15   89.19   15.30
   5   3 -15   34.70    9.40
   5   3 -15   15.80   12.60
  -5  -3  15   23.70    8.60
  -5  -3  15   33.30   11.60
   4   3 -15    7.90   12.20
   4   3 -15   -4.30    5.40
  -4  -3  15    8.50    7.80
  -4  -3  15    3.20    8.40
   3   3 -15   29.90    9.80
   3   3 -15   37.50   14.80
  -3  -3  15   59.19   13.50
  -3  -3  15   38.40   10.00
   2   3 -15  124.89   14.90
  -2  -3  15  205.58   19.40
  -2  -3  15  170.48   21.40
  -2  -3  15  129.99   14.80
   1   3 -15    8.10    6.80
  -1  -3  15   11.00   10.30
  -1  -3  15   14.50    7.40
  -1  -3  15    3.20   10.40
   0   3 -15   92.09   14.90
   0  -3  15  130.49   21.40
   0  -3  15   70.49   14.60
   0  -3  15   84.89   13.00
   1  -3  15    6.40    9.50
   1  -3  15   -6.00    6.30
   1  -3  15    0.80    9.80
   2  -3  15   18.80    9.10
   2  -3  15   54.59   12.80
   2  -3  15   43.60   16.00
   3  -3  15   -1.50    7.10
   3  -3  15  -15.80   12.40
   3  -3  15   10.60    8.70
   4  -3  15   -2.30    7.70
   4  -3  15   -1.70    7.20
   4  -3  15    2.20   13.90
  -5   3 -15   11.00   17.60
   5  -3  15    2.90   10.00
   5  -3  15  -11.20    6.90
  -6   3 -15  -11.70   16.30
   6  -3  15   46.70   13.80
   6  -3  15    5.00    9.70
  -7   3 -15  -17.00   19.00
   7  -3  15    8.40   10.20
  -8   3 -15    1.00   19.10
   8  -3  15   -8.60    8.40
 -12  -2  15    9.60   11.80
 -11  -2  15   48.70   16.10
 -10  -2  15   31.60   13.60
 -10  -2  15   32.10   11.60
  -9  -2  15   11.40   10.70
  -9  -2  15   -2.70    6.90
   8   2 -15  -20.70   10.90
  -8  -2  15    3.00    9.40
  -8  -2  15   12.10    8.00
   7   2 -15   43.10   11.00
   7   2 -15   46.40   20.70
  -7  -2  15   39.00   10.40
  -7  -2  15   57.79   14.00
   6   2 -15    4.20    6.70
   6   2 -15   27.40   13.80
  -6  -2  15    9.10    7.80
  -6  -2  15   34.00   11.70
   5   2 -15  109.79   21.40
   5   2 -15  100.89   13.50
  -5  -2  15  131.39   15.10
  -5  -2  15   98.79   14.60
   4   2 -15   -1.10   11.20
   4   2 -15   11.70    8.20
  -4  -2  15  -15.30    7.10
  -4  -2  15    5.20    6.50
   3   2 -15  109.69   18.30
   3   2 -15   74.39   12.30
  -3  -2  15  100.09   15.90
  -3  -2  15   81.69   13.40
   2   2 -15    1.80    5.70
  -2  -2  15   -5.20    7.40
  -2  -2  15   -1.90    5.70
  -2  -2  15   -7.40    9.20
   1   2 -15  498.55   29.60
  -1  -2  15  364.16   26.20
  -1  -2  15  422.76   27.50
  -1  -2  15  436.56   26.70
   0  -2  15   -7.20    7.90
   0  -2  15   11.90    7.40
   0  -2  15    2.90    7.70
   1  -2  15    8.30    9.70
   1  -2  15    0.90    6.90
   1  -2  15    0.00    6.60
   2  -2  15    6.60    6.90
   2  -2  15    2.00    6.40
   2  -2  15    4.40   10.90
   3  -2  15  177.48   18.70
   3  -2  15  175.68   23.00
   3  -2  15  143.69   14.50
   4  -2  15    2.40    7.20
   4  -2  15   -7.20    7.20
  -5   2 -15   63.99   21.00
   5  -2  15   68.69   15.90
   5  -2  15   75.39   14.10
  -6   2 -15  -11.00   16.20
   6  -2  15   -8.30    8.80
   6  -2  15   11.40    9.90
  -7   2 -15    4.30   19.00
   7  -2  15   -1.50    9.10
   7  -2  15   14.20   11.70
  -8   2 -15    3.30   18.40
   8  -2  15    9.50   10.40
  12   1 -15   57.79   17.40
 -12  -1  15   53.09   16.40
 -11  -1  15   12.70   19.70
 -11  -1  15    3.20    9.30
 -10  -1  15   52.59   14.00
 -10  -1  15   27.70   12.40
  -9  -1  15   -0.90    8.70
  -9  -1  15    1.30    7.60
   8   1 -15   19.30   14.60
  -8  -1  15   16.70   10.10
  -8  -1  15   10.30    8.00
   7   1 -15   10.60   13.20
  -7  -1  15    9.40    8.30
  -7  -1  15   15.60    9.60
   6   1 -15  497.05   36.00
  -6  -1  15  487.75   29.80
  -6  -1  15  552.24   32.50
   5   1 -15   32.80   14.10
  -5  -1  15   18.80    9.40
  -5  -1  15   15.70    8.00
   4   1 -15  583.04   35.50
   4   1 -15  568.74   35.10
  -4  -1  15  548.35   29.40
  -4  -1  15  512.45   32.00
   3   1 -15   17.30   13.40
   3   1 -15   11.30    7.80
  -3  -1  15   18.30    7.60
  -3  -1  15   14.50    8.60
  -2  -1  15  235.38   20.20
  -2  -1  15  247.68   19.80
  -2  -1  15  289.87   17.90
  -1  -1  15   37.60    8.40
  -1  -1  15   50.99   11.80
  -1  -1  15   46.20    9.30
   0  -1  15   85.59   10.30
   0  -1  15   77.09   11.60
   0  -1  15   94.89   16.80
   1  -1  15    4.70    5.80
   1  -1  15    1.80    6.80
   1  -1  15   -6.50    6.80
   2  -1  15  517.05   32.70
   2  -1  15  542.55   32.20
   3  -1  15   11.60   11.10
   3  -1  15   18.10    8.80
   3  -1  15    9.80    7.10
   4  -1  15  119.99   22.40
   4  -1  15   62.39   10.90
   4  -1  15   62.29   20.90
  -5   1 -15  -11.40   14.50
   5  -1  15   13.30   10.20
   5  -1  15   -9.30    7.40
  -6   1 -15   26.30   19.50
   6  -1  15   29.20   12.10
   6  -1  15   14.10   11.50
  -7   1 -15   16.90   18.40
   7  -1  15   -2.90   11.30
   7  -1  15    5.60   10.00
  -8   1 -15  126.49   31.50
   8  -1  15   97.69   21.00
  12   0 -15   10.20   11.00
 -12   0  15   -5.10    8.90
 -11   0  15   52.89   13.40
 -11   0  15   59.69   16.20
 -10   0  15   10.90   10.70
 -10   0  15   23.80   12.00
   9   0 -15  154.08   28.10
  -9   0  15  103.19   18.30
  -9   0  15  146.49   18.10
  -8   0  15   19.60    9.70
  -8   0  15    2.00    7.00
   7   0 -15    8.60   11.50
  -7   0  15   16.10    9.60
  -7   0  15    2.80    7.10
   6   0 -15   -8.00    9.20
  -6   0  15   -6.20    5.30
  -6   0  15    5.70    6.90
   5   0 -15   29.10   13.70
  -5   0  15   72.69   14.30
  -5   0  15   66.59   11.40
  -4   0  15   -1.20    6.60
  -4   0  15    8.90    6.10
  -3   0  15  164.48   16.70
  -3   0  15  126.59   11.10
  -3   0  15  113.59   14.10
  -2   0  15    5.50    4.70
  -2   0  15   -1.70    6.70
  -2   0  15   -6.80    4.90
  -1   0  15    3.90    7.30
  -1   0  15   16.30    4.60
  -1   0  15   18.70    4.90
   0   0  15   21.40    4.20
   0   0  15   26.90    5.40
   0   0  15   11.00    8.20
   1   0  15  155.28    9.40
   1   0  15  140.79   11.50
   1   0  15  146.49   17.00
   2   0  15    6.10    5.30
   2   0  15   -2.60    8.00
   2   0  15   -2.50    7.10
   3   0  15    0.90    5.80
   3   0  15    0.80    7.10
   3   0  15   -8.30    8.50
   4   0  15    6.70    7.90
   4   0  15   -1.20    6.70
   4   0  15   -3.10   12.30
  -5   0 -15   41.00   17.30
   5   0  15   50.79   14.40
   5   0  15   37.10   11.50
  -6   0 -15    7.90   16.30
   6   0  15   -6.70    9.90
   6   0  15    2.10    8.40
  -7   0 -15    2.30   17.80
   7   0  15   -9.90    8.40
  -8   0 -15   10.00   20.30
   8   0  15    1.80   16.00
   8   0  15   12.30   12.20
  12  -1 -15   18.20   13.30
 -12   1  15    5.90   11.10
 -11   1  15   -9.90    7.90
 -11   1  15   -7.40    7.10
 -10   1  15   88.99   18.20
 -10   1  15   92.19   18.50
   9  -1 -15   22.70   15.40
  -9   1  15   39.10   13.30
  -9   1  15   28.40   10.80
   8  -1 -15    9.60   12.00
  -8   1  15   13.00    8.70
  -8   1  15   -1.80    7.30
   7  -1 -15    5.50   11.70
  -7   1  15   -2.00    6.30
  -7   1  15    3.10    7.30
   6  -1 -15   79.19   16.80
  -6   1  15   61.29   13.80
  -6   1  15   65.79   11.80
  -5   1  15   35.00   10.60
  -5   1  15   19.50    6.60
   4  -1 -15    0.60    8.00
  -4   1  15   10.60    5.20
  -4   1  15   23.10   10.00
  -3   1  15   -1.50    3.80
  -3   1  15   -1.00    6.50
  -3   1  15    3.80    3.40
  -2   1  15   31.20    9.90
  -1   1  15   -6.30    6.30
   0   1  15   -2.90    6.60
   1   1  15   -9.50    4.70
   2   1  15   60.59   15.40
   3   1  15   -1.40    6.80
   3   1  15    9.00   10.80
   3   1  15    5.10    5.80
   4   1  15   35.50   12.90
   4   1  15   36.10   13.40
   4   1  15   31.30    9.90
  -5  -1 -15    0.70   14.70
   5   1  15   16.00   11.20
   5   1  15    3.70    9.90
   6   1  15   34.10   12.60
   6   1  15   19.80   12.80
  -7  -1 -15  -13.20   16.00
   7   1  15    2.20   13.90
   7   1  15   12.40   10.60
 -11   2  15   37.00   14.50
 -11   2  15   14.00   10.70
 -10   2  15    0.30    8.60
 -10   2  15    2.00    9.00
   9  -2 -15   12.50   13.80
  -9   2  15    2.60    8.20
  -9   2  15    1.70    8.30
   8  -2 -15   10.70   11.10
  -8   2  15    1.00    7.40
  -8   2  15   -0.50    7.20
   7  -2 -15  225.48   22.20
  -7   2  15  231.88   18.20
  -7   2  15  183.88   28.60
   6  -2 -15    1.10    8.30
  -6   2  15   -4.90    5.40
  -6   2  15   16.30    8.70
   5  -2 -15    7.40    8.50
  -5   2  15   -5.50    5.50
  -5   2  15    4.50    5.50
  -4   2  15   -0.60    6.20
  -3   2  15  299.37   23.60
  -2   2  15   11.60    7.80
  -1   2  15  141.99   16.90
   0   2  15    0.00    7.10
   1   2  15  248.78   21.90
   2   2  15   27.80   14.40
   3   2  15  121.49   17.30
   4   2  15   14.60    7.00
   4   2  15   16.50    9.20
   4   2  15   12.30    8.20
   5   2  15   25.50   11.30
   5   2  15    6.20   11.50
  -6  -2 -15    8.50   15.00
   6   2  15   22.50   11.70
   6   2  15   20.80   12.90
 -11   3  15    7.10    9.80
 -11   3  15   -7.90    8.20
 -10   3  15    3.10    9.00
 -10   3  15   -4.10    8.80
   9  -3 -15   -0.30   12.70
  -9   3  15   -5.70    6.30
  -9   3  15   10.10    9.60
   8  -3 -15   95.09   18.40
  -8   3  15   99.69   18.30
  -8   3  15   80.39   13.70
   7  -3 -15   -3.70    9.20
  -7   3  15   -6.70    5.80
  -7   3  15   10.00    7.90
   6  -3 -15   25.90   13.70
  -6   3  15   20.20    8.00
  -6   3  15   18.10   10.00
   5  -3 -15    0.60    6.00
  -5   3  15    3.60    4.70
  -4   3  15  202.88   20.20
  -3   3  15   -1.70    6.30
  -2   3  15   -1.40    6.40
  -1   3  15   -0.60    7.10
   0   3  15  103.19   25.20
   1   3  15   14.20    9.10
   2   3  15    7.70    9.40
   3   3  15   -3.00    7.00
   4   3  15    7.50    9.60
   5   3  15   23.30   12.00
   5   3  15   34.60    9.50
  -6  -3 -15    5.90   14.20
   6   3  15   17.90   12.30
  10  -4 -15    9.00   13.90
 -10   4  15   -1.10    7.50
 -10   4  15    5.40   10.00
   9  -4 -15   20.80   16.20
  -9   4  15   21.50   10.70
  -9   4  15   11.20   10.50
   8  -4 -15    4.90   10.80
  -8   4  15   13.10    9.50
   7  -4 -15  165.28   18.10
  -7   4  15  183.98   20.70
  -7   4  15  151.18   15.30
   6  -4 -15   -3.50    6.60
  -6   4  15    4.90    6.10
  -6   4  15   -3.00    7.40
  -5   4  15  117.49   16.90
  -4   4  15   11.30    9.50
  -3   4  15  191.18   19.90
  -2   4  15    5.20    9.00
  -1   4  15   18.40   10.20
   0   4  15   10.50    8.30
   1   4  15   19.60   11.10
   2   4  15   16.00   10.30
   3   4  15   13.80   10.80
   4   4  15   39.80   13.40
   5   4  15   15.90   11.40
  10  -5 -15    8.00   13.70
 -10   5  15    7.00    9.40
 -10   5  15   10.80   11.40
   9  -5 -15    1.40   11.20
  -9   5  15   10.70   10.70
  -9   5  15    2.70    8.40
   8  -5 -15  317.37   25.50
  -8   5  15  315.57   28.10
  -8   5  15  279.67   23.10
   7  -5 -15    6.40   14.20
  -7   5  15    0.70    7.50
  -7   5  15    5.50    8.30
   6  -5 -15    1.60    5.90
  -6   5  15   16.10    9.70
  -5   5  15   -1.80    6.70
  -4   5  15   15.80   10.20
  -3   5  15   23.50   10.80
  -2   5  15  136.99   18.50
  -1   5  15   -0.10    7.90
   0   5  15   96.79   19.20
   1   5  15   23.30   12.00
   2   5  15   66.89   15.90
   3   5  15   38.50   13.80
   4   5  15   43.50   15.20
   9  -6 -15  129.69   21.90
  -9   6  15  110.19   20.50
  -9   6  15   72.49   18.50
   8  -6 -15    3.70   10.00
  -8   6  15   14.40   11.90
  -8   6  15   11.00    9.10
   7  -6 -15   10.80    8.90
  -7   6  15   17.00   11.00
  -6   6  15    2.90    8.60
  -5   6  15   81.99   18.70
  -4   6  15   -2.10    8.40
  -3   6  15    6.40    9.00
  -2   6  15   16.10    9.70
  -1   6  15   52.49   15.00
   0   6  15   65.69   16.60
   1   6  15   79.49   17.30
   2   6  15   17.40   12.60
   3   6  15   16.00   13.40
   7  -7 -15   -0.50    6.60
   7  -7 -15    9.40    8.30
  -7   7  15   -4.90    7.70
  -6   7  15   18.70   11.60
  -5   7  15    5.10   10.00
  -4   7  15    8.40   10.00
  -3   7  15    6.60    8.80
  -2   7  15   32.40   13.50
  -1   7  15   16.20    9.80
   0   7  15   10.40   12.50
   1   7  15   18.60   12.50
  -3 -13  16   -2.50   22.00
  -3 -13  16    1.60    6.00
   2  13 -16   -3.10    9.60
  -2 -13  16   27.90   27.90
  -2 -13  16   25.00   14.60
   1  13 -16   -4.70   11.10
  -1 -13  16    9.80    8.70
  -1 -13  16    1.50   23.60
   0  13 -16   35.30   15.50
   0 -13  16   45.40   27.60
   0 -13  16   43.40   12.10
   1 -13  16    3.20    9.10
   1 -13  16  -21.90   23.40
   2 -13  16   32.10   12.80
   2 -13  16  -32.60   20.00
  -5 -12  16  146.09   33.90
   4  12 -16   11.10    7.50
  -4 -12  16   11.10    5.40
  -4 -12  16   13.70   20.40
   3  12 -16   41.40   11.10
  -3 -12  16   43.20    9.00
  -3 -12  16   50.49   25.70
   2  12 -16   22.60   12.10
  -2 -12  16    2.70   20.60
  -2 -12  16   20.10    8.00
   1  12 -16   32.60   14.60
  -1 -12  16   52.29   27.90
  -1 -12  16   45.30   10.60
   0  12 -16    7.20   12.10
   0 -12  16    7.50    9.10
   0 -12  16    8.20   23.40
   1 -12  16  -15.50   20.40
   1 -12  16    5.50    9.10
   2 -12  16   23.60   11.70
   2 -12  16   30.70   25.00
   3 -12  16    4.00   25.20
   3 -12  16   -5.40   12.20
   4 -12  16   66.19   30.00
   4 -12  16   39.50   14.40
  -7 -11  16   46.90   23.80
  -6 -11  16    4.90   18.20
   5  11 -16   -3.10    6.40
  -5 -11  16   31.40   22.20
   4  11 -16    5.40    8.40
  -4 -11  16    7.60    6.10
  -4 -11  16    7.30   20.90
   3  11 -16   80.59   13.90
  -3 -11  16   48.10   23.40
   2  11 -16   12.70   10.40
  -2 -11  16    0.80    7.30
  -2 -11  16   23.80   26.20
   1  11 -16   -2.70   15.40
  -1 -11  16    0.10   19.70
  -1 -11  16   -1.80    7.60
   0  11 -16    3.90   11.10
   0 -11  16   -8.30   17.70
   0 -11  16    7.70    8.90
   1 -11  16   80.89   14.70
   1 -11  16   86.39   31.60
   2 -11  16  108.39   16.80
   2 -11  16   64.09   26.20
   3 -11  16   24.40   14.10
   3 -11  16   86.59   32.80
   4 -11  16   51.99   14.70
   4 -11  16   34.10   23.70
   5 -11  16   13.30   24.70
   5 -11  16    1.60    9.50
  -8 -10  16    8.20   18.20
   7  10 -16   32.80    6.50
  -7 -10  16   16.60   17.20
   6  10 -16   -5.70    7.10
  -6 -10  16   -0.90   15.70
  -6 -10  16    5.30    5.50
   5  10 -16   10.10    8.40
   5  10 -16   10.50    8.30
  -5 -10  16   17.30   18.10
  -5 -10  16   22.60    7.10
   4  10 -16   18.30    9.50
   4  10 -16   18.70    9.50
  -4 -10  16   34.40   25.00
  -4 -10  16   31.10    8.60
   3  10 -16   40.00   12.20
   3  10 -16   39.40   12.20
  -3 -10  16   38.30    9.60
  -3 -10  16   31.50   20.90
   2  10 -16    2.80    9.90
  -2 -10  16   12.60   20.10
  -2 -10  16   -1.40    6.50
   1  10 -16  151.28   20.70
  -1 -10  16  157.88   16.50
   0  10 -16   72.29   15.90
   0 -10  16  105.29   15.50
   1 -10  16   -1.80    8.20
   1 -10  16  -21.80   22.10
   2 -10  16   -0.70    8.40
   2 -10  16   -5.10   19.40
   3 -10  16   23.10   23.60
   3 -10  16   -6.00    8.90
   4 -10  16  -11.40   19.40
   4 -10  16   25.80   11.60
   5 -10  16   52.59   27.10
   5 -10  16   47.50   14.50
   6 -10  16   11.20   25.50
   6 -10  16   12.00   10.80
   9   9 -16    1.10    5.70
   9   9 -16    3.30    5.90
  -9  -9  16   -1.30   17.70
   8   9 -16   20.10    9.00
  -8  -9  16   34.20   20.00
   7   9 -16    1.30    7.40
  -7  -9  16   -4.10   15.10
  -7  -9  16    0.70    5.80
   6   9 -16   52.19   11.50
  -6  -9  16   44.40   20.80
  -6  -9  16   43.50    8.90
   5   9 -16   10.10    8.90
  -5  -9  16   -0.30    5.80
  -5  -9  16   12.90   19.60
   4   9 -16   11.60    9.80
  -4  -9  16    9.80    6.90
  -4  -9  16    7.10   21.60
   3   9 -16   54.79   12.90
  -3  -9  16   38.50   10.30
  -3  -9  16   53.39   22.90
   2   9 -16   26.10   11.60
  -2  -9  16   45.20   10.80
  -2  -9  16   17.20   17.50
   1   9 -16   11.90   10.70
  -1  -9  16   -2.20    7.70
  -1  -9  16  -21.50   15.10
   0   9 -16   31.30   12.80
   0  -9  16   31.60   10.10
   0  -9  16   25.50   23.10
   1  -9  16   38.30   22.30
   1  -9  16   50.09   12.40
   2  -9  16   59.19   13.30
   2  -9  16   31.90   22.00
   3  -9  16   34.00   25.80
   3  -9  16   67.99   15.10
   4  -9  16  -21.40   18.80
   4  -9  16   -4.50    8.20
   5  -9  16   31.30   13.20
   5  -9  16   70.59   29.20
   6  -9  16    3.60   10.40
   6  -9  16   19.60   22.70
   7  -9  16   59.89   29.00
   7  -9  16   30.60   14.80
 -10  -8  16   29.50   17.40
   9   8 -16   13.60    8.30
   9   8 -16   30.00    9.20
  -9  -8  16   23.50   18.20
   8   8 -16   17.10    8.90
  -8  -8  16   22.30    8.30
  -8  -8  16   25.70   17.40
   7   8 -16    7.80    8.00
  -7  -8  16   -5.70   14.20
  -7  -8  16   15.50    7.60
   6   8 -16    9.10    8.10
  -6  -8  16   -6.20    7.00
   5   8 -16   56.99   12.40
  -5  -8  16   64.29   11.00
  -5  -8  16   79.79   21.40
   4   8 -16  120.59   16.20
  -4  -8  16  171.18   27.30
  -4  -8  16  191.48   16.10
   3   8 -16   -1.10    8.50
  -3  -8  16   -0.30    6.60
  -3  -8  16    2.70   16.40
   2   8 -16   21.20   14.80
  -2  -8  16   11.30   17.00
  -2  -8  16   23.40    8.70
   1   8 -16    6.50    9.70
  -1  -8  16    9.40   16.10
  -1  -8  16   14.40    9.30
   0   8 -16  139.69   19.40
   0  -8  16  218.38   31.30
   0  -8  16  175.68   17.70
   1  -8  16   10.70   16.80
   1  -8  16   11.30    8.80
   2  -8  16  137.29   29.40
   2  -8  16  100.19   15.70
   3  -8  16    6.60    9.30
   3  -8  16   34.40   20.90
   4  -8  16    6.70   19.10
   4  -8  16   -1.20    8.60
   5  -8  16  -12.20    7.20
   5  -8  16   -3.60   36.60
   6  -8  16   89.29   30.40
   6  -8  16   54.49   14.60
   7  -8  16    9.80   22.00
   7  -8  16   -7.80    8.30
  10   7 -16   23.70   10.10
  10   7 -16   12.80    9.00
 -10  -7  16   53.39   17.90
   9   7 -16   20.00    8.80
  -9  -7  16   21.50   15.30
   8   7 -16   -2.20    7.30
  -8  -7  16  -14.70   12.30
  -8  -7  16   -0.90    6.30
   7   7 -16   25.70    9.60
  -7  -7  16    5.30    6.60
  -7  -7  16   -5.10   15.50
   6   7 -16   67.99   12.20
  -6  -7  16   63.99   11.40
  -6  -7  16   96.49   25.40
   5   7 -16   34.40   11.30
  -5  -7  16   96.39   22.70
  -5  -7  16   50.09   10.20
   4   7 -16   52.39   11.60
  -4  -7  16   11.10   14.80
  -4  -7  16   39.60    9.70
   3   7 -16    6.80    8.10
  -3  -7  16   -5.50   13.40
  -3  -7  16    6.50    7.00
   2   7 -16   76.39   13.60
  -2  -7  16   57.79   11.20
  -2  -7  16   42.80   22.50
  -2  -7  16   67.09   20.00
   1   7 -16  175.58   19.50
  -1  -7  16  202.28   18.10
  -1  -7  16  157.08   30.40
  -1  -7  16  179.08   27.90
   0   7 -16   72.89   14.40
   0  -7  16   55.99   20.90
   0  -7  16   75.49   21.50
   0  -7  16  116.99   14.80
   1  -7  16   16.30   15.60
   1  -7  16   -0.70    7.50
   1  -7  16  -18.00   15.50
   2  -7  16    7.60    7.90
   2  -7  16   19.70   18.20
   3  -7  16   23.90   19.60
   3  -7  16   22.70   11.80
   4  -7  16   20.10   20.70
   4  -7  16    8.10    9.30
   5  -7  16   52.49   25.80
   5  -7  16   57.89   15.30
   6  -7  16    9.90   11.10
   6  -7  16   22.00   25.20
   7  -7  16  -10.80   19.10
   7  -7  16  -10.10    8.50
  11   6 -16   72.69   16.00
  11   6 -16   45.40   12.70
 -11  -6  16   39.40   16.30
  10   6 -16    1.40   12.30
  10   6 -16   -1.30    9.40
 -10  -6  16   -1.20   13.50
   9   6 -16    3.70    7.70
  -9  -6  16   -2.30    6.70
  -9  -6  16    0.60   10.20
   8   6 -16   21.50    9.20
  -8  -6  16   27.40   10.00
   7   6 -16  146.59   16.00
  -7  -6  16  145.69   23.00
  -7  -6  16  175.08   16.20
   6   6 -16   49.40   11.20
  -6  -6  16   48.70   10.70
  -6  -6  16   49.20   19.00
   5   6 -16   18.60    9.20
  -5  -6  16   21.60   14.40
  -5  -6  16    9.70    7.10
   4   6 -16  179.28   30.20
   4   6 -16  166.18   20.20
  -4  -6  16  167.58   24.30
  -4  -6  16  177.98   16.60
   3   6 -16   28.50   17.40
   3   6 -16   54.99   12.30
  -3  -6  16   47.10   17.30
  -3  -6  16   43.60   10.40
   2   6 -16    2.60    8.30
  -2  -6  16    6.30    7.40
  -2  -6  16   14.00   14.90
  -2  -6  16    0.10   15.10
   1   6 -16   37.80   11.10
  -1  -6  16   56.99   12.30
  -1  -6  16   44.60   18.30
  -1  -6  16   30.20   17.50
   0   6 -16   55.49   17.30
   0  -6  16   79.59   14.10
   0  -6  16   97.09   22.80
   0  -6  16   98.89   24.40
   1  -6  16   12.00   13.80
   1  -6  16  -15.90   11.70
   1  -6  16   -5.00    6.30
   2  -6  16   28.80   11.00
   2  -6  16   29.00   15.50
   2  -6  16   87.19   26.10
   3  -6  16   10.00    9.60
   3  -6  16    2.60   15.70
   3  -6  16    2.00   11.90
   4  -6  16   44.70   20.70
   4  -6  16   55.69   15.20
   5  -6  16   -5.30   18.30
   5  -6  16   -3.70    8.30
   6  -6  16   35.00   14.10
   6  -6  16   -2.80   19.60
  -7   6 -16   23.40   31.00
   7  -6  16   -4.70    8.10
  -8   6 -16   36.50   27.70
   8  -6  16   46.60   16.10
  11   5 -16   -4.20   13.40
  11   5 -16    5.70   11.10
 -11  -5  16   19.50   15.40
  10   5 -16   23.00   10.20
 -10  -5  16   16.70    9.10
 -10  -5  16   39.40   14.90
   9   5 -16   96.69   14.70
  -9  -5  16  123.89   25.60
  -9  -5  16   78.99   13.60
   8   5 -16   29.30    9.80
  -8  -5  16   48.80   11.50
  -8  -5  16   56.69   17.20
   7   5 -16    2.30    6.60
  -7  -5  16    1.00   11.10
  -7  -5  16    0.80    7.20
   6   5 -16   43.80   10.90
  -6  -5  16   30.70    9.60
  -6  -5  16   45.30   16.30
   5   5 -16  128.79   15.20
   5   5 -16  107.79   25.10
  -5  -5  16  146.19   15.50
  -5  -5  16  133.79   20.10
   4   5 -16    5.30    7.60
   4   5 -16   -2.60   14.20
  -4  -5  16   19.80    8.20
  -4  -5  16   13.50   12.00
   3   5 -16   12.20    7.90
   3   5 -16    6.00   16.90
  -3  -5  16  -25.30    8.70
  -3  -5  16   -1.00    6.10
   2   5 -16   24.20    9.50
  -2  -5  16   63.09   19.10
  -2  -5  16   43.00   10.40
  -2  -5  16   51.09   15.90
   1   5 -16   17.00    9.10
  -1  -5  16   26.20   10.40
  -1  -5  16   33.20   16.00
  -1  -5  16   11.30   14.40
   0  -5  16   -2.90   12.50
   0  -5  16  -11.50    5.90
   0  -5  16    2.10   11.90
   1  -5  16  108.79   23.70
   1  -5  16   67.39   13.80
   1  -5  16   53.19   17.20
   2  -5  16   10.90   16.40
   2  -5  16   15.00    8.90
   2  -5  16    7.10   14.30
   3  -5  16   26.30   17.30
   3  -5  16   12.50   11.90
   3  -5  16   22.60    9.90
   4  -5  16   14.20    9.50
   4  -5  16   25.70   16.40
   4  -5  16   33.40   13.20
   5  -5  16  340.57   28.10
   5  -5  16  365.76   38.70
   6  -5  16   -2.70   18.80
   6  -5  16   10.60   10.90
  -7   5 -16   -1.10   22.00
   7  -5  16   18.60   13.30
  -8   5 -16  -29.60   19.30
   8  -5  16    6.20   11.00
  11   4 -16   32.20   13.20
 -11  -4  16   23.60   13.40
 -10  -4  16   53.59   15.90
 -10  -4  16   31.10   11.20
   9   4 -16   11.30   12.10
  -9  -4  16   26.80   10.10
  -9  -4  16   18.30   13.50
   8   4 -16   -1.40    7.10
  -8  -4  16    5.90    7.10
  -8  -4  16   12.30   12.20
   7   4 -16   54.49   11.70
  -7  -4  16   35.40   14.10
  -7  -4  16   44.90   11.00
   6   4 -16   53.29   19.40
   6   4 -16   30.00    9.80
  -6  -4  16   62.79   12.70
  -6  -4  16   73.29   17.90
   5   4 -16   -2.50    6.50
   5   4 -16    8.20   16.90
  -5  -4  16    9.30    7.50
  -5  -4  16   11.90   10.80
   4   4 -16   -3.20    5.90
   4   4 -16   16.70   15.80
  -4  -4  16   -3.40    6.80
  -4  -4  16   -4.60    8.50
   3   4 -16   49.70   11.40
   3   4 -16   38.60   17.50
  -3  -4  16   59.39   16.10
  -3  -4  16   74.29   12.80
   2   4 -16   69.29   13.90
  -2  -4  16   62.29   15.60
  -2  -4  16  102.49   21.10
  -2  -4  16   80.29   14.30
   1   4 -16   -3.90    9.90
  -1  -4  16   -1.10   11.30
  -1  -4  16    1.80    7.50
  -1  -4  16    2.60   10.20
   0  -4  16   52.29   17.00
   0  -4  16   37.90   10.70
   0  -4  16   81.39   18.50
   1  -4  16   16.70   13.50
   1  -4  16    0.20   10.50
   1  -4  16   -0.20    6.80
   2  -4  16    4.50    9.80
   2  -4  16   -2.10   13.60
   2  -4  16   -6.20    6.40
   3  -4  16   11.10    9.40
   3  -4  16   28.80   17.20
   3  -4  16    3.90    9.60
   4  -4  16  471.45   39.60
   4  -4  16  464.15   32.20
   4  -4  16  435.96   37.80
   5  -4  16   -1.60    8.20
   5  -4  16    7.10    9.70
   5  -4  16  -24.90   14.30
  -6   4 -16   19.60   22.00
   6  -4  16   25.70   11.60
  -7   4 -16   -4.80   20.70
   7  -4  16    7.80   12.10
  -8   4 -16   96.89   52.89
   8  -4  16   40.70   14.20
 -11  -3  16  -13.60   10.10
 -11  -3  16    3.80    8.00
 -10  -3  16   -0.60    7.90
  -9  -3  16   54.39   13.80
  -9  -3  16   61.59   16.50
  -8  -3  16   46.50   12.50
  -8  -3  16   54.89   14.50
   7   3 -16   16.40   15.90
  -7  -3  16    5.60    7.70
  -7  -3  16  -11.10    9.00
   6   3 -16   26.30   29.00
   6   3 -16   19.10    8.30
  -6  -3  16   20.90    9.30
  -6  -3  16    2.20    9.10
   5   3 -16   -4.10   12.10
   5   3 -16    5.00    6.80
  -5  -3  16    3.40    6.80
  -5  -3  16  -11.90    8.60
   4   3 -16   17.30   13.60
   4   3 -16   43.80   10.10
  -4  -3  16   20.80   11.10
  -4  -3  16   37.60   10.10
   3   3 -16  110.19   15.00
   3   3 -16  122.69   21.50
  -3  -3  16  115.09   21.80
  -3  -3  16  121.19   15.00
  -2  -3  16   -6.70   11.30
  -2  -3  16   12.80   10.40
  -2  -3  16   -1.10    6.40
  -1  -3  16   -1.70   11.10
  -1  -3  16   -7.10    4.90
  -1  -3  16   29.50   12.40
   0  -3  16   11.10    7.70
   0  -3  16    6.50    9.80
   0  -3  16   -2.00    9.30
   1  -3  16   70.39   15.00
   1  -3  16   81.79   15.40
   1  -3  16  110.99   20.60
   2  -3  16   -4.80   11.50
   2  -3  16   -4.30    6.90
   2  -3  16    1.80    8.50
   3  -3  16   59.99   18.80
   3  -3  16   35.00   12.20
   3  -3  16   47.10   11.70
   4  -3  16    1.90    8.20
   4  -3  16    0.20    8.30
   4  -3  16    3.40   16.00
   5  -3  16    9.50   15.80
   5  -3  16   34.70   13.50
  -6   3 -16   24.00   20.70
   6  -3  16   -5.80    8.10
   6  -3  16   -0.80    9.60
  -7   3 -16   17.40   21.80
   7  -3  16   17.50   11.40
  -8   3 -16    5.90   23.00
   8  -3  16    3.70    9.50
 -11  -2  16    8.10   11.50
 -11  -2  16   19.10   12.40
 -10  -2  16  217.08   23.10
 -10  -2  16  205.98   21.70
  -9  -2  16   10.20    8.80
  -9  -2  16   15.30   11.80
   8   2 -16   19.10   15.30
  -8  -2  16   13.00    9.00
  -8  -2  16   27.40   11.80
   7   2 -16    4.10   13.90
  -7  -2  16   -6.70    8.10
  -7  -2  16   -2.40    8.30
   6   2 -16   24.10   15.80
  -6  -2  16   14.80   10.10
  -6  -2  16   10.20    7.90
   5   2 -16  123.49   21.10
  -5  -2  16  143.89   16.20
  -5  -2  16  102.69   15.10
   4   2 -16  218.18   24.30
  -4  -2  16  175.68   18.00
  -4  -2  16  242.78   20.30
  -3  -2  16   43.80   10.80
  -3  -2  16   46.30   11.80
  -2  -2  16   12.80    8.70
  -2  -2  16   28.10    9.50
  -2  -2  16    5.80   10.60
  -1  -2  16    4.10    6.70
  -1  -2  16   -0.30    9.10
  -1  -2  16   -4.90    6.90
   0  -2  16  454.45   27.50
   0  -2  16  498.65   31.00
   0  -2  16  495.65   29.50
   1  -2  16   21.20    8.30
   1  -2  16   10.30   11.20
   1  -2  16   10.80    7.60
   2  -2  16   31.00   12.80
   2  -2  16   44.30   10.50
   2  -2  16   54.69   13.40
   3  -2  16    9.10   12.90
   3  -2  16    4.30    7.00
   4  -2  16   49.99   14.50
   4  -2  16   79.69   24.10
   4  -2  16   57.49   12.40
   5  -2  16   -8.20    7.10
   5  -2  16    2.10    8.90
   5  -2  16   20.30   17.00
  -6   2 -16   22.90   19.90
   6  -2  16    7.20    9.80
   6  -2  16   16.00   10.60
  -7   2 -16    1.80   20.60
   7  -2  16   -1.20   13.00
   7  -2  16    0.40    8.90
 -11  -1  16   74.09   18.10
 -11  -1  16   70.39   16.00
 -10  -1  16   -2.50    7.90
 -10  -1  16   -1.70    7.40
  -9  -1  16   90.49   17.60
  -9  -1  16   83.99   17.00
   8   1 -16    4.10   14.30
  -8  -1  16   -3.80    6.40
  -8  -1  16    6.30    9.10
   7   1 -16    1.60   13.00
  -7  -1  16    3.30    7.90
  -7  -1  16   -3.40    7.00
   6   1 -16   17.40   13.50
  -6  -1  16    2.00    8.60
  -6  -1  16    7.00    7.80
   5   1 -16  229.98   23.60
  -5  -1  16  198.18   19.30
  -5  -1  16  196.48   16.80
   4   1 -16    7.50   10.70
  -4  -1  16   -0.90    6.80
  -4  -1  16    1.00    6.50
  -3  -1  16  208.98   34.80
  -3  -1  16  198.98   19.00
  -3  -1  16  211.88   15.70
  -2  -1  16    0.00    7.90
  -2  -1  16    7.60    7.20
  -2  -1  16    6.80    8.00
  -1  -1  16  133.89   15.70
  -1  -1  16   96.29   11.90
  -1  -1  16  126.29   12.40
   0  -1  16    2.90    6.90
   0  -1  16    1.50    5.70
   0  -1  16    2.60    6.90
   1  -1  16  121.29   15.50
   1  -1  16   94.99   13.30
   1  -1  16   93.69   10.00
   2  -1  16    2.40    9.30
   2  -1  16    3.30   12.70
   2  -1  16    2.10    7.80
   3  -1  16   12.70    7.20
   3  -1  16   31.90   14.30
   3  -1  16    3.70    8.40
   4  -1  16    5.80    8.30
   4  -1  16    7.30   12.80
   4  -1  16   -6.60    6.50
   5  -1  16    8.70   10.10
   5  -1  16   30.40   11.30
   5  -1  16   50.29   22.90
  -6   1 -16    6.90   18.10
   6  -1  16   23.50   12.00
   6  -1  16   -5.40    9.60
  -7   1 -16   55.59   23.60
   7  -1  16   43.90   15.30
   7  -1  16   25.90   15.00
 -11   0  16   52.79   16.70
 -11   0  16   42.80   13.40
 -10   0  16    3.90    9.30
 -10   0  16    9.70    8.80
   9   0 -16   27.60   17.50
  -9   0  16   29.80   11.70
  -9   0  16   25.80   10.50
   8   0 -16   47.70   20.30
  -8   0  16   54.69   14.80
  -8   0  16   39.00   11.80
   7   0 -16    9.00   12.80
  -7   0  16   -1.10    6.70
  -7   0  16    0.50    7.70
   6   0 -16  159.08   21.40
  -6   0  16  199.78   19.70
  -6   0  16  170.58   16.00
   5   0 -16    1.30    9.40
  -5   0  16   -1.90    6.00
  -5   0  16    5.90    7.90
   4   0 -16    5.30   11.80
  -4   0  16   -1.40    5.40
  -4   0  16   -7.60    7.40
  -3   0  16   14.80    7.90
  -3   0  16   -0.20    4.80
  -3   0  16    7.60    7.70
  -2   0  16   20.70    8.50
  -2   0  16   18.00    5.50
  -2   0  16   31.60    5.80
  -1   0  16    0.00    6.80
   0   0  16    4.50    6.80
   1   0  16    3.70    7.10
   1   0  16    0.90    5.10
   1   0  16    1.40    3.50
   2   0  16   97.19   18.10
   2   0  16   63.39   10.60
   2   0  16   73.49    8.00
   3   0  16    1.70    5.70
   3   0  16   -2.50    8.60
   3   0  16   24.20   11.20
   4   0  16   19.30    8.30
   4   0  16   13.60   10.70
   4   0  16   22.30   13.40
   5   0  16    2.50   14.10
   5   0  16    2.90    8.80
   5   0  16    8.20    9.00
  -6   0 -16   32.20   19.10
   6   0  16   14.60   11.00
   6   0  16   31.00   12.70
  -7   0 -16   34.80   21.20
   7   0  16   15.60   12.10
 -11   1  16   70.29   17.20
 -11   1  16  121.99   21.40
 -10   1  16   14.40   10.00
 -10   1  16  -10.30    6.60
   9  -1 -16  167.78   29.20
  -9   1  16  107.69   17.30
  -9   1  16  143.89   17.40
   8  -1 -16   25.00   14.20
  -8   1  16    9.20    9.00
  -8   1  16   10.30    8.90
   7  -1 -16  180.48   21.90
  -7   1  16  136.49   19.70
  -7   1  16  175.18   34.70
   6  -1 -16   26.00   12.80
  -6   1  16    7.10    7.00
  -6   1  16   -0.50    6.20
   5  -1 -16  428.36   33.90
  -5   1  16  450.25   22.90
  -5   1  16  416.36   29.50
  -4   1  16   -3.70    6.40
  -4   1  16   -0.30    3.90
  -3   1  16    1.90    7.80
  -2   1  16   -2.60    6.90
  -1   1  16   50.79   13.50
   0   1  16    5.30    6.40
   1   1  16  192.78   23.30
   2   1  16    8.50    8.30
   3   1  16   85.99   16.20
   4   1  16   51.39   13.00
   4   1  16   15.90   11.60
   4   1  16   32.90    8.80
   5   1  16  149.49   22.60
   5   1  16   91.79   15.50
   5   1  16   96.99   18.60
  -6  -1 -16   -3.60   18.40
   6   1  16   -6.30    7.80
   6   1  16    0.20   11.90
 -11   2  16   -0.70    9.00
 -11   2  16    6.00   10.00
 -10   2  16    9.00   10.20
 -10   2  16   23.20   10.80
   9  -2 -16  -11.60   11.60
  -9   2  16   -4.20    7.70
  -9   2  16   -0.40    8.10
   8  -2 -16   11.30   12.40
  -8   2  16    9.90    7.80
  -8   2  16   19.80   10.20
   7  -2 -16    1.70   10.20
  -7   2  16   -1.50    6.10
  -7   2  16    1.40    6.50
   6  -2 -16  209.58   21.20
  -6   2  16  217.08   21.60
  -6   2  16  223.98   15.90
   5  -2 -16    8.90    7.70
  -5   2  16    3.10    4.90
  -5   2  16    8.60    8.70
  -3   2  16   -4.60    7.60
  -2   2  16   71.99   22.40
  -1   2  16    2.00    8.40
   0   2  16   35.90   11.10
   1   2  16    2.50    7.50
   2   2  16  122.99   17.30
   3   2  16   33.20   11.90
   4   2  16   37.70   14.10
   5   2  16   -2.60    8.40
   5   2  16    7.00   10.50
   5   2  16    4.10    8.80
 -10   3  16   -8.70    6.40
 -10   3  16   -0.70    9.40
  -9   3  16    2.10    8.60
  -9   3  16   12.40   10.00
   8  -3 -16   -7.50   10.60
  -8   3  16   20.40    9.50
  -8   3  16   17.60   10.40
   7  -3 -16   39.20   14.40
  -7   3  16   18.80    8.60
  -7   3  16   35.00   11.80
   6  -3 -16   -4.20    7.90
  -6   3  16   -6.60    6.00
  -6   3  16    0.10    5.50
  -5   3  16   51.79   14.50
  -4   3  16   14.40    8.20
  -3   3  16   91.89   17.60
  -2   3  16   10.70   10.60
  -1   3  16  136.19   18.00
   0   3  16   17.10   10.40
   1   3  16  100.29   19.00
   2   3  16   29.20   12.00
   3   3  16   20.60   11.20
   4   3  16   12.20   12.10
   5   3  16   15.10   12.70
   9  -4 -16   -3.00   11.60
  -9   4  16   11.20    9.30
  -9   4  16   12.40   10.00
   8  -4 -16    2.30   10.40
  -8   4  16   13.90   10.10
  -8   4  16   10.10    9.10
   7  -4 -16   -5.00   14.10
  -7   4  16    3.80    7.90
  -7   4  16   -0.40    6.60
   6  -4 -16  208.08   14.50
  -6   4  16  224.18   23.20
  -5   4  16    6.70    8.70
  -4   4  16   38.40   12.10
  -3   4  16    2.50    8.10
  -2   4  16  288.17   25.50
  -1   4  16   14.80   10.30
   0   4  16   38.00   13.90
   1   4  16   18.80   11.80
   2   4  16   -2.70    8.80
   3   4  16   35.40   13.50
   4   4  16   79.99   18.30
   9  -5 -16   39.50   16.50
  -9   5  16   45.90   14.10
  -9   5  16   49.30   15.60
   8  -5 -16   -8.50    9.10
  -8   5  16    3.80    8.30
  -8   5  16  -10.40    7.20
   7  -5 -16  238.78   18.50
  -7   5  16  211.38   16.60
  -7   5  16  205.78   23.50
  -6   5  16    5.50    8.20
  -5   5  16    2.20    9.70
  -4   5  16    5.00    8.40
  -3   5  16   63.59   15.20
  -2   5  16   -3.60    8.10
  -1   5  16   32.80   12.40
   0   5  16    2.80    9.20
   1   5  16   -7.90    8.50
   2   5  16   12.10   11.00
   3   5  16  133.19   21.00
  -7   6  16   -3.10    8.00
  -6   6  16    6.20    8.60
  -5   6  16    0.30    8.30
  -4   6  16   48.20   15.10
  -3   6  16   11.20    9.00
  -2   6  16   29.30   13.40
  -1   6  16   28.40   12.30
   0   6  16    7.00   11.40
   1   6  16   -0.40   10.90
  -4   7  16    8.70   10.10
  -3   7  16   60.39   16.40
  -2   7  16   18.80   12.00
   1  13 -17    3.30   13.40
  -1 -13  17    3.20    8.50
  -1 -13  17    5.90   25.30
   0 -13  17  -11.90   20.60
   0 -13  17    0.20    9.30
  -5 -12  17   -4.40   21.10
   4  12 -17   13.10    9.90
  -4 -12  17   -4.50    5.70
  -4 -12  17   25.30   22.70
   3  12 -17    6.40   10.80
  -3 -12  17    6.40   23.80
  -3 -12  17    5.60    8.30
   2  12 -17   -3.10   11.50
  -2 -12  17   12.80    8.60
  -2 -12  17   -1.70   23.20
   1  12 -17   34.50   15.10
  -1 -12  17   29.40   26.20
  -1 -12  17   17.00    9.40
   0 -12  17    4.90   23.20
   0 -12  17    6.50    9.40
   1 -12  17   -2.60    8.00
   1 -12  17    4.10   23.90
   2 -12  17  -10.30    8.90
   2 -12  17   10.60   24.40
   3 -12  17   57.39   29.30
   3 -12  17   20.00   12.80
   6  11 -17    5.40    6.40
  -6 -11  17   16.80    5.70
  -6 -11  17   14.20   20.60
   5  11 -17   -1.20    7.90
  -5 -11  17    0.80    5.80
  -5 -11  17    9.00   19.40
   4  11 -17   13.10   10.30
  -4 -11  17    1.30   18.50
  -4 -11  17    9.20   10.50
   3  11 -17   51.89   13.60
  -3 -11  17   34.40   21.50
  -3 -11  17   33.10    9.30
   2  11 -17   58.09   17.70
  -2 -11  17   33.30   25.60
  -2 -11  17   29.50    9.80
   1  11 -17   -7.40   12.00
  -1 -11  17    9.10    8.70
  -1 -11  17  -12.40   18.70
   0 -11  17    2.50    8.60
   0 -11  17  -10.50   21.20
   1 -11  17   10.10   23.80
   1 -11  17   21.00   10.10
   2 -11  17   65.39   26.30
   2 -11  17   64.79   15.30
   3 -11  17   56.39   15.90
   3 -11  17   32.10   24.90
   4 -11  17   11.80   23.20
   4 -11  17   -6.60    9.20
   7  10 -17   -6.50    8.30
  -7 -10  17    3.20    5.80
  -7 -10  17    3.90   17.10
   6  10 -17    6.90    8.70
  -6 -10  17    4.70   17.00
  -6 -10  17   10.80    6.70
   5  10 -17   -1.70    9.20
  -5 -10  17    1.30    7.50
  -5 -10  17   14.40   20.00
   4  10 -17  142.79   18.40
  -4 -10  17   69.29   25.00
  -4 -10  17  120.09   13.70
   3  10 -17    4.30   10.60
  -3 -10  17   16.60    8.90
  -3 -10  17    2.80   17.60
   2  10 -17    0.60   10.70
  -2 -10  17    1.90    7.40
  -2 -10  17   23.10   21.00
   1  10 -17    2.10   11.00
  -1 -10  17   13.10   22.10
  -1 -10  17   29.10   11.00
   0 -10  17   86.59   27.70
   0 -10  17   96.99   15.50
   1 -10  17   22.80   24.70
   1 -10  17   12.20    9.50
   2 -10  17    4.30   20.30
   2 -10  17   -5.00    7.80
   3 -10  17    6.70   10.70
   3 -10  17   -7.00   20.50
   4 -10  17   -0.10   10.70
   4 -10  17   10.10   22.40
   5 -10  17   11.50   12.90
   5 -10  17   12.10   23.10
   8   9 -17    8.30    8.90
  -8  -9  17   54.79   22.60
   7   9 -17    6.80    9.20
  -7  -9  17   23.00   19.60
  -7  -9  17   14.70    7.20
   6   9 -17   19.70   10.50
  -6  -9  17   24.10   18.80
  -6  -9  17   41.50   12.50
   5   9 -17   -1.20    8.90
  -5  -9  17   22.20    7.60
  -5  -9  17    5.00   15.90
   4   9 -17   15.60   10.00
  -4  -9  17    5.10   15.70
  -4  -9  17   -5.30    6.50
   3   9 -17   11.20   12.40
  -3  -9  17   20.00    8.40
  -3  -9  17   20.10   21.60
   2   9 -17   48.60   14.30
  -2  -9  17   57.79   12.30
  -2  -9  17   39.60   20.10
   1   9 -17   12.00   11.50
  -1  -9  17   28.50   21.00
  -1  -9  17   11.20    8.90
   0  -9  17   53.19   12.60
   0  -9  17   26.60   20.40
   1  -9  17   23.20   10.10
   1  -9  17   22.00   21.00
   2  -9  17   70.09   27.50
   2  -9  17   98.59   17.00
   3  -9  17   12.70   25.40
   3  -9  17   15.90   10.90
   4  -9  17   30.60   24.10
   4  -9  17   26.90   12.30
   5  -9  17    6.50   20.90
   5  -9  17    8.10   10.30
   6  -9  17   20.30   12.60
   6  -9  17   18.50   24.70
   9   8 -17   13.40    9.20
  -9  -8  17   -5.20   15.20
   8   8 -17   16.10   10.00
  -8  -8  17  -10.30   14.30
  -8  -8  17   31.00    9.80
   7   8 -17   30.60   11.00
  -7  -8  17   28.90    8.90
  -7  -8  17   31.00   18.20
   6   8 -17   14.30    9.30
  -6  -8  17   10.70    7.30
  -6  -8  17    0.80   15.80
   5   8 -17   13.40    9.20
  -5  -8  17    9.40    7.80
  -5  -8  17   21.70   17.20
   4   8 -17  112.39   17.80
  -4  -8  17  135.89   15.10
  -4  -8  17   96.99   25.30
   3   8 -17   69.39   15.00
  -3  -8  17  105.79   27.20
  -3  -8  17   71.19   12.90
   2   8 -17    0.10    9.30
  -2  -8  17   -1.00    6.30
  -2  -8  17   17.70   18.10
   1   8 -17   -3.20    9.30
  -1  -8  17  -12.40   15.40
  -1  -8  17   -6.80    7.00
   0  -8  17    2.10   19.00
   0  -8  17    9.10    8.50
   1  -8  17   43.40   21.70
   1  -8  17   55.49   13.80
   2  -8  17   23.70   10.00
   2  -8  17   26.00   19.00
   3  -8  17   31.10   11.50
   3  -8  17   23.80   21.10
   4  -8  17   34.90   11.90
   4  -8  17   36.40   22.70
   5  -8  17   43.20   14.70
   5  -8  17   78.49   27.90
   6  -8  17   23.30   22.80
   6  -8  17   -2.30    9.80
  10   7 -17    1.20    8.70
  10   7 -17    1.30    8.80
 -10  -7  17    9.30   15.00
   9   7 -17   38.00   11.40
  -9  -7  17   45.60   11.70
  -9  -7  17   46.60   19.20
   8   7 -17    7.80    9.30
  -8  -7  17  -19.60   11.10
  -8  -7  17    8.10    7.60
   7   7 -17   18.10    9.90
  -7  -7  17   13.50    8.10
  -7  -7  17   33.80   18.90
   6   7 -17   66.39   14.20
  -6  -7  17   65.49   20.80
  -6  -7  17   47.80   11.30
   5   7 -17   32.20   15.40
  -5  -7  17   66.89   11.60
  -5  -7  17   50.49   18.20
   4   7 -17    1.00    8.10
  -4  -7  17    4.30   13.80
  -4  -7  17    8.30    6.80
   3   7 -17  107.49   17.20
  -3  -7  17  104.99   23.50
  -3  -7  17   91.29   13.70
   2   7 -17  107.99   16.90
  -2  -7  17  150.48   28.60
  -2  -7  17  125.89   15.30
  -1  -7  17  129.19   26.70
  -1  -7  17  151.68   17.20
   0  -7  17    2.80    8.00
   0  -7  17  -10.30   15.00
   1  -7  17   44.80   11.90
   1  -7  17   56.59   22.80
   2  -7  17   59.09   23.50
   2  -7  17   74.19   16.00
   3  -7  17    2.20    8.50
   3  -7  17    1.50   18.00
   4  -7  17   47.40   13.20
   4  -7  17    4.90   18.10
   5  -7  17    4.30   10.40
   5  -7  17   20.60   23.50
   6  -7  17   -1.50    8.50
   6  -7  17  -19.10   20.20
   7  -7  17    4.30   21.30
   7  -7  17   -5.00    8.70
  10   6 -17    6.20    9.00
 -10  -6  17    1.70   14.10
 -10  -6  17    0.40    7.20
   9   6 -17   -0.50    8.30
  -9  -6  17    8.90    8.30
  -9  -6  17   -4.80   11.60
   8   6 -17    5.30    8.40
  -8  -6  17    1.50   12.30
  -8  -6  17   11.40    8.30
   7   6 -17  108.09   16.40
  -7  -6  17  101.29   23.40
  -7  -6  17  104.09   14.20
   6   6 -17   90.19   14.70
  -6  -6  17   96.49   13.90
  -6  -6  17   81.79   20.20
   5   6 -17   15.70    9.50
  -5  -6  17   11.10    8.40
  -5  -6  17   10.40   14.10
   4   6 -17   28.00   31.50
   4   6 -17   15.40    9.40
  -4  -6  17   14.10   13.90
  -4  -6  17   22.20    9.30
   3   6 -17   68.59   13.50
   3   6 -17  105.69   26.80
  -3  -6  17  119.89   23.70
  -3  -6  17   83.59   13.60
   2   6 -17   21.50   10.90
  -2  -6  17   41.30   10.70
  -2  -6  17   45.80   21.30
  -2  -6  17   60.69   18.40
  -1  -6  17  147.19   27.80
  -1  -6  17  141.09   26.50
  -1  -6  17  123.09   15.90
   0  -6  17   14.20    9.20
   0  -6  17   25.60   17.30
   0  -6  17    8.90   15.90
   1  -6  17   52.59   12.10
   1  -6  17   43.90   17.60
   1  -6  17   57.19   22.90
   2  -6  17   -6.30    7.60
   2  -6  17   -4.90   12.70
   2  -6  17  -24.90   12.60
   3  -6  17   81.79   15.60
   3  -6  17   56.39   23.60
   3  -6  17   36.90   24.00
   4  -6  17    7.70    8.40
   4  -6  17  -12.90   16.60
   5  -6  17   17.90   10.90
   5  -6  17   -4.80   18.90
   6  -6  17   15.80   20.60
   6  -6  17   -9.40    7.60
   7  -6  17    5.10   22.70
   7  -6  17   28.80   13.50
 -10  -5  17   19.40   13.90
 -10  -5  17   27.10   10.10
   9   5 -17   39.80   14.60
  -9  -5  17   31.90   10.30
  -9  -5  17   18.40   13.80
   8   5 -17   98.99   15.00
  -8  -5  17  152.78   26.10
  -8  -5  17  147.29   16.20
   7   5 -17   33.40   10.60
  -7  -5  17   26.20   14.30
  -7  -5  17   65.29   13.00
   6   5 -17    9.60    9.00
  -6  -5  17   -3.20    6.70
  -6  -5  17   31.00   13.60
   5   5 -17  117.29   26.50
   5   5 -17  116.09   15.80
  -5  -5  17  145.99   20.70
  -5  -5  17  103.89   14.60
   4   5 -17   71.39   22.70
   4   5 -17   68.89   13.90
  -4  -5  17   58.69   13.00
  -4  -5  17   70.79   17.60
   3   5 -17   10.10    8.80
   3   5 -17   -3.70   13.60
  -3  -5  17  -12.90   11.20
  -3  -5  17   -7.60    6.40
  -2  -5  17   32.20   14.50
  -2  -5  17   20.50   17.30
  -2  -5  17   18.50    8.70
  -1  -5  17   58.39   16.70
  -1  -5  17   62.69   19.50
  -1  -5  17   28.70    9.20
   0  -5  17   22.20    9.60
   0  -5  17   45.00   17.00
   0  -5  17   39.80   16.00
   1  -5  17    5.80    7.80
   1  -5  17   -9.90   12.50
   1  -5  17   -1.70   12.40
   2  -5  17   97.39   22.30
   2  -5  17   91.09   16.10
   2  -5  17  111.79   24.20
   3  -5  17    6.30    8.60
   3  -5  17    8.00   16.70
   3  -5  17    1.40   10.90
   4  -5  17   21.70   12.00
   4  -5  17   20.20   19.10
   4  -5  17    2.40   10.10
   5  -5  17   15.00   20.60
   5  -5  17  -13.40    6.80
   6  -5  17  150.38   33.90
   6  -5  17   91.19   19.60
   7  -5  17   23.70   21.70
   7  -5  17   15.80   12.70
 -11  -4  17   14.80    9.30
 -11  -4  17   11.00   13.80
 -10  -4  17   76.09   14.70
 -10  -4  17  123.79   20.90
  -9  -4  17   23.40   14.10
  -9  -4  17   24.60   10.40
  -8  -4  17   -7.90   10.40
  -8  -4  17    5.10    7.40
  -7  -4  17   30.60   13.60
  -7  -4  17   -4.00    7.40
   6   4 -17  101.89   25.80
  -6  -4  17  100.99   14.80
  -6  -4  17  103.19   19.50
   5   4 -17  -12.50   12.80
  -5  -4  17    4.50    7.80
  -5  -4  17    7.20   11.90
   4   4 -17   16.80   15.00
  -4  -4  17   13.00    9.20
  -4  -4  17   19.60   12.80
  -3  -4  17  127.39   20.60
  -3  -4  17   93.69   14.00
  -3  -4  17   62.69   19.50
  -2  -4  17    3.30   10.40
  -2  -4  17    9.50   14.30
  -2  -4  17   -6.10    6.10
  -1  -4  17   -8.80   11.60
  -1  -4  17    8.50    9.00
  -1  -4  17    7.90   10.90
   0  -4  17    2.50    7.30
   0  -4  17    1.50   10.70
   0  -4  17   21.20   14.60
   1  -4  17   18.60   13.00
   1  -4  17   14.40   10.20
   1  -4  17   16.80   11.90
   2  -4  17   15.90   10.70
   2  -4  17   21.20   10.10
   2  -4  17   15.40   14.90
   3  -4  17  201.38   28.90
   3  -4  17  178.28   20.10
   3  -4  17  165.98   19.00
   4  -4  17   -4.60   15.00
   4  -4  17    7.80   10.30
   4  -4  17    5.80    8.50
   5  -4  17   21.30   11.50
   5  -4  17    3.20   18.50
   5  -4  17    7.00    9.10
   6  -4  17   13.90   19.40
   6  -4  17   -8.70    7.70
  -7   4 -17   39.80   26.10
   7  -4  17   26.10   12.90
 -11  -3  17   41.20   14.90
 -11  -3  17   20.00   14.40
 -10  -3  17    9.70   10.60
 -10  -3  17   -2.00    7.60
  -9  -3  17   20.10   12.10
  -9  -3  17   18.80    9.30
  -8  -3  17  191.88   19.50
  -8  -3  17  173.78   20.50
   7   3 -17    3.50   15.70
  -7  -3  17   -4.50    9.20
  -7  -3  17    2.10    7.60
   6   3 -17   11.30   15.40
  -6  -3  17    6.00    9.60
  -6  -3  17   -1.00    7.60
   5   3 -17   -5.30   13.00
  -5  -3  17    9.90    9.50
  -5  -3  17    2.00    6.90
   4   3 -17  241.68   28.30
  -4  -3  17  272.57   22.80
  -4  -3  17  297.77   22.70
  -3  -3  17   -1.60    6.60
  -3  -3  17   17.60   17.20
  -3  -3  17    1.50   12.60
  -2  -3  17   95.59   14.30
  -2  -3  17   70.09   17.50
  -2  -3  17  101.79   18.00
  -1  -3  17   -2.60    6.80
  -1  -3  17   12.70   10.80
  -1  -3  17   -7.70    9.10
   0  -3  17    7.90    8.00
   0  -3  17    8.60    9.00
   0  -3  17    4.20   10.40
   1  -3  17   16.00   10.00
   1  -3  17    9.90   12.10
   1  -3  17   15.20   10.20
   2  -3  17  237.78   46.10
   2  -3  17  111.79   14.90
   2  -3  17  102.09   22.00
   3  -3  17    2.50    8.20
   3  -3  17   -1.40    8.80
   3  -3  17   -3.00   14.50
   4  -3  17   13.40   15.60
   4  -3  17    7.00   10.00
   4  -3  17    5.20    8.80
   5  -3  17   23.70   12.00
   5  -3  17    9.60    9.70
   5  -3  17    9.30   16.50
   6  -3  17   32.30   21.30
   6  -3  17   21.20   12.80
   6  -3  17   24.30   11.20
  -7   3 -17  -24.90   19.40
   7  -3  17   11.30   10.20
 -11  -2  17  112.59   22.10
 -11  -2  17   73.49   17.10
 -10  -2  17   21.10   11.90
 -10  -2  17   37.40   13.20
  -9  -2  17   72.29   16.30
  -9  -2  17  103.99   18.00
   8   2 -17    7.10   18.90
  -8  -2  17   25.60   11.40
  -8  -2  17    3.20    7.60
   7   2 -17   18.30   16.30
  -7  -2  17   33.90   11.50
  -7  -2  17   24.70   11.10
   6   2 -17   -4.80   12.90
  -6  -2  17   -6.70    7.60
  -6  -2  17   -9.00    7.00
   5   2 -17   53.09   18.40
  -5  -2  17   46.20   11.90
  -5  -2  17   70.49   13.40
   4   2 -17   -3.20   11.40
  -4  -2  17    1.60    7.80
  -4  -2  17   11.80    8.20
  -3  -2  17  328.97   23.10
  -3  -2  17  383.46   29.40
  -3  -2  17  402.56   27.20
  -2  -2  17   23.10    9.90
  -2  -2  17   45.70   12.90
  -2  -2  17   37.70   10.80
  -1  -2  17   89.19   14.30
  -1  -2  17  102.49   14.40
  -1  -2  17   98.39   16.60
   0  -2  17   10.30    8.00
   0  -2  17   21.60    9.20
   0  -2  17   11.90    9.60
   1  -2  17   51.19   10.20
   1  -2  17   53.19   14.20
   1  -2  17   55.89   15.40
   2  -2  17   -0.80    6.40
   2  -2  17    6.40    7.70
   2  -2  17    8.20   11.70
   3  -2  17    3.50    6.50
   3  -2  17   16.70   13.90
   3  -2  17   16.50   10.80
   4  -2  17    2.40    7.50
   4  -2  17    0.50   13.20
   4  -2  17    0.10    7.60
   5  -2  17    6.30    9.00
   5  -2  17   -1.10   16.00
   5  -2  17    6.60    9.90
   6  -2  17   -7.50   15.70
   6  -2  17   -0.10    8.50
   6  -2  17   -5.10    9.50
 -11  -1  17   26.10   13.40
 -11  -1  17   32.50   13.90
 -10  -1  17    0.40    8.40
 -10  -1  17    8.50   10.80
  -9  -1  17   -5.50    5.90
  -9  -1  17   -2.40    8.00
   8   1 -17   -6.50   13.80
  -8  -1  17   -0.70   10.60
  -8  -1  17   18.50   11.20
   7   1 -17   10.40   14.90
  -7  -1  17   -7.20    7.10
  -7  -1  17  -12.40    6.40
   6   1 -17    2.40   12.40
  -6  -1  17   13.00    9.80
  -6  -1  17    8.10    7.80
   5   1 -17   79.99   17.80
  -5  -1  17   86.69   15.90
  -5  -1  17   86.29   13.30
   4   1 -17   45.20   15.20
  -4  -1  17   60.19   13.00
  -4  -1  17   51.99   10.30
  -3  -1  17   53.19    9.80
  -3  -1  17   79.79   14.70
  -2  -1  17   19.50    9.70
  -2  -1  17   22.80    9.20
  -2  -1  17   17.60    7.40
  -1  -1  17    5.10    5.80
  -1  -1  17   -9.10    4.90
  -1  -1  17    2.90    6.10
   0  -1  17   -4.30    4.80
   0  -1  17    1.80    7.40
   0  -1  17    1.40    6.40
   1  -1  17    6.60    5.10
   1  -1  17    7.90    8.90
   1  -1  17    3.50    7.20
   2  -1  17   -5.60    9.00
   2  -1  17    5.20    6.00
   2  -1  17    7.10    8.30
   3  -1  17    8.90   10.70
   3  -1  17    6.80    6.40
   3  -1  17   16.60   10.00
   4  -1  17   -1.60   11.70
   4  -1  17   -0.90    7.30
   4  -1  17   12.50   10.30
   5  -1  17   15.20   10.20
   5  -1  17    4.40    9.40
   6  -1  17  -21.40   14.80
   6  -1  17   -3.40    8.40
   6  -1  17   -1.20   10.10
 -11   0  17    9.00   10.70
 -10   0  17    5.00    9.20
 -10   0  17   11.30    9.20
   9   0 -17   56.79   27.00
  -9   0  17  113.59   18.80
  -9   0  17   81.29   16.50
   8   0 -17   -2.40   15.90
  -8   0  17    1.50    7.80
  -8   0  17   13.50    9.70
   7   0 -17   44.50   16.60
  -7   0  17   19.90   10.00
  -7   0  17   44.60   12.70
   6   0 -17    8.10   12.60
  -6   0  17    1.20    6.90
  -6   0  17   14.50   14.20
   5   0 -17  275.97   24.40
  -5   0  17  243.48   17.30
  -5   0  17  241.78   22.20
  -4   0  17   13.70    6.40
  -4   0  17   -0.40    8.80
  -4   0  17    9.10    9.30
  -3   0  17   42.20    8.50
  -3   0  17   59.09   14.10
  -3   0  17   56.69    7.50
  -2   0  17    7.20    8.50
  -2   0  17   -7.80    4.90
  -1   0  17    5.20   13.00
   0   0  17   -4.60    6.40
   1   0  17  113.49   18.70
   2   0  17   17.00   10.00
   2   0  17    3.90    7.00
   2   0  17    9.20    5.10
   3   0  17  113.59   17.50
   3   0  17  100.89   13.90
   3   0  17  122.59   11.30
   4   0  17   -4.00   10.70
   4   0  17    1.40    8.90
   5   0  17   41.90   14.20
   5   0  17   39.90   12.30
   5   0  17   79.79   19.80
   6   0  17   16.80   11.30
   6   0  17   22.70   29.80
   6   0  17    6.00   11.80
 -10   1  17   75.89   17.80
 -10   1  17  106.39   19.30
   9  -1 -17   25.80   17.50
  -9   1  17    2.40    8.50
  -9   1  17   23.00   10.10
   8  -1 -17  134.99   22.90
  -8   1  17  143.79   15.80
  -8   1  17  119.69   17.70
   7  -1 -17   -7.30   10.40
  -7   1  17   -1.40    7.00
   6  -1 -17  266.27   24.40
  -6   1  17  273.97   24.30
  -6   1  17  272.77   18.30
   5  -1 -17    8.60    9.00
  -5   1  17    1.40    7.60
  -5   1  17   -0.70    5.20
  -4   1  17   94.19    9.20
  -4   1  17  137.79    8.50
  -4   1  17   97.29   15.80
  -3   1  17   20.90   10.50
  -2   1  17   44.00   12.70
  -1   1  17    2.10    8.30
   0   1  17  236.78   22.30
   1   1  17    1.40    7.50
   2   1  17   34.40   12.20
   3   1  17   14.20   10.10
   4   1  17   25.20    7.10
   4   1  17    7.60    9.40
   4   1  17   32.60   11.10
   5   1  17    6.10   11.40
   5   1  17   17.20   13.10
   5   1  17    9.50   10.70
 -10   2  17   -0.20    7.90
 -10   2  17    1.40    9.20
   9  -2 -17   -2.30   13.20
  -9   2  17   18.80   10.30
  -9   2  17    4.90    9.20
   8  -2 -17   14.70   13.80
  -8   2  17   -4.20    7.50
  -8   2  17   18.80   10.80
   7  -2 -17   29.70   13.40
  -7   2  17   27.10    9.20
  -7   2  17   17.30    9.80
   6  -2 -17   -0.20   11.50
  -6   2  17   -1.00    8.10
  -6   2  17   -0.40    5.80
  -5   2  17   85.09    8.50
  -5   2  17  112.29   16.30
  -4   2  17    2.20    8.30
  -3   2  17    3.30    7.80
  -2   2  17   -6.70    7.30
  -1   2  17   -2.70    7.10
   0   2  17    8.10    8.50
   1   2  17   -3.50    7.60
   2   2  17    8.70    8.50
   3   2  17   43.10   13.60
   4   2  17   -0.50    9.90
   9  -3 -17    3.10   14.40
  -9   3  17    3.20    8.40
  -9   3  17    7.10   10.10
   8  -3 -17   60.99   17.10
  -8   3  17   60.99   16.20
  -8   3  17   43.00   13.80
   7  -3 -17    2.80   10.00
  -7   3  17   12.40    8.00
  -7   3  17   -3.80    7.20
   6  -3 -17   -4.00    7.00
  -6   3  17   -2.30    8.70
  -6   3  17    3.80    5.40
  -5   3  17   10.90    9.20
  -4   3  17  104.49   19.00
  -3   3  17    4.90    8.20
  -2   3  17   18.40   10.30
  -1   3  17   -2.80    8.40
   0   3  17  214.38   22.70
   1   3  17   19.50   10.60
   2   3  17   83.89   18.10
   3   3  17   10.90   11.30
   8  -4 -17    5.40   12.10
  -8   4  17   11.10    8.30
  -8   4  17   12.20    9.90
   7  -4 -17   11.60    9.90
  -7   4  17   49.00   15.30
  -7   4  17   12.70    7.60
  -6   4  17   -4.70    7.90
  -5   4  17  116.69   17.80
  -4   4  17   -9.70    5.40
  -3   4  17    7.40    7.70
  -2   4  17    0.40    7.80
  -1   4  17  144.99   19.80
   0   4  17   19.00   10.90
   1   4  17  100.59   18.60
   2   4  17   -6.20    8.90
  -7   5  17   -2.80    7.10
  -6   5  17   29.20   12.30
  -5   5  17   12.60   10.10
  -4   5  17   41.10   13.50
  -3   5  17   25.00   11.90
  -2   5  17   34.20   14.00
  -1   5  17   -8.40    7.00
   0   5  17   -6.20    8.50
   1   5  17    4.90   10.10
  -5   6  17  152.78   25.20
  -4   6  17   10.80   11.30
  -3   6  17   -2.30    8.20
  -2   6  17   16.20   11.60
   3  12 -18    7.70   12.60
  -3 -12  18   14.00    8.60
  -3 -12  18  -14.30   20.50
   2  12 -18   18.20   13.90
  -2 -12  18   -6.30   22.50
  -2 -12  18   16.30    8.90
   1  12 -18   21.60   20.10
  -1 -12  18   14.70    9.90
  -1 -12  18   60.69   29.30
   0 -12  18   30.30   25.90
   0 -12  18    9.80    9.90
   1 -12  18   17.10   10.90
   1 -12  18   -5.10   23.90
   5  11 -18   10.70   10.70
  -5 -11  18   -2.70    8.00
  -5 -11  18   22.40   22.40
   4  11 -18   16.10   12.00
  -4 -11  18    7.50    7.80
  -4 -11  18   21.10   22.70
   3  11 -18    7.50   14.80
  -3 -11  18   -1.20    7.70
  -3 -11  18   20.10   24.60
   2  11 -18   54.99   16.00
  -2 -11  18   22.00   23.20
  -2 -11  18   40.80   10.80
  -1 -11  18   -7.30    8.00
  -1 -11  18   21.40   23.60
   0 -11  18    6.40    9.50
   0 -11  18  -14.60   18.40
   1 -11  18   21.60   11.70
   1 -11  18    8.40   23.80
   2 -11  18   78.79   33.60
   3 -11  18   -0.10   21.60
   3 -11  18    8.60   11.40
  -7 -10  18    7.30   19.10
   6  10 -18   10.70   10.80
  -6 -10  18   37.40   13.80
  -6 -10  18   -6.20   17.60
   5  10 -18    6.50   10.60
  -5 -10  18   -9.00   18.20
  -5 -10  18   12.50    7.70
   4  10 -18   22.90   12.50
  -4 -10  18   24.40   21.70
  -4 -10  18   29.10   10.00
   3  10 -18   38.60   14.40
  -3 -10  18   37.90   21.80
  -3 -10  18   32.40   10.20
   2  10 -18   13.10   12.30
  -2 -10  18  -14.60   16.60
  -2 -10  18    7.80    8.50
  -1 -10  18   11.30   19.80
  -1 -10  18    1.20    8.30
   0 -10  18  107.39   16.20
   0 -10  18   90.59   28.20
   1 -10  18   16.30   10.70
   1 -10  18   72.79   28.10
   2 -10  18   -2.50    8.10
   2 -10  18   -5.90   19.60
   3 -10  18    0.00    9.90
   3 -10  18   -5.40   19.50
   4 -10  18   24.40   12.80
   4 -10  18    6.30   21.40
  -8  -9  18   24.60   18.50
   7   9 -18   15.20   10.90
  -7  -9  18   19.90   19.00
  -7  -9  18   21.10    8.00
   6   9 -18   24.90   12.10
  -6  -9  18   24.00    8.30
  -6  -9  18   32.90   21.00
   5   9 -18   20.60   11.60
  -5  -9  18    9.30   18.70
  -5  -9  18   17.60    8.50
   4   9 -18    7.90   11.50
  -4  -9  18   11.90   16.60
  -4  -9  18   -2.40    7.40
   3   9 -18   -7.90    9.90
  -3  -9  18  -10.40   15.80
  -3  -9  18    0.40    7.30
   2   9 -18   -2.00   10.50
  -2  -9  18   -6.30   32.50
  -2  -9  18    9.20    8.20
  -1  -9  18   30.10   26.30
  -1  -9  18   72.69   14.20
   0  -9  18   12.80    9.20
   0  -9  18    9.50   20.80
   1  -9  18   -0.20    7.70
   2  -9  18   29.70   23.70
   2  -9  18   11.90   10.50
   3  -9  18   52.29   14.70
   3  -9  18   40.30   26.30
   4  -9  18    9.30   12.60
   4  -9  18   31.40   26.40
   5  -9  18    5.70   22.50
   5  -9  18   28.80   14.50
   8   8 -18    0.20    9.50
  -8  -8  18    8.40   16.10
  -8  -8  18   14.20    8.70
   7   8 -18   64.09   14.70
  -7  -8  18   45.90   20.20
  -7  -8  18   73.19   12.70
  -6  -8  18   -4.20    7.00
  -6  -8  18   33.40   18.50
   5   8 -18    6.90    9.80
  -5  -8  18   -4.40    6.40
  -5  -8  18   -1.40   22.90
   4   8 -18   10.20   11.00
  -4  -8  18   30.30   19.50
  -4  -8  18   24.20    9.90
   3   8 -18   81.69   15.90
  -3  -8  18   93.69   24.40
  -3  -8  18   75.09   13.80
  -2  -8  18   39.70   21.00
  -2  -8  18   -3.40    7.40
  -1  -8  18   20.30   10.40
  -1  -8  18   14.10   16.70
   0  -8  18    7.30    8.90
   0  -8  18   -0.90   15.00
   1  -8  18   21.50   10.10
   1  -8  18    7.00   17.30
   2  -8  18   23.70   11.30
   2  -8  18   21.50   21.40
   3  -8  18   43.00   22.70
   3  -8  18   29.40   11.50
   4  -8  18    4.00   20.40
   4  -8  18   24.90   11.60
   5  -8  18    8.50   11.40
   5  -8  18    7.00   23.60
   9   7 -18    2.60    9.40
  -9  -7  18   -6.30    6.80
  -9  -7  18   17.20   16.00
   8   7 -18   50.89   13.50
  -8  -7  18   37.30   10.50
  -8  -7  18   68.89   21.40
   7   7 -18   -3.80    8.50
  -7  -7  18   13.80    8.60
  -7  -7  18   -1.30   12.50
   6   7 -18   29.90   10.80
  -6  -7  18   10.10    8.20
  -6  -7  18    7.50   14.30
   5   7 -18   38.30   12.00
  -5  -7  18   39.80   17.30
  -5  -7  18   25.30   10.50
   4   7 -18   20.30   11.30
  -4  -7  18   40.90   11.50
  -4  -7  18   44.00   19.10
  -3  -7  18  -10.10    6.70
  -3  -7  18   -9.30   13.70
  -2  -7  18   31.60   18.80
  -2  -7  18   24.00   10.10
  -1  -7  18   97.99   26.00
  -1  -7  18  140.19   17.30
   0  -7  18   51.79   12.70
   0  -7  18   36.50   18.80
   1  -7  18   49.20   21.50
   1  -7  18   32.40   11.40
   2  -7  18    2.90    9.00
   2  -7  18   10.50   17.40
   3  -7  18   64.39   27.70
   3  -7  18   29.30   13.00
   4  -7  18   11.80   10.70
   4  -7  18  -23.50   14.60
   5  -7  18   59.79   16.20
   5  -7  18  116.39   38.80
   6  -7  18  -17.20   20.20
   6  -7  18   -9.70    9.20
   9   6 -18   -5.90   13.20
  -9  -6  18   15.60   14.30
  -9  -6  18   -1.30    7.40
   8   6 -18   16.10   10.30
  -8  -6  18    3.80    8.00
  -8  -6  18    5.00   12.90
   7   6 -18   41.60   12.70
  -7  -6  18   42.00   17.50
  -7  -6  18   34.60   10.90
   6   6 -18  110.69   17.40
  -6  -6  18   73.59   13.50
  -6  -6  18   94.29   20.60
   5   6 -18   15.90   11.80
  -5  -6  18   -8.60   11.60
  -5  -6  18    8.10    8.00
  -4  -6  18   26.40   15.20
  -4  -6  18    7.10    7.90
  -3  -6  18  115.29   15.60
  -3  -6  18   88.69   26.30
  -3  -6  18   77.49   20.00
  -2  -6  18  248.98   21.70
  -2  -6  18  295.07   30.70
  -2  -6  18  267.07   34.00
  -1  -6  18   19.10   15.80
  -1  -6  18    6.50   12.70
  -1  -6  18    8.60    8.50
   0  -6  18   43.60   13.00
   0  -6  18   47.70   19.70
   0  -6  18   77.49   22.50
   1  -6  18   16.10   14.60
   1  -6  18    8.10    8.30
   1  -6  18   32.90   19.90
   2  -6  18   74.49   24.10
   2  -6  18   33.60   11.60
   2  -6  18   40.10   16.30
   3  -6  18  -22.40   14.60
   3  -6  18   18.70   11.00
   4  -6  18  288.37   36.50
   4  -6  18  229.98   24.30
   5  -6  18   17.90   11.80
   5  -6  18   -3.60   18.20
   6  -6  18   34.70   15.40
   6  -6  18   39.90   29.70
 -10  -5  18   19.80   15.50
 -10  -5  18   43.50   12.70
  -9  -5  18   28.70   10.80
  -9  -5  18   24.30   15.00
  -8  -5  18   98.59   15.80
  -8  -5  18   82.29   19.60
  -7  -5  18   77.39   19.20
  -7  -5  18   88.29   15.30
  -6  -5  18   15.10    8.30
  -6  -5  18    4.10   11.80
   5   5 -18   -4.70   22.20
  -5  -5  18    5.60    7.80
  -5  -5  18    2.30   11.50
   4   5 -18   31.60   20.30
  -4  -5  18   34.10   10.60
  -4  -5  18   23.30   13.90
  -3  -5  18   50.99   21.30
  -3  -5  18   48.80   12.60
  -3  -5  18   32.10   15.10
  -2  -5  18   12.60   18.30
  -2  -5  18   24.30    9.90
  -2  -5  18   31.80   15.50
  -1  -5  18   19.00    9.30
  -1  -5  18   42.90   17.10
   0  -5  18    0.30    7.80
   0  -5  18   15.50   14.00
   1  -5  18   43.10   18.30
   1  -5  18   70.59   20.30
   1  -5  18    9.20   15.00
   2  -5  18    3.90   15.20
   2  -5  18    3.50   11.20
   2  -5  18    6.60    8.20
   3  -5  18   13.50   13.00
   3  -5  18   27.00   11.70
   3  -5  18   -2.40   14.50
   4  -5  18   13.60   15.40
   4  -5  18   15.40   11.90
   5  -5  18    1.50    9.20
   5  -5  18  -21.40   15.30
   6  -5  18   23.80   22.20
   6  -5  18    9.20   10.80
 -10  -4  18   35.60   12.10
 -10  -4  18   56.49   17.90
  -9  -4  18   65.59   14.40
  -8  -4  18   -0.50   11.00
  -8  -4  18    7.20    9.10
  -7  -4  18   -7.90    8.90
  -7  -4  18    2.60    8.20
   6   4 -18   37.40   20.40
  -6  -4  18   20.20    9.90
  -6  -4  18   21.20   12.90
   5   4 -18    8.40   16.60
  -5  -4  18   12.60    8.60
  -5  -4  18   25.40   12.20
   4   4 -18  -10.40   25.50
  -4  -4  18   -7.40    9.20
  -4  -4  18    3.70    7.30
  -3  -4  18    1.60    7.20
  -3  -4  18    7.80   10.60
  -3  -4  18   -2.70   14.60
  -2  -4  18  104.89   21.80
  -2  -4  18   76.69   14.40
  -2  -4  18  108.79   19.30
  -1  -4  18    4.00    8.30
  -1  -4  18   -2.10   11.90
  -1  -4  18   -0.70   11.50
   0  -4  18   13.80   13.10
   0  -4  18    3.10   11.30
   0  -4  18   12.90    8.20
   1  -4  18   -5.70    6.80
   1  -4  18    2.00   13.40
   1  -4  18    1.30   10.30
   2  -4  18   30.20   11.90
   2  -4  18   29.40   12.40
   2  -4  18   29.10   16.50
   3  -4  18   17.80   20.00
   3  -4  18   17.00   18.80
   3  -4  18    8.90    9.20
   4  -4  18   44.80   21.40
   4  -4  18   24.80   12.80
   4  -4  18   33.40   13.00
   5  -4  18    5.70    9.70
   5  -4  18  -13.10    8.40
   5  -4  18  -18.60   15.30
   6  -4  18    3.70    9.90
   6  -4  18   14.70   21.70
 -10  -3  18   -1.70    8.30
 -10  -3  18   -4.80   10.00
  -9  -3  18    9.80    9.50
  -9  -3  18   -3.90    8.70
  -8  -3  18   44.90   15.30
  -8  -3  18   53.79   13.00
   7   3 -18  120.19   28.90
  -7  -3  18  105.39   16.00
  -7  -3  18  115.99   19.10
   6   3 -18   20.60   16.90
  -6  -3  18   20.50   10.90
  -6  -3  18    7.90    7.40
   5   3 -18    0.10   14.40
  -5  -3  18    8.50    8.00
  -5  -3  18   11.10   10.10
   4   3 -18   10.30   14.70
  -4  -3  18   16.90   10.40
  -4  -3  18    8.20    8.30
  -3  -3  18  357.46   26.30
  -3  -3  18  334.77   26.20
  -3  -3  18  352.66   31.50
  -2  -3  18   21.80   10.80
  -2  -3  18    1.00    8.00
  -2  -3  18   -3.50   11.30
  -1  -3  18   25.80   12.30
  -1  -3  18   43.60   13.50
  -1  -3  18   50.79   13.90
   0  -3  18   12.10   11.20
   0  -3  18   14.60    9.70
   1  -3  18   -1.20   11.80
   1  -3  18   20.20   10.10
   1  -3  18   16.90    9.10
   2  -3  18   -2.90    7.70
   2  -3  18   -6.90   19.00
   2  -3  18    1.10    7.90
   3  -3  18   55.39   19.00
   3  -3  18  113.99   20.00
   3  -3  18   58.09   12.90
   4  -3  18   14.30    8.90
   4  -3  18  -10.00   13.60
   4  -3  18    1.40    7.20
   5  -3  18   -5.70   16.00
   5  -3  18   19.20   11.00
   5  -3  18   14.40   10.60
   6  -3  18   10.20   12.80
   6  -3  18   -4.10   18.00
   6  -3  18   -4.90    8.50
 -10  -2  18   19.70   13.40
 -10  -2  18   32.80   12.80
  -9  -2  18   30.20   12.60
  -9  -2  18   26.70   10.50
  -8  -2  18    4.00    9.70
  -8  -2  18   -1.50    8.30
   7   2 -18  -14.00   12.90
  -7  -2  18    4.20    9.20
  -7  -2  18   10.60    8.10
   6   2 -18    9.30   15.60
  -6  -2  18    0.80    7.70
  -6  -2  18   -4.20    8.00
   5   2 -18   19.00   15.10
  -5  -2  18    6.50    8.90
  -5  -2  18   22.40   10.10
  -4  -2  18    9.10    8.00
  -4  -2  18    0.40    8.20
  -3  -2  18   14.40   10.50
  -3  -2  18   -5.90   10.10
  -3  -2  18    7.50    9.20
  -2  -2  18  276.57   20.50
  -2  -2  18  330.17   25.50
  -2  -2  18  277.17   22.90
  -1  -2  18  -13.00    6.70
  -1  -2  18   -0.90    8.30
   0  -2  18   63.39   12.90
   0  -2  18   31.80   11.10
   0  -2  18   53.79   10.40
   1  -2  18   14.60    9.70
   1  -2  18   -8.00    9.70
   1  -2  18    8.10    6.90
   2  -2  18    4.80    8.30
   2  -2  18    4.70    6.90
   2  -2  18   11.50   11.90
   3  -2  18    0.10    6.80
   3  -2  18   15.50   13.40
   3  -2  18   15.30   10.90
   4  -2  18    3.50   16.70
   4  -2  18   10.00    8.30
   4  -2  18   -6.80    7.30
   5  -2  18    6.00   17.30
   5  -2  18    7.60    9.30
   5  -2  18    0.70   10.80
 -10  -1  18   39.10   14.80
 -10  -1  18   33.50   13.10
  -9  -1  18   28.10   10.90
  -9  -1  18    3.50    9.20
   8   1 -18    4.20   16.30
  -8  -1  18   31.00   11.60
  -8  -1  18   23.80   11.10
   7   1 -18    8.30   14.40
  -7  -1  18    3.30    9.10
  -7  -1  18   18.40    9.50
   6   1 -18   -7.20   12.60
  -6  -1  18    4.40    8.80
  -6  -1  18   -2.50    7.70
   5   1 -18  147.69   24.50
  -5  -1  18  160.98   15.50
  -5  -1  18  182.28   25.70
  -4  -1  18   47.10   19.30
  -4  -1  18   53.49   10.40
  -4  -1  18   47.90   14.40
  -3  -1  18   36.80    8.60
  -3  -1  18   28.00   19.10
  -3  -1  18   31.10   17.80
  -2  -1  18    6.30    6.70
  -2  -1  18   19.20    7.40
  -2  -1  18   14.80   10.10
  -1  -1  18    9.00    6.30
  -1  -1  18    4.70    5.50
  -1  -1  18   11.70   10.10
   0  -1  18    2.90    4.70
   0  -1  18   -0.10    6.00
   0  -1  18   -0.70    6.80
   1  -1  18    6.10    5.00
   1  -1  18   10.30    7.40
   1  -1  18   10.80    9.70
   2  -1  18    2.30    5.50
   2  -1  18    9.80    8.60
   2  -1  18    0.90    9.00
   3  -1  18   61.29   12.40
   3  -1  18   76.29   16.70
   3  -1  18   86.29   16.80
   4  -1  18   42.40   16.30
   4  -1  18   15.20    9.30
   4  -1  18   17.20   10.60
   5  -1  18   25.60   12.80
   5  -1  18   56.69   31.10
   5  -1  18    0.20   10.20
 -10   0  18    0.00    8.80
 -10   0  18   14.90   10.40
   9   0 -18   -6.80   17.60
  -9   0  18    0.30    8.20
  -9   0  18    2.20    8.30
   8   0 -18  195.68   36.10
  -8   0  18  169.58   21.10
  -8   0  18  195.38   18.70
   7   0 -18  -17.30   11.40
  -7   0  18    5.00    7.80
  -7   0  18    5.60    9.20
   6   0 -18   60.29   17.60
  -6   0  18   59.69   14.10
  -6   0  18   74.39   12.50
   5   0 -18   -6.90    9.90
  -5   0  18   17.30    9.90
  -5   0  18    8.20    7.00
  -4   0  18   60.79    8.90
  -4   0  18   51.69   11.20
  -4   0  18   38.10   12.60
  -3   0  18    1.60    3.90
  -3   0  18    7.90    4.80
  -3   0  18    3.80    9.30
  -2   0  18  161.38   19.30
  -1   0  18   -1.70    8.00
   0   0  18   23.90   10.40
   1   0  18   -6.30    6.00
   2   0  18  139.99   19.10
   3   0  18   12.10    6.00
   3   0  18   13.40    8.80
   3   0  18   15.50   10.60
   4   0  18   91.29   19.50
   4   0  18   88.69   15.20
   4   0  18   70.69   11.40
   5   0  18   -4.80    8.50
   5   0  18    2.80   13.30
   5   0  18   -1.70    9.50
   9  -1 -18  121.89   26.80
  -9   1  18  102.79   15.90
  -9   1  18  134.89   19.40
   8  -1 -18   13.00   15.50
  -8   1  18    0.50    7.80
  -8   1  18   -1.70    7.20
   7  -1 -18    2.60   12.70
  -7   1  18   14.10   10.80
  -7   1  18   14.70    8.70
   6  -1 -18    4.90   10.90
  -6   1  18   23.20    7.90
  -6   1  18   13.50    9.30
  -5   1  18   65.09   16.60
  -5   1  18   49.60    7.60
  -4   1  18   -8.50    5.80
  -3   1  18   44.70   14.50
  -2   1  18    8.00    9.40
  -1   1  18   15.20    9.50
   0   1  18   -6.50    7.10
   1   1  18   41.60   13.40
   2   1  18    3.80    9.10
   3   1  18    2.60    9.70
   4   1  18   17.70   12.60
   9  -2 -18   17.30   19.10
  -9   2  18    7.20    8.80
  -9   2  18   -1.60    6.90
   8  -2 -18    3.60   13.50
  -8   2  18    5.80    9.00
  -8   2  18   13.60    9.30
   7  -2 -18   -0.20   12.20
  -7   2  18    8.90    7.30
  -7   2  18    3.30    8.30
   6  -2 -18   92.29   14.90
  -6   2  18  155.48   19.40
  -6   2  18  119.89   11.00
  -5   2  18   15.10    8.80
  -4   2  18    6.50    9.40
  -3   2  18   -0.40    8.00
  -2   2  18  116.29   18.00
  -1   2  18    9.50    9.80
   0   2  18   57.09   14.30
   1   2  18    4.20    8.20
   2   2  18   82.69   17.90
   3   2  18    2.40    8.60
   8  -3 -18   -3.50   11.40
  -8   3  18   13.20    8.30
  -8   3  18   11.00   10.30
   7  -3 -18   35.10   13.30
  -7   3  18   48.40   14.40
  -7   3  18   43.50    9.00
  -6   3  18   -1.20    8.20
  -5   3  18   18.20   11.20
  -4   3  18   -9.10    6.40
  -3   3  18  161.38   20.40
  -2   3  18    6.30    9.80
  -1   3  18   -3.60    8.10
   0   3  18    2.90    9.20
   1   3  18  109.99   20.30
   2   3  18    3.50    9.80
  -7   4  18   11.10    9.70
  -6   4  18   20.90   10.90
  -5   4  18   13.20    9.80
  -4   4  18  137.69   23.00
  -3   4  18   -2.50    8.50
  -2   4  18   70.69   17.00
  -1   4  18    7.40   10.40
   0   4  18   10.00   11.00
  -4   5  18    3.60    9.30
  -3   5  18   37.70   15.00
  -2   5  18    7.90    9.10
   4  11 -19   18.00   19.50
  -4 -11  19   13.90    9.10
  -4 -11  19   39.10   25.30
   3  11 -19   22.20   15.10
  -3 -11  19  -10.70   20.00
  -3 -11  19   28.60   10.40
  -2 -11  19   33.10   24.20
  -2 -11  19   20.00    9.90
  -1 -11  19   22.30   10.90
  -1 -11  19   44.50   27.30
   0 -11  19   37.40   23.70
   0 -11  19   -5.40    8.30
   1 -11  19   -3.70   20.90
   1 -11  19    8.30    9.90
   5  10 -19   52.59   20.70
  -5 -10  19   31.10    9.50
  -5 -10  19   30.30   21.80
   4  10 -19   -1.30   12.50
  -4 -10  19    9.80    9.30
  -4 -10  19   36.60   22.80
   3  10 -19    1.70   13.60
  -3 -10  19   33.50   10.60
  -3 -10  19   34.00   24.70
  -2 -10  19  -20.70   16.60
  -2 -10  19   18.20   10.60
  -1 -10  19    1.50    8.90
  -1 -10  19  -12.20   18.00
   0 -10  19   32.90   12.00
   0 -10  19   44.00   24.90
   1 -10  19   86.79   27.70
   1 -10  19   74.29   17.30
   2 -10  19    2.70    9.60
   2 -10  19   23.10   24.80
   3 -10  19   -3.80   21.30
   3 -10  19   -4.90    8.60
   7   9 -19   38.90   14.60
  -7  -9  19   68.09   12.10
  -7  -9  19   56.39   21.40
   6   9 -19    9.10   14.40
  -6  -9  19   -5.70   16.00
  -6  -9  19   10.20    8.60
   5   9 -19   30.20   13.50
  -5  -9  19   13.20    9.00
  -5  -9  19   15.20   19.50
   4   9 -19   13.60   12.00
  -4  -9  19    8.80    8.80
  -4  -9  19   16.80   19.70
  -3  -9  19  -12.40   15.60
  -3  -9  19    5.90    9.00
  -2  -9  19   25.70   21.70
  -2  -9  19   -2.70    8.20
  -1  -9  19   80.89   15.50
  -1  -9  19   62.49   24.40
   0  -9  19   32.90   12.30
   0  -9  19   18.40   19.20
   1  -9  19   24.10   11.50
   1  -9  19   32.80   23.20
   2  -9  19   15.40    9.60
   2  -9  19    4.80   20.40
   3  -9  19   28.20   13.10
   3  -9  19   54.49   26.40
   4  -9  19    9.10   10.10
   4  -9  19  -13.00   18.30
   7   8 -19   12.80   11.40
  -7  -8  19   21.60   17.00
  -7  -8  19    5.40    8.50
   6   8 -19   58.19   15.50
  -6  -8  19   66.39   13.20
  -6  -8  19   63.89   24.10
   5   8 -19    1.50   10.20
  -5  -8  19   -1.30    7.50
  -5  -8  19   18.00   16.10
  -4  -8  19   22.10   10.50
  -3  -8  19    9.30    9.30
  -3  -8  19   29.00   20.20
  -2  -8  19   40.20   11.90
  -2  -8  19    2.90   17.20
  -1  -8  19    4.50    8.00
  -1  -8  19   12.70   19.90
   0  -8  19   18.90   11.90
   0  -8  19   -5.00   17.70
   1  -8  19    3.00    8.90
   1  -8  19   37.40   22.50
   2  -8  19   17.80   21.80
   2  -8  19    1.00    9.50
   3  -8  19   -1.20   10.10
   4  -8  19  -17.70   18.70
   4  -8  19   -8.50    8.20
   8   7 -19   11.00   15.10
  -8  -7  19   37.90   18.90
  -8  -7  19   13.80    8.40
   7   7 -19  -15.50   13.80
  -7  -7  19    7.10   15.70
  -7  -7  19   -5.40    8.00
  -6  -7  19    6.70   18.10
  -6  -7  19   -9.90    7.00
  -5  -7  19   -1.40    8.20
  -5  -7  19    0.80   14.90
  -4  -7  19    2.20   15.30
  -4  -7  19   20.80    9.70
  -3  -7  19   -6.10   15.20
  -3  -7  19    6.90   10.30
  -2  -7  19    6.20    9.90
  -2  -7  19    5.30   16.20
  -1  -7  19   27.10   17.60
  -1  -7  19   20.00    9.60
   0  -7  19  189.78   32.40
   0  -7  19  170.98   28.90
   1  -7  19    9.30    9.10
   1  -7  19    1.40   17.10
   2  -7  19  134.39   19.00
   2  -7  19   71.29   23.40
   3  -7  19   20.70   12.10
   3  -7  19   10.60   20.30
   4  -7  19  161.68   35.00
   4  -7  19  216.28   23.80
   5  -7  19   26.00   23.30
   5  -7  19    2.90   10.00
  -9  -6  19    8.10    9.30
  -9  -6  19   18.40   15.10
  -8  -6  19   -7.40   11.60
  -8  -6  19   -2.50    8.40
  -7  -6  19   12.60    9.20
  -6  -6  19   60.89   12.90
  -6  -6  19   33.20   16.40
  -5  -6  19   30.00   10.70
  -5  -6  19   26.10   14.40
  -4  -6  19   -4.60   12.20
  -4  -6  19   -1.20    7.40
  -3  -6  19   23.40   15.10
  -3  -6  19   29.60   11.60
  -2  -6  19   53.29   13.30
  -2  -6  19   61.09   19.30
  -2  -6  19   47.80   20.90
  -1  -6  19   97.39   24.00
  -1  -6  19   74.29   14.90
  -1  -6  19   45.20   19.90
   0  -6  19    5.40   15.80
   0  -6  19   -2.60   13.90
   0  -6  19   13.60   11.70
   1  -6  19   -0.70    8.10
   1  -6  19   -7.20   13.30
   1  -6  19   25.90   19.40
   2  -6  19   -6.40    9.70
   2  -6  19   -9.90   15.60
   3  -6  19  139.79   20.10
   3  -6  19  203.08   31.30
   4  -6  19   19.20   21.00
   4  -6  19   18.60   11.70
   5  -6  19    8.70   19.90
   5  -6  19    0.00    9.10
  -9  -5  19   47.30   12.40
  -9  -5  19   17.60   13.50
  -8  -5  19   16.90   11.30
  -7  -5  19  158.08   18.00
  -7  -5  19   88.99   18.90
  -6  -5  19    1.70   12.20
  -6  -5  19   -3.20    6.80
  -5  -5  19    8.00   11.50
  -5  -5  19   15.80   10.00
   4   5 -19   90.59   26.60
  -4  -5  19  105.89   18.50
  -4  -5  19   87.99   19.80
  -3  -5  19   58.09   14.10
  -3  -5  19   66.29   22.90
  -3  -5  19   54.79   16.50
  -2  -5  19   16.70   14.10
  -2  -5  19   10.20    9.00
  -2  -5  19   37.40   18.70
  -1  -5  19    6.80   11.40
  -1  -5  19    7.60   12.30
  -1  -5  19    2.60   14.20
   0  -5  19   25.40   16.50
   0  -5  19   19.00   10.70
   0  -5  19    5.60   14.30
   1  -5  19    2.70   12.30
   1  -5  19   15.00   14.70
   1  -5  19    2.80    9.40
   2  -5  19   -2.70   15.30
   2  -5  19   11.20   10.60
   2  -5  19    9.50   12.30
   3  -5  19    5.10   15.80
   3  -5  19   -8.80    7.60
   3  -5  19    5.80   12.60
   4  -5  19   27.60   20.40
   4  -5  19   -8.20    8.50
   5  -5  19  -19.50   16.10
   5  -5  19   11.90   11.40
  -9  -4  19   37.80   15.60
  -9  -4  19   41.60   19.10
  -8  -4  19   -9.90    7.10
  -8  -4  19   16.10   12.30
  -7  -4  19    8.10    8.70
  -7  -4  19   10.90   11.70
  -6  -4  19    6.10    8.20
  -6  -4  19    0.50    9.90
   5   4 -19  165.38   29.90
  -5  -4  19  182.48   22.00
  -5  -4  19  236.98   21.70
  -4  -4  19   11.40   11.20
  -4  -4  19   -5.60    7.10
  -4  -4  19   -0.70   18.70
  -3  -4  19    4.00    9.60
  -3  -4  19   21.10   17.00
  -3  -4  19    7.70    8.90
  -2  -4  19   -8.00   13.00
  -2  -4  19   -4.40    8.80
  -2  -4  19   12.70   11.20
  -1  -4  19   70.49   18.30
  -1  -4  19   62.19   16.70
  -1  -4  19   99.29   18.90
   0  -4  19    7.60   11.80
   0  -4  19    4.00   11.50
   0  -4  19  -14.20    6.40
   1  -4  19   -4.60    8.00
   1  -4  19   29.40   15.10
   1  -4  19    1.50   10.20
   2  -4  19   -0.20    9.60
   2  -4  19    8.60   14.20
   2  -4  19   -1.60    8.60
   3  -4  19    7.90   13.40
   3  -4  19   -7.10    8.70
   3  -4  19    4.10   15.80
   4  -4  19   14.90   10.50
   4  -4  19    0.20    8.50
   4  -4  19    1.50   15.80
   5  -4  19   53.99   15.50
   5  -4  19   68.79   24.60
  -9  -3  19   14.70    9.70
  -9  -3  19   -2.50   10.50
  -8  -3  19    2.20   10.30
  -8  -3  19    1.90    7.90
  -7  -3  19   -2.90    7.80
  -7  -3  19   -6.10    8.00
   6   3 -19   39.40   20.30
  -6  -3  19   56.49   14.30
   5   3 -19  -13.10   14.90
  -5  -3  19    6.40    9.80
  -5  -3  19   -7.40    9.10
  -4  -3  19   -6.10   13.70
  -4  -3  19   -0.80   12.90
  -4  -3  19   12.50   10.70
  -3  -3  19   34.40   16.30
  -3  -3  19   25.20   10.90
  -3  -3  19   18.70   14.40
  -2  -3  19  108.89   19.50
  -2  -3  19  102.79   19.00
  -2  -3  19   69.19   23.10
  -1  -3  19   17.70   11.00
  -1  -3  19   -3.20   10.10
  -1  -3  19   -6.00    7.30
   0  -3  19  -10.80    9.60
   0  -3  19    9.90    8.20
   0  -3  19    1.50    8.80
   1  -3  19   -2.80    7.40
   1  -3  19   26.70   13.10
   1  -3  19    6.70    9.30
   2  -3  19   -0.50    7.60
   2  -3  19    2.40    9.10
   2  -3  19   33.30   23.70
   3  -3  19   -1.20    7.90
   3  -3  19    2.20   13.10
   3  -3  19    6.70    8.70
   4  -3  19   50.89   15.50
   4  -3  19   49.80   12.50
   4  -3  19   79.49   21.60
   5  -3  19   13.80   10.60
   5  -3  19    9.00   16.90
   5  -3  19    2.30    9.30
  -9  -2  19   55.79   14.20
  -9  -2  19   28.40   11.10
  -8  -2  19   13.20   10.40
  -8  -2  19   21.10   11.00
   7   2 -19    8.40   16.40
  -7  -2  19   13.60    9.80
  -7  -2  19   18.90   10.70
   6   2 -19    4.40   15.20
  -6  -2  19   -1.70    8.70
  -6  -2  19    9.00    9.90
   5   2 -19   49.80   18.60
  -5  -2  19   90.79   13.80
  -5  -2  19   62.59   15.90
  -4  -2  19    4.90    8.10
  -4  -2  19   -1.00    8.90
  -4  -2  19   16.20   13.20
  -3  -2  19   -2.20    7.10
  -3  -2  19    6.30   10.40
  -3  -2  19   -1.90    8.10
  -2  -2  19   14.60   10.10
  -2  -2  19   23.60   10.40
  -2  -2  19   30.40    9.80
  -1  -2  19   34.00   13.00
  -1  -2  19   45.30   10.90
  -1  -2  19   35.60   10.70
   0  -2  19    3.20    6.90
   0  -2  19    4.70    9.00
   0  -2  19   12.40    9.50
   1  -2  19  163.08   17.60
   1  -2  19  158.78   19.80
   1  -2  19  148.09   13.20
   2  -2  19   -0.20    6.80
   2  -2  19   13.70   11.70
   2  -2  19   -7.40    7.00
   3  -2  19   -0.50    8.20
   3  -2  19    4.30    7.30
   3  -2  19   10.40   13.30
   4  -2  19    1.30    8.50
   4  -2  19   12.60   11.10
  -9  -1  19    8.50    9.10
  -9  -1  19    6.90    9.50
   8   1 -19    0.80   16.90
  -8  -1  19   -6.10    7.70
  -8  -1  19   -9.40    7.20
   7   1 -19   -0.40   15.70
  -7  -1  19   -9.30    7.40
  -7  -1  19    0.40    9.10
   6   1 -19  158.08   25.10
  -6  -1  19  153.08   16.00
  -6  -1  19  173.18   20.30
  -5  -1  19    1.40    9.40
  -5  -1  19    6.40    7.30
  -4  -1  19  148.89   18.70
  -4  -1  19  173.28   19.60
  -4  -1  19  141.69   13.60
  -3  -1  19    0.10    5.90
  -3  -1  19   -6.10    7.30
  -3  -1  19    3.90    9.90
  -2  -1  19   81.29    9.20
  -2  -1  19  102.79   18.30
  -2  -1  19   86.79    9.70
  -1  -1  19   10.40    4.70
  -1  -1  19   -1.50    4.60
  -1  -1  19    5.10    8.50
   0  -1  19   94.79    7.00
   0  -1  19   86.19    8.50
   0  -1  19  129.89   17.90
   1  -1  19    3.30    4.30
   1  -1  19   -4.60    5.70
   1  -1  19    6.00    8.40
   2  -1  19   19.40   11.30
   2  -1  19   13.40    5.70
   2  -1  19   20.00    8.60
   3  -1  19   18.70   10.80
   3  -1  19   -3.60    8.80
   3  -1  19    1.40    8.60
   4  -1  19   51.49   11.40
   4  -1  19   64.79   16.90
   4  -1  19   49.10   14.70
  -9   0  19    4.00    8.20
  -9   0  19   -1.10    8.00
   8   0 -19   21.80   25.70
  -8   0  19   10.40   10.70
  -8   0  19   17.50    9.70
   7   0 -19   82.69   21.60
  -7   0  19   93.49   18.10
  -7   0  19   86.99   13.60
   6   0 -19    5.00   13.20
  -6   0  19    2.80    8.20
  -6   0  19   16.60    7.60
  -5   0  19   61.69   15.60
  -5   0  19   59.89   10.00
  -4   0  19   11.20    5.30
  -4   0  19   10.30    6.60
  -4   0  19   23.20   10.90
  -3   0  19    0.60    9.00
  -2   0  19    5.90    9.00
  -1   0  19   21.30   11.40
   0   0  19    0.90    7.80
   1   0  19    0.20    8.10
   2   0  19   -4.90    8.20
   3   0  19   84.89   18.70
   8  -1 -19   94.49   22.90
  -8   1  19  114.69   20.70
  -8   1  19   95.29   14.10
   7  -1 -19   12.30   13.60
  -7   1  19   22.50    8.50
  -7   1  19   -6.90    7.30
  -6   1  19   64.39   15.70
  -6   1  19   56.79    9.50
  -5   1  19    0.80    8.20
  -4   1  19   16.90   10.20
  -3   1  19    2.80    8.60
  -2   1  19   15.10   10.90
  -1   1  19    3.60    9.00
   0   1  19   72.39   16.10
   1   1  19   12.90   10.60
   2   1  19   15.10   11.20
   7  -2 -19   91.79   25.70
  -7   2  19  104.09   20.50
  -7   2  19  109.69   12.30
  -6   2  19    2.00    7.60
  -5   2  19   22.00   12.40
  -4   2  19    0.90    9.60
  -3   2  19   27.40   12.00
  -2   2  19    6.30    9.60
  -1   2  19  170.58   21.40
   0   2  19   -1.50    8.80
   1   2  19   13.60   11.80
  -6   3  19   30.10   13.20
  -5   3  19   10.50    9.60
  -4   3  19   81.59   18.50
  -3   3  19    7.50   10.50
  -2   3  19   68.89   16.80
  -1   3  19    3.80    9.60
   0   3  19    7.60   10.10
  -4 -10  20    3.10    9.60
  -4 -10  20   -2.70   19.10
  -3 -10  20   17.70   10.00
  -3 -10  20  -16.90   18.30
  -2 -10  20   31.30   12.30
  -2 -10  20    8.90   20.40
  -1 -10  20    8.90   10.20
  -1 -10  20   14.00   20.60
   0 -10  20   11.30   10.40
   0 -10  20    2.70   22.00
   1 -10  20   33.20   12.50
   1 -10  20   38.50   26.10
  -5  -9  20    2.30   18.20
  -5  -9  20   13.10    9.40
  -4  -9  20   11.80   10.10
  -4  -9  20  -22.80   14.80
  -3  -9  20    1.80   17.80
  -3  -9  20   14.00    9.60
  -2  -9  20  -12.10   14.90
  -2  -9  20  -13.70    6.60
  -1  -9  20   34.60   23.60
   0  -9  20   61.19   15.20
   0  -9  20   41.50   22.90
   1  -9  20   -1.60    9.40
   1  -9  20   -8.40   18.30
   2  -9  20    7.20   22.30
   2  -9  20  -11.40    8.30
  -6  -8  20   29.10   11.30
  -6  -8  20  -10.60   13.60
  -5  -8  20   19.40    9.60
  -5  -8  20    0.10   15.50
  -4  -8  20   19.90   17.50
  -4  -8  20    6.60    8.80
  -3  -8  20   49.10   12.50
  -2  -8  20   49.99   12.60
  -2  -8  20   66.59   22.30
  -1  -8  20   -5.80    8.80
  -1  -8  20   -0.70   17.00
   0  -8  20   19.60   20.50
   0  -8  20    7.00    9.40
   1  -8  20    0.60    8.30
   1  -8  20   12.30   20.90
   2  -8  20  -10.90   33.70
   2  -8  20   51.39   14.10
   3  -8  20    8.20   11.10
   3  -8  20   -1.30   19.70
  -7  -7  20   23.40   10.70
  -7  -7  20   -2.10   13.90
  -6  -7  20   16.70   16.70
  -6  -7  20   18.30    9.80
  -5  -7  20   10.70    9.80
  -5  -7  20   -9.60   15.30
  -4  -7  20   -1.60   14.90
  -4  -7  20    8.30    9.50
  -3  -7  20   35.40   18.80
  -3  -7  20   20.00   10.40
  -2  -7  20    3.00    8.60
  -2  -7  20   15.80   16.70
  -1  -7  20  -21.50   13.10
  -1  -7  20    8.60    9.30
   0  -7  20   12.80    9.70
   0  -7  20   27.70   20.30
   1  -7  20   58.19   14.70
   1  -7  20   73.79   26.60
   2  -7  20   33.70   13.50
   2  -7  20   21.20   21.10
   3  -7  20    8.90   19.80
   3  -7  20    2.00   10.40
  -8  -6  20   20.60   15.00
  -8  -6  20   11.10   10.30
  -7  -6  20   36.20   12.20
  -7  -6  20   39.10   16.50
  -6  -6  20   -1.00    8.00
  -6  -6  20   13.70   13.20
  -5  -6  20    6.10    8.60
  -5  -6  20   16.20   14.30
  -4  -6  20    0.50    8.90
  -4  -6  20    0.80   12.20
  -3  -6  20   -9.50    9.50
  -3  -6  20   -8.80   11.80
  -2  -6  20   10.20    9.80
  -2  -6  20   48.60   18.70
  -1  -6  20    4.20   15.00
  -1  -6  20   32.10   12.10
   0  -6  20   23.00   11.10
   0  -6  20   23.80   18.20
   1  -6  20   -4.70    7.20
   1  -6  20   14.50   15.20
   2  -6  20   52.29   22.40
   2  -6  20   41.40   12.80
   3  -6  20   15.00   11.50
   3  -6  20    3.70   16.80
  -8  -5  20   10.90   16.70
  -8  -5  20   -3.40   10.60
  -7  -5  20   -0.70   11.10
  -7  -5  20   29.50   15.70
  -6  -5  20   17.90   13.30
  -6  -5  20   -0.70    9.10
  -5  -5  20   11.00   12.80
  -5  -5  20    5.20   10.60
  -4  -5  20    2.60   11.60
  -4  -5  20    1.40   18.50
  -3  -5  20  180.08   20.90
  -3  -5  20  112.59   25.90
  -3  -5  20  160.68   22.00
  -2  -5  20    5.80   13.20
  -2  -5  20    7.90    9.50
  -2  -5  20   -0.90   15.20
  -1  -5  20   -0.40   13.40
  -1  -5  20   -6.00    7.20
  -1  -5  20    4.60   14.50
   0  -5  20   14.80   14.20
   0  -5  20   10.40   14.70
   0  -5  20  -11.00    6.70
   1  -5  20   32.90   17.50
   1  -5  20   14.70   11.30
   2  -5  20   -8.10   15.00
   2  -5  20    5.80   10.70
   2  -5  20    3.30   11.70
   3  -5  20   87.79   18.60
   3  -5  20   43.70   17.90
   3  -5  20   79.09   24.50
   4  -5  20   10.70   11.30
   4  -5  20    8.10   18.80
  -8  -4  20   54.09   16.70
  -8  -4  20   77.19   16.70
  -7  -4  20   21.70   12.90
  -7  -4  20    1.30    8.10
  -6  -4  20   13.60    9.30
  -6  -4  20   15.90   12.10
   5   4 -20   24.80   19.80
  -5  -4  20    9.40    8.90
  -5  -4  20   31.20   13.40
  -4  -4  20  179.68   30.20
  -4  -4  20  214.28   21.90
  -4  -4  20  181.98   21.30
  -3  -4  20   18.30   12.10
  -3  -4  20    0.50    7.90
  -3  -4  20   31.30   17.70
  -2  -4  20   10.00   11.40
  -2  -4  20    7.70   14.90
  -2  -4  20   11.80    9.90
  -1  -4  20   11.40   11.80
  -1  -4  20   10.90   11.60
  -1  -4  20    9.00    8.60
   0  -4  20   31.30   13.30
   0  -4  20   38.20   15.20
   0  -4  20   22.10   11.20
   1  -4  20   13.10    9.60
   1  -4  20   -8.40   11.70
   1  -4  20    8.60   11.30
   2  -4  20   -0.80   13.40
   2  -4  20   21.20   11.70
   2  -4  20   26.50   13.40
   3  -4  20   -4.20    9.10
   3  -4  20    1.40   10.10
   3  -4  20   -2.50   14.20
   4  -4  20    5.10   11.50
  -8  -3  20   15.10   11.70
  -8  -3  20   12.70   10.60
  -7  -3  20   17.60   10.60
  -7  -3  20   25.60   12.00
   6   3 -20   55.39   23.20
  -6  -3  20   39.30   12.80
  -6  -3  20   43.40   12.40
   5   3 -20   27.00   29.40
  -5  -3  20   23.30   11.30
  -5  -3  20   21.20   11.40
  -4  -3  20    4.80   10.70
  -4  -3  20   22.50   16.80
  -4  -3  20    1.20    9.10
  -3  -3  20   17.00   10.70
  -3  -3  20   10.30   14.10
  -3  -3  20   37.00   13.70
  -2  -3  20   28.60   13.00
  -2  -3  20   24.30   17.70
  -2  -3  20   29.40   11.00
  -1  -3  20    7.80   10.10
  -1  -3  20    8.40   11.20
  -1  -3  20   -1.10    9.40
   0  -3  20    9.40    9.00
   0  -3  20    9.00   10.80
   0  -3  20   10.00    9.00
   1  -3  20   18.30   12.10
   1  -3  20    2.80   11.20
   1  -3  20   17.00    9.30
   2  -3  20    4.60   23.20
   2  -3  20    6.80    9.50
   2  -3  20    4.10    8.10
   3  -3  20    4.50    8.80
   3  -3  20   23.10   12.00
   3  -3  20    2.50   15.70
  -8  -2  20   82.49   15.80
  -8  -2  20   39.30   13.40
   7   2 -20    3.30   17.20
  -7  -2  20   -8.30    8.30
  -7  -2  20   14.60    9.90
   6   2 -20   19.30   17.50
  -6  -2  20    6.00    9.90
  -6  -2  20    5.00    8.70
  -5  -2  20   -4.50    7.70
  -5  -2  20  -12.60   13.30
  -5  -2  20   10.20   10.20
  -4  -2  20   60.19   12.30
  -4  -2  20  117.79   21.00
  -4  -2  20   73.89   17.80
  -3  -2  20   10.00    8.10
  -3  -2  20   15.80   10.30
  -3  -2  20   23.90   12.50
  -2  -2  20   40.60   13.90
  -2  -2  20   42.00   10.70
  -2  -2  20   45.40   11.80
  -1  -2  20   57.59   13.50
  -1  -2  20   55.49   13.80
  -1  -2  20   61.59   11.50
   0  -2  20   94.39   13.30
   0  -2  20   55.09   14.20
   1  -2  20    5.60    8.90
   1  -2  20    4.40    8.40
   1  -2  20   14.50    7.80
   2  -2  20   63.69   17.40
   2  -2  20   61.99   10.50
   2  -2  20   81.69   14.60
   3  -2  20    3.20    7.20
   3  -2  20   11.90    9.60
   3  -2  20   -4.60   11.30
   8   1 -20   23.80   20.20
  -8  -1  20   18.60   11.00
  -8  -1  20   11.40   10.80
   7   1 -20   -0.30   16.50
  -7  -1  20    2.20    9.10
  -7  -1  20    5.70    9.10
   6   1 -20   -3.20   14.10
  -6  -1  20    5.90    7.90
  -6  -1  20   12.10    9.20
  -5  -1  20   45.30   13.80
  -5  -1  20   67.99   11.50
  -5  -1  20  100.69   19.60
  -4  -1  20    5.20    6.40
  -4  -1  20    7.50   10.20
  -3  -1  20  103.49   11.90
  -3  -1  20  124.49   18.50
  -3  -1  20  123.09   10.40
  -2  -1  20   12.00    4.90
  -2  -1  20   26.80   13.10
  -2  -1  20   12.10    4.90
  -1  -1  20  134.59   19.20
   0  -1  20   -4.80    7.40
   1  -1  20   69.89   17.00
   2  -1  20    7.10   10.10
   7   0 -20    9.80   15.90
  -7   0  20    9.00    9.40
  -7   0  20    3.00    9.90
  -6   0  20   20.60    7.30
  -6   0  20   10.60   11.10
  -5   0  20    7.60    8.60
  -5   0  20   14.40    8.90
  -5   0  20   10.30    5.80
  -4   0  20   15.40   10.70
  -3   0  20  -12.00    6.90
  -2   0  20   14.80   12.00
  -1   0  20   -5.60    8.00
   0   0  20   20.20   12.30
   1   0  20   -5.20    9.00
   2   0  20   42.20   15.40
   7  -1 -20   10.40   14.10
  -7   1  20   -0.20    8.40
  -7   1  20    7.10    7.10
  -6   1  20    5.10    5.10
  -6   1  20   -3.20    7.70
  -6   1  20    7.20    8.10
  -5   1  20  134.69   19.60
  -4   1  20   -5.90    8.80
  -3   1  20   69.39   17.10
  -2   1  20   10.20    9.80
  -1   1  20   31.30   13.30
   0   1  20  -12.30    7.20
  -5   2  20   22.90   11.50
  -4   2  20   75.59   17.10
  -3   2  20    9.60   10.20
  -2   2  20   36.80   14.10
  -1   2  20   10.30    9.50
  -3  -9  21    0.90   11.30
  -3  -9  21   16.70   19.60
  -2  -9  21   -1.60    8.80
  -2  -9  21   26.70   24.10
  -1  -9  21    0.40    9.20
  -1  -9  21   -7.70   18.40
  -5  -8  21    2.50   16.20
  -5  -8  21    8.10    9.30
  -4  -8  21   26.60   11.90
  -4  -8  21   15.10   18.80
  -3  -8  21   20.70   19.00
  -3  -8  21   31.00   13.80
  -2  -8  21   29.80   24.50
  -2  -8  21   22.70   10.90
  -1  -8  21   18.40   35.10
  -1  -8  21   17.40   11.50
   0  -8  21   -6.40   10.00
   0  -8  21   10.70   37.40
   1  -8  21   -9.60   17.40
   1  -8  21   -4.00   10.30
  -5  -7  21   16.00   14.80
  -5  -7  21   41.30   17.10
  -4  -7  21   33.00   17.10
  -4  -7  21   21.20   12.20
  -3  -7  21   13.20   16.40
  -3  -7  21   11.10   10.10
  -2  -7  21    6.70    9.60
  -2  -7  21  -10.80   14.60
  -1  -7  21   -6.00    8.60
  -1  -7  21    0.70   15.80
   0  -7  21    8.10    9.80
   0  -7  21   28.10   19.40
   1  -7  21   16.00   19.70
   1  -7  21   10.30   10.60
  -6  -6  21    5.00   22.60
  -6  -6  21   21.00   11.50
  -5  -6  21   23.80   14.40
  -5  -6  21   29.30   11.70
  -4  -6  21   -2.60   12.20
  -4  -6  21   -6.70    8.70
  -3  -6  21    3.20   12.50
  -3  -6  21   16.70   10.40
  -2  -6  21   12.10   14.20
  -2  -6  21    7.70    9.60
  -1  -6  21   42.20   17.40
  -1  -6  21   52.99   15.70
   0  -6  21    0.30   14.90
   0  -6  21    4.90    9.90
   1  -6  21    2.00    9.20
   1  -6  21   -4.00   16.00
   2  -6  21   10.40   11.90
   2  -6  21    0.30   17.20
  -7  -5  21    3.10   11.20
  -7  -5  21   -0.60    8.30
  -6  -5  21   33.40   14.50
  -6  -5  21   39.00   13.80
  -5  -5  21    1.40    9.60
  -5  -5  21   19.20   13.10
  -4  -5  21   19.00   10.90
  -4  -5  21   23.30   13.50
  -3  -5  21   17.00   10.50
  -3  -5  21  -14.80    9.80
  -3  -5  21   20.90   19.50
  -2  -5  21   33.70   19.00
  -2  -5  21   70.89   18.30
  -2  -5  21   90.09   18.40
  -1  -5  21   15.20   15.10
  -1  -5  21    2.70    8.90
  -1  -5  21   14.50   15.10
   0  -5  21    8.70    9.40
   0  -5  21    8.20   13.90
   0  -5  21   -5.90   12.60
   1  -5  21    3.70    9.10
   1  -5  21   -1.40   12.20
   1  -5  21   -1.20   13.30
   2  -5  21   99.49   19.60
   2  -5  21   79.19   21.40
   2  -5  21   90.49   19.00
  -7  -4  21   -5.00    7.70
  -7  -4  21   -2.10    9.60
  -6  -4  21   -9.70    7.20
  -6  -4  21    3.40   11.50
  -5  -4  21   32.30   12.90
  -5  -4  21   27.10   12.20
  -5  -4  21   11.00   18.90
  -4  -4  21   26.40   20.00
  -4  -4  21   45.90   14.20
  -4  -4  21   46.30   13.60
  -3  -4  21    2.70   11.60
  -3  -4  21   43.60   14.20
  -2  -4  21   -3.20   10.90
  -2  -4  21   -8.50    6.90
  -2  -4  21   -0.30   13.00
  -1  -4  21   16.50   13.60
  -1  -4  21   -5.20    8.30
  -1  -4  21    4.40   12.20
   0  -4  21   -0.50    8.20
   0  -4  21   -4.00   12.60
   0  -4  21    2.70   10.60
   1  -4  21   10.20   11.40
   1  -4  21   12.00   13.20
   1  -4  21   29.10   12.80
   2  -4  21   18.00   16.60
   2  -4  21   14.70   18.10
   2  -4  21   -1.20    9.50
  -7  -3  21    4.90    9.20
  -7  -3  21   25.80   13.10
   6   3 -21  105.89   28.80
  -6  -3  21   92.89   16.80
  -6  -3  21  147.79   19.50
  -5  -3  21    7.70   30.60
  -5  -3  21   -2.50    7.70
  -5  -3  21   10.50   10.10
  -4  -3  21    7.00   15.90
  -4  -3  21    7.70    9.00
  -4  -3  21   -4.80    8.00
  -3  -3  21    7.40   13.40
  -3  -3  21   11.40   10.60
  -3  -3  21   -4.70    8.90
  -2  -3  21  118.29   18.20
  -2  -3  21   59.79   15.80
  -2  -3  21  133.59   22.30
  -1  -3  21    4.90   10.00
  -1  -3  21    6.70   10.30
  -1  -3  21   13.30   10.60
   0  -3  21   14.20   11.50
   0  -3  21    7.30   10.10
   0  -3  21   10.70    9.10
   1  -3  21   10.80   11.60
   1  -3  21   -0.90    8.20
   1  -3  21   -2.60    7.60
   2  -3  21   10.90    8.30
   6   2 -21    0.30   16.30
  -6  -2  21    4.00    9.00
  -6  -2  21   -5.40    8.20
  -5  -2  21    1.60    8.70
  -5  -2  21    6.30    9.60
  -5  -2  21    4.30   15.00
  -4  -2  21    3.60   11.90
  -4  -2  21    3.90    8.00
  -4  -2  21   -7.80    7.20
  -3  -2  21   34.90   13.30
  -3  -2  21   43.30   11.70
  -3  -2  21   58.09   11.00
  -2  -2  21   18.00    8.20
  -2  -2  21    8.90   11.20
  -2  -2  21   19.90   11.60
  -1  -2  21   58.89   12.20
  -1  -2  21   40.20    9.50
  -1  -2  21   88.49   18.60
   0  -2  21   10.70    7.80
   0  -2  21    6.10    6.70
   0  -2  21    4.70   10.00
   1  -2  21  175.98   21.50
   1  -2  21  137.39   13.30
   1  -2  21  129.39   14.00
  -6  -1  21   -3.40   13.80
  -6  -1  21    2.80    9.10
  -5  -1  21    6.60    7.10
  -5  -1  21   12.40   10.70
  -5  -1  21    6.20   11.70
  -4  -1  21   17.40    6.70
  -4  -1  21   13.00    8.90
  -4  -1  21   -2.10    9.50
  -3  -1  21    1.20    5.20
  -3  -1  21    2.40    9.80
  -2  -1  21   -6.90    8.80
  -1  -1  21   -5.80    9.10
   0  -1  21   77.99   17.60
  -5   0  21   11.60   11.40
  -5   0  21   14.90    5.60
  -4   0  21    5.10    8.20
  -3   0  21   40.90   15.10
  -2   0  21   14.40   11.40
  -1   0  21   29.10   12.20
  -3  -6  22   -2.10    9.70
  -3  -6  22  -10.60   11.20
  -2  -6  22   -0.40   12.60
  -2  -6  22   15.40   11.60
  -1  -6  22    7.40   10.20
  -1  -6  22   15.90   16.10
  -4  -5  22   -3.40   10.20
  -4  -5  22   21.10   13.20
  -3  -5  22   -9.00    8.10
  -3  -5  22   25.80   14.10
  -3  -5  22   19.10   21.60
  -2  -5  22    3.80   16.70
  -2  -5  22   26.10   12.90
  -2  -5  22   -3.00   10.60
  -1  -5  22    5.40   14.60
  -1  -5  22   10.50   10.30
  -1  -5  22   11.60   13.90
  -4  -4  22   34.00   19.80
  -4  -4  22   41.00   13.80
  -4  -4  22   46.00   13.90
  -3  -4  22   21.60   11.80
  -3  -4  22   15.20   12.60
  -2  -4  22   18.40   14.40
  -2  -4  22    3.30   10.00
  -2  -4  22    3.90   11.80
  -1  -4  22    7.00   11.90
  -1  -4  22    8.00   10.00
  -1  -4  22   -6.30   11.20
  -4  -3  22   -7.60    8.50
  -4  -3  22    9.40   14.80
  -4  -3  22   22.20   12.40
  -3  -3  22    9.70   12.80
  -3  -3  22   19.20   10.10
  -3  -3  22    5.00   11.00
  -2  -3  22   10.70   10.90
  -2  -3  22   -0.10    9.20
  -2  -3  22    9.60   10.70
   0   0   0    0.00    0.00

_computing_structure_solution     'SHELXT 2018/2 (Sheldrick, 2018)'
;
_shelx_hkl_checksum   74597

