 
data_1_a
 
_audit_creation_method            'SHELXL-2018/3'
_shelx_SHELXL_version_number      '2018/3'
_chemical_name_systematic         ?
_chemical_name_common             ?
_chemical_melting_point           ?
_chemical_formula_moiety          ?
_chemical_formula_sum
 'C3.07 H0.03 N0.93 O0.67 S0.13 Zn0.13' 
_chemical_formula_weight          73.60

loop_
 _atom_type_symbol
 _atom_type_description
 _atom_type_scat_dispersion_real
 _atom_type_scat_dispersion_imag
 _atom_type_scat_source
 'C'  'C'   0.0033   0.0016
 'International Tables Vol C Tables 4.2.6.8 and 6.1.1.4'
 'N'  'N'   0.0061   0.0033
 'International Tables Vol C Tables 4.2.6.8 and 6.1.1.4'
 'O'  'O'   0.0106   0.0060
 'International Tables Vol C Tables 4.2.6.8 and 6.1.1.4'
 'Zn'  'Zn'   0.2839   1.4301
 'International Tables Vol C Tables 4.2.6.8 and 6.1.1.4'
 'S'  'S'   0.1246   0.1234
 'International Tables Vol C Tables 4.2.6.8 and 6.1.1.4'
 'H'  'H'   0.0000   0.0000
 'International Tables Vol C Tables 4.2.6.8 and 6.1.1.4'
 
_space_group_crystal_system       monoclinic
_space_group_IT_number            14
_space_group_name_H-M_alt         'P 21/n'
_space_group_name_Hall            '-P 2yn'
 
_shelx_space_group_comment
;
The symmetry employed for this shelxl refinement is uniquely defined
by the following loop, which should always be used as a source of
symmetry information in preference to the above space-group names.
They are only intended as comments.
;
 
loop_
 _space_group_symop_operation_xyz
 'x, y, z'
 '-x+1/2, y+1/2, -z+1/2'
 '-x, -y, -z'
 'x-1/2, -y-1/2, z-1/2'
 
_cell_length_a                    9.6127(2)
_cell_length_b                    12.4950(3)
_cell_length_c                    19.7160(5)
_cell_angle_alpha                 90
_cell_angle_beta                  92.5950(10)
_cell_angle_gamma                 90
_cell_volume                      2365.67(10)
_cell_formula_units_Z             30
_cell_measurement_temperature     150(2)
_cell_measurement_reflns_used     ?
_cell_measurement_theta_min       ?
_cell_measurement_theta_max       ?
 
_exptl_crystal_description        ?
_exptl_crystal_colour             ?
_exptl_crystal_density_meas       ?
_exptl_crystal_density_method     ?
_exptl_crystal_density_diffrn     1.550          
_exptl_crystal_F_000              1093
_exptl_transmission_factor_min    ?
_exptl_transmission_factor_max    ?
_exptl_crystal_size_max           ?
_exptl_crystal_size_mid           ?
_exptl_crystal_size_min           ?
_exptl_absorpt_coefficient_mu     1.176
_shelx_estimated_absorpt_T_min    ?
_shelx_estimated_absorpt_T_max    ?
_exptl_absorpt_correction_type    ?
_exptl_absorpt_correction_T_min   ?
_exptl_absorpt_correction_T_max   ?
_exptl_absorpt_process_details    ?
_exptl_absorpt_special_details    ?
_diffrn_ambient_temperature       150(2)
_diffrn_radiation_wavelength      0.71073
_diffrn_radiation_type            MoK\a
_diffrn_source                    ?
_diffrn_measurement_device_type   ?
_diffrn_measurement_method        ?
_diffrn_detector_area_resol_mean  ?
_diffrn_reflns_number             28366
_diffrn_reflns_av_unetI/netI      0.0725
_diffrn_reflns_av_R_equivalents   0.0788
_diffrn_reflns_limit_h_min        -11
_diffrn_reflns_limit_h_max        13
_diffrn_reflns_limit_k_min        -12
_diffrn_reflns_limit_k_max        17
_diffrn_reflns_limit_l_min        -27
_diffrn_reflns_limit_l_max        22
_diffrn_reflns_theta_min          1.930
_diffrn_reflns_theta_max          29.599
_diffrn_reflns_theta_full         25.242
_diffrn_measured_fraction_theta_max   0.998
_diffrn_measured_fraction_theta_full  1.000
_diffrn_reflns_Laue_measured_fraction_max    0.998
_diffrn_reflns_Laue_measured_fraction_full   1.000
_diffrn_reflns_point_group_measured_fraction_max   0.998
_diffrn_reflns_point_group_measured_fraction_full  1.000
_reflns_number_total              6643
_reflns_number_gt                 4640
_reflns_threshold_expression      'I > 2\s(I)'
_reflns_Friedel_coverage          0.000
_reflns_Friedel_fraction_max      .
_reflns_Friedel_fraction_full     .
 
_reflns_special_details
;
 Reflections were merged by SHELXL according to the crystal
 class for the calculation of statistics and refinement.
 
 _reflns_Friedel_fraction is defined as the number of unique
 Friedel pairs measured divided by the number that would be
 possible theoretically, ignoring centric projections and
 systematic absences.
;
 
_computing_data_collection        ?
_computing_cell_refinement        ?
_computing_data_reduction         ?
_computing_structure_solution     'SHELXT 2018/2 (Sheldrick, 2018)'
_computing_structure_refinement 'SHELXL-2018/3 (Sheldrick, 2018)'
_computing_molecular_graphics     ?
_computing_publication_material   ?
_refine_special_details           ?
_refine_ls_structure_factor_coef  Fsqd
_refine_ls_matrix_type            full
_refine_ls_weighting_scheme       calc
_refine_ls_weighting_details
'w=1/[\s^2^(Fo^2^)+(0.0327P)^2^+1.4657P] where P=(Fo^2^+2Fc^2^)/3'
_atom_sites_solution_primary      ?
_atom_sites_solution_secondary    ?
_atom_sites_solution_hydrogens    geom
_refine_ls_hydrogen_treatment     constr
_refine_ls_extinction_method      none
_refine_ls_extinction_coef        .
_refine_ls_number_reflns          6643
_refine_ls_number_parameters      336
_refine_ls_number_restraints      0
_refine_ls_R_factor_all           0.0780
_refine_ls_R_factor_gt            0.0483
_refine_ls_wR_factor_ref          0.1051
_refine_ls_wR_factor_gt           0.0895
_refine_ls_goodness_of_fit_ref    1.029
_refine_ls_restrained_S_all       1.029
_refine_ls_shift/su_max           0.001
_refine_ls_shift/su_mean          0.000
 
loop_
 _atom_site_label
 _atom_site_type_symbol
 _atom_site_fract_x
 _atom_site_fract_y
 _atom_site_fract_z
 _atom_site_U_iso_or_equiv
 _atom_site_adp_type
 _atom_site_occupancy
 _atom_site_site_symmetry_order  
 _atom_site_calc_flag
 _atom_site_refinement_flags_posn
 _atom_site_refinement_flags_adp
 _atom_site_refinement_flags_occupancy
 _atom_site_disorder_assembly
 _atom_site_disorder_group
Zn01 Zn 0.17894(3) 0.53864(2) 0.30281(2) 0.01510(9) Uani 1 1 d . . . . .
N1 N 0.3816(3) 0.6310(3) 0.52461(15) 0.0425(7) Uani 1 1 d . . . . .
S002 S -0.15777(9) -0.02635(7) 0.39710(4) 0.0350(2) Uani 1 1 d . . . . .
O003 O 0.33193(17) 0.63685(15) 0.32073(10) 0.0212(4) Uani 1 1 d . . . . .
O004 O 0.98733(17) 0.58695(14) 0.31701(10) 0.0193(4) Uani 1 1 d . . . . .
O005 O 1.04783(18) 0.73267(16) 0.26144(11) 0.0268(5) Uani 1 1 d . . . . .
O006 O 0.46539(19) 0.49667(16) 0.29889(12) 0.0290(5) Uani 1 1 d . . . . .
N007 N 0.1705(2) 0.40464(18) 0.35892(12) 0.0177(5) Uani 1 1 d . . . . .
N008 N -0.3254(2) 0.00548(17) 0.70396(12) 0.0172(5) Uani 1 1 d . . . . .
N009 N 0.0826(2) 0.28054(18) 0.42286(12) 0.0207(5) Uani 1 1 d . . . . .
N00A N -0.2688(2) 0.07688(18) 0.60759(12) 0.0193(5) Uani 1 1 d . . . . .
N00B N -0.0597(3) 0.0781(2) 0.39208(13) 0.0273(6) Uani 1 1 d . . . . .
N00C N -0.2196(3) -0.0104(2) 0.47114(13) 0.0280(6) Uani 1 1 d . . . . .
O00D O 0.2021(3) 0.5118(2) 0.52615(14) 0.0523(7) Uani 1 1 d . . . . .
C00E C 0.9586(2) 0.6755(2) 0.28620(14) 0.0161(5) Uani 1 1 d . . . . .
C00F C 0.8084(2) 0.7082(2) 0.28180(14) 0.0159(5) Uani 1 1 d . . . . .
C00G C 0.7752(3) 0.8104(2) 0.25826(14) 0.0181(6) Uani 1 1 d . . . . .
H00G H 0.847230 0.857700 0.245971 0.022 Uiso 1 1 calc R U . . .
C00H C -0.2323(3) 0.0634(2) 0.67376(14) 0.0187(6) Uani 1 1 d . . . . .
H00H H -0.150303 0.091803 0.695662 0.022 Uiso 1 1 calc R U . . .
C00I C 0.4485(3) 0.5940(2) 0.30527(14) 0.0197(6) Uani 1 1 d . . . . .
C00J C 0.0734(3) 0.3831(2) 0.40190(14) 0.0189(6) Uani 1 1 d . . . . .
H00J H 0.006053 0.432982 0.416173 0.023 Uiso 1 1 calc R U . . .
C00K C -0.1634(3) 0.0816(2) 0.49604(14) 0.0195(6) Uani 1 1 d . . . . .
C00L C -0.0721(3) 0.1319(2) 0.45029(14) 0.0203(6) Uani 1 1 d . . . . .
C00M C 0.6373(3) 0.8438(2) 0.25262(15) 0.0230(6) Uani 1 1 d . . . . .
H00M H 0.614867 0.913745 0.236706 0.028 Uiso 1 1 calc R U . . .
C00N C 0.5643(2) 0.6705(2) 0.29241(14) 0.0179(6) Uani 1 1 d . . . . .
C00O C 0.7029(2) 0.6382(2) 0.29852(14) 0.0181(6) Uani 1 1 d . . . . .
H00O H 0.725472 0.568156 0.314158 0.022 Uiso 1 1 calc R U . . .
C00P C -0.0059(3) 0.2300(2) 0.46908(15) 0.0208(6) Uani 1 1 d . . . . .
C00Q C 0.2460(3) 0.3114(2) 0.35168(15) 0.0241(6) Uani 1 1 d . . . . .
H00Q H 0.323658 0.303521 0.323958 0.029 Uiso 1 1 calc R U . . .
C00R C 0.5328(3) 0.7744(2) 0.27036(15) 0.0212(6) Uani 1 1 d . . . . .
H00R H 0.438617 0.797627 0.267527 0.025 Uiso 1 1 calc R U . . .
C00S C -0.4279(3) -0.0186(2) 0.65497(15) 0.0232(6) Uani 1 1 d . . . . .
H00S H -0.509150 -0.059506 0.662323 0.028 Uiso 1 1 calc R U . . .
C00T C -0.1878(3) 0.1302(2) 0.55935(14) 0.0195(6) Uani 1 1 d . . . . .
C00U C -0.3953(3) 0.0247(2) 0.59528(16) 0.0261(7) Uani 1 1 d . . . . .
H00U H -0.447854 0.020582 0.553373 0.031 Uiso 1 1 calc R U . . .
C00V C -0.0325(3) 0.2749(2) 0.53014(15) 0.0234(6) Uani 1 1 d . . . . .
H00V H 0.011478 0.340362 0.543051 0.028 Uiso 1 1 calc R U . . .
C00W C -0.1251(3) 0.2254(2) 0.57482(15) 0.0219(6) Uani 1 1 d . . . . .
H00W H -0.143630 0.259577 0.616490 0.026 Uiso 1 1 calc R U . . .
C00Y C 0.1926(3) 0.2335(2) 0.38994(16) 0.0263(7) Uani 1 1 d . . . . .
H00Y H 0.223485 0.161475 0.393734 0.032 Uiso 1 1 calc R U . . .
C00Z C 0.3007(4) 0.5531(3) 0.4985(2) 0.0457(9) Uani 1 1 d . . . . .
H00Z H 0.321180 0.527352 0.454714 0.055 Uiso 1 1 calc R U . . .
C010 C 0.3585(4) 0.6736(3) 0.5912(2) 0.0509(10) Uani 1 1 d . . . . .
H01A H 0.356190 0.751922 0.589084 0.076 Uiso 1 1 calc R U . . .
H01B H 0.434079 0.650688 0.622947 0.076 Uiso 1 1 calc R U . . .
H01C H 0.269492 0.647012 0.606788 0.076 Uiso 1 1 calc R U . . .
C011 C 0.4928(4) 0.6770(4) 0.4866(2) 0.0634(13) Uani 1 1 d . . . . .
H01D H 0.496120 0.641391 0.442418 0.095 Uiso 1 1 calc R U . . .
H01E H 0.581921 0.667098 0.511963 0.095 Uiso 1 1 calc R U . . .
H01F H 0.475484 0.753642 0.479734 0.095 Uiso 1 1 calc R U . . .
 
loop_
 _atom_site_aniso_label
 _atom_site_aniso_U_11
 _atom_site_aniso_U_22
 _atom_site_aniso_U_33
 _atom_site_aniso_U_23
 _atom_site_aniso_U_13
 _atom_site_aniso_U_12
Zn01 0.00992(13) 0.01688(15) 0.01863(17) -0.00047(13) 0.00219(11) -0.00054(12)
N1 0.0397(16) 0.057(2) 0.0304(18) 0.0043(15) -0.0054(13) 0.0039(15)
S002 0.0434(5) 0.0351(4) 0.0267(5) -0.0129(4) 0.0042(4) -0.0081(4)
O003 0.0095(8) 0.0235(10) 0.0308(12) -0.0049(9) 0.0020(7) -0.0015(7)
O004 0.0118(8) 0.0187(9) 0.0276(12) 0.0019(8) 0.0028(7) 0.0007(7)
O005 0.0142(9) 0.0305(11) 0.0361(13) 0.0097(10) 0.0056(8) -0.0019(8)
O006 0.0164(9) 0.0182(9) 0.0524(16) -0.0001(10) 0.0039(9) -0.0022(8)
N007 0.0140(10) 0.0210(11) 0.0183(12) 0.0009(10) 0.0027(8) 0.0005(9)
N008 0.0154(10) 0.0178(11) 0.0187(13) -0.0007(9) 0.0024(9) -0.0004(9)
N009 0.0220(11) 0.0199(11) 0.0208(13) 0.0039(10) 0.0069(10) 0.0031(9)
N00A 0.0219(11) 0.0195(11) 0.0167(12) 0.0005(9) 0.0015(9) -0.0036(9)
N00B 0.0327(13) 0.0319(14) 0.0177(13) -0.0029(11) 0.0039(11) -0.0006(11)
N00C 0.0329(13) 0.0252(13) 0.0257(15) -0.0048(11) 0.0005(11) -0.0058(11)
O00D 0.0406(14) 0.0607(18) 0.0560(19) -0.0021(15) 0.0057(13) 0.0030(13)
C00E 0.0121(11) 0.0177(12) 0.0183(14) -0.0030(11) 0.0001(10) 0.0002(10)
C00F 0.0140(11) 0.0159(12) 0.0178(14) -0.0018(10) 0.0005(10) 0.0005(10)
C00G 0.0160(12) 0.0160(12) 0.0226(15) 0.0000(11) 0.0027(10) -0.0025(10)
C00H 0.0180(12) 0.0220(13) 0.0163(14) -0.0007(11) 0.0022(10) -0.0016(11)
C00I 0.0145(12) 0.0230(14) 0.0216(15) -0.0008(12) -0.0004(10) -0.0018(11)
C00J 0.0181(12) 0.0185(13) 0.0204(15) 0.0008(11) 0.0040(10) 0.0021(11)
C00K 0.0245(13) 0.0167(12) 0.0171(14) 0.0003(11) 0.0009(11) -0.0006(11)
C00L 0.0243(14) 0.0206(13) 0.0162(15) 0.0000(11) 0.0026(11) 0.0045(11)
C00M 0.0188(13) 0.0196(13) 0.0307(18) 0.0044(12) -0.0003(12) 0.0017(11)
C00N 0.0129(11) 0.0182(13) 0.0226(15) 0.0002(11) 0.0008(10) 0.0008(10)
C00O 0.0135(12) 0.0159(12) 0.0250(16) 0.0015(11) 0.0016(11) 0.0028(10)
C00P 0.0229(13) 0.0206(13) 0.0192(15) 0.0028(11) 0.0031(11) 0.0031(11)
C00Q 0.0189(13) 0.0288(15) 0.0251(17) 0.0008(13) 0.0043(11) 0.0086(12)
C00R 0.0131(12) 0.0218(13) 0.0287(17) -0.0010(12) 0.0001(11) 0.0034(10)
C00S 0.0191(13) 0.0239(15) 0.0265(17) 0.0022(12) 0.0015(11) -0.0043(11)
C00T 0.0237(13) 0.0194(13) 0.0158(14) 0.0027(11) 0.0038(11) -0.0009(11)
C00U 0.0267(14) 0.0295(16) 0.0216(16) 0.0019(13) -0.0049(12) -0.0090(12)
C00V 0.0274(14) 0.0190(13) 0.0243(17) 0.0001(12) 0.0064(12) -0.0020(11)
C00W 0.0279(14) 0.0215(14) 0.0169(15) -0.0013(11) 0.0046(11) -0.0005(12)
C00Y 0.0238(14) 0.0240(14) 0.0317(18) 0.0047(13) 0.0087(12) 0.0094(12)
C00Z 0.0389(19) 0.060(3) 0.038(2) -0.0064(19) -0.0032(17) 0.0052(19)
C010 0.051(2) 0.063(3) 0.038(2) -0.011(2) -0.0068(18) 0.013(2)
C011 0.054(2) 0.086(3) 0.050(3) 0.014(3) -0.007(2) -0.015(2)
 
_geom_special_details
;
 All esds (except the esd in the dihedral angle between two l.s. planes)
 are estimated using the full covariance matrix.  The cell esds are taken
 into account individually in the estimation of esds in distances, angles
 and torsion angles; correlations between esds in cell parameters are only
 used when they are defined by crystal symmetry.  An approximate (isotropic)
 treatment of cell esds is used for estimating esds involving l.s. planes.
;
 
loop_
 _geom_bond_atom_site_label_1
 _geom_bond_atom_site_label_2
 _geom_bond_distance
 _geom_bond_site_symmetry_2
 _geom_bond_publ_flag
Zn01 O003 1.9356(17) . ?
Zn01 O004 1.9703(17) 1_455 ?
Zn01 N007 2.010(2) . ?
Zn01 N008 2.024(2) 4_665 ?
N1 C00Z 1.335(5) . ?
N1 C010 1.443(5) . ?
N1 C011 1.452(5) . ?
S002 N00C 1.613(3) . ?
S002 N00B 1.616(3) . ?
O003 C00I 1.291(3) . ?
O004 C00E 1.286(3) . ?
O005 C00E 1.234(3) . ?
O006 C00I 1.234(3) . ?
N007 C00J 1.317(3) . ?
N007 C00Q 1.383(3) . ?
N008 C00H 1.314(3) . ?
N008 C00S 1.382(3) . ?
N009 C00J 1.348(3) . ?
N009 C00Y 1.395(3) . ?
N009 C00P 1.422(3) . ?
N00A C00H 1.346(3) . ?
N00A C00U 1.392(3) . ?
N00A C00T 1.422(3) . ?
N00B C00L 1.340(4) . ?
N00C C00K 1.353(3) . ?
O00D C00Z 1.228(4) . ?
C00E C00F 1.499(3) . ?
C00F C00O 1.390(3) . ?
C00F C00G 1.391(4) . ?
C00G C00M 1.389(3) . ?
C00I C00N 1.498(4) . ?
C00K C00T 1.417(4) . ?
C00K C00L 1.432(4) . ?
C00L C00P 1.423(4) . ?
C00M C00R 1.384(4) . ?
C00N C00O 1.392(3) . ?
C00N C00R 1.398(4) . ?
C00P C00V 1.363(4) . ?
C00Q C00Y 1.347(4) . ?
C00S C00U 1.345(4) . ?
C00T C00W 1.362(4) . ?
C00V C00W 1.422(4) . ?
 
loop_
 _geom_angle_atom_site_label_1
 _geom_angle_atom_site_label_2
 _geom_angle_atom_site_label_3
 _geom_angle
 _geom_angle_site_symmetry_1
 _geom_angle_site_symmetry_3
 _geom_angle_publ_flag
O003 Zn01 O004 119.16(8) . 1_455 ?
O003 Zn01 N007 118.48(9) . . ?
O004 Zn01 N007 96.64(8) 1_455 . ?
O003 Zn01 N008 109.31(8) . 4_665 ?
O004 Zn01 N008 103.98(8) 1_455 4_665 ?
N007 Zn01 N008 107.66(9) . 4_665 ?
C00Z N1 C010 120.6(3) . . ?
C00Z N1 C011 121.3(3) . . ?
C010 N1 C011 118.1(3) . . ?
N00C S002 N00B 101.28(13) . . ?
C00I O003 Zn01 110.73(17) . . ?
C00E O004 Zn01 112.25(16) . 1_655 ?
C00J N007 C00Q 106.6(2) . . ?
C00J N007 Zn01 124.87(18) . . ?
C00Q N007 Zn01 127.60(19) . . ?
C00H N008 C00S 106.4(2) . . ?
C00H N008 Zn01 126.96(18) . 4_566 ?
C00S N008 Zn01 126.64(18) . 4_566 ?
C00J N009 C00Y 107.4(2) . . ?
C00J N009 C00P 125.8(2) . . ?
C00Y N009 C00P 126.8(2) . . ?
C00H N00A C00U 107.3(2) . . ?
C00H N00A C00T 125.5(2) . . ?
C00U N00A C00T 127.1(2) . . ?
C00L N00B S002 106.1(2) . . ?
C00K N00C S002 106.0(2) . . ?
O005 C00E O004 123.1(2) . . ?
O005 C00E C00F 120.3(2) . . ?
O004 C00E C00F 116.6(2) . . ?
C00O C00F C00G 119.9(2) . . ?
C00O C00F C00E 121.7(2) . . ?
C00G C00F C00E 118.4(2) . . ?
C00M C00G C00F 120.4(2) . . ?
N008 C00H N00A 110.8(2) . . ?
O006 C00I O003 123.6(2) . . ?
O006 C00I C00N 120.6(2) . . ?
O003 C00I C00N 115.7(2) . . ?
N007 C00J N009 110.6(2) . . ?
N00C C00K C00T 127.2(3) . . ?
N00C C00K C00L 113.0(3) . . ?
C00T C00K C00L 119.8(2) . . ?
N00B C00L C00P 126.8(3) . . ?
N00B C00L C00K 113.6(2) . . ?
C00P C00L C00K 119.6(3) . . ?
C00R C00M C00G 119.5(2) . . ?
C00O C00N C00R 119.3(2) . . ?
C00O C00N C00I 121.1(2) . . ?
C00R C00N C00I 119.6(2) . . ?
C00F C00O C00N 120.2(2) . . ?
C00V C00P N009 121.7(3) . . ?
C00V C00P C00L 119.0(3) . . ?
N009 C00P C00L 119.3(3) . . ?
C00Y C00Q N007 109.6(2) . . ?
C00M C00R C00N 120.7(2) . . ?
C00U C00S N008 109.7(2) . . ?
C00W C00T C00K 118.8(2) . . ?
C00W C00T N00A 120.6(3) . . ?
C00K C00T N00A 120.4(2) . . ?
C00S C00U N00A 105.8(2) . . ?
C00P C00V C00W 121.1(3) . . ?
C00T C00W C00V 121.6(3) . . ?
C00Q C00Y N009 105.8(2) . . ?
O00D C00Z N1 125.7(4) . . ?
 
_refine_diff_density_max    0.419
_refine_diff_density_min   -0.517
_refine_diff_density_rms    0.098

_shelx_res_file
;
TITL 1_a.res in P2(1)/n
    1_a.res
    created by SHELXL-2018/3 at 13:14:34 on 08-Feb-2023
REM Old TITL 1 in P2(1)/n
REM SHELXT solution in P2(1)/n: R1 0.100, Rweak 0.005, Alpha 0.035
REM <I/s>   0.297 for  237 systematic absences,  Orientation as input
REM Formula found by SHELXT:  C24 N6 O5 Zn S
CELL  0.71073   9.6127  12.4950  19.7160   90.000   92.595   90.000
ZERR   30.000   0.0002   0.0003   0.0005    0.000    0.001    0.000
LATT  1
SYMM 1/2-X, 1/2+Y, 1/2-Z
SFAC C N O Zn S H

UNIT 92 28 20 4 4 1
ACTA
TEMP -123.150
L.S. 10
BOND
LIST 6
FMAP 2
PLAN 20
WGHT    0.032700    1.465700
FVAR       0.37613
ZN01  4    0.178944    0.538636    0.302811    11.00000    0.00992    0.01688 =
         0.01863   -0.00047    0.00219   -0.00054
N1    2    0.381626    0.631048    0.524612    11.00000    0.03968    0.05671 =
         0.03042    0.00425   -0.00537    0.00392
S002  5   -0.157768   -0.026355    0.397105    11.00000    0.04338    0.03514 =
         0.02668   -0.01288    0.00419   -0.00812
O003  3    0.331929    0.636849    0.320726    11.00000    0.00954    0.02348 =
         0.03083   -0.00486    0.00200   -0.00149
O004  3    0.987328    0.586948    0.317011    11.00000    0.01177    0.01869 =
         0.02756    0.00188    0.00281    0.00070
O005  3    1.047827    0.732665    0.261435    11.00000    0.01425    0.03048 =
         0.03615    0.00967    0.00563   -0.00188
O006  3    0.465387    0.496671    0.298895    11.00000    0.01643    0.01824 =
         0.05241   -0.00012    0.00393   -0.00223
N007  2    0.170496    0.404642    0.358915    11.00000    0.01402    0.02103 =
         0.01833    0.00093    0.00267    0.00049
N008  2   -0.325384    0.005482    0.703956    11.00000    0.01541    0.01778 =
         0.01870   -0.00066    0.00239   -0.00040
N009  2    0.082603    0.280542    0.422863    11.00000    0.02197    0.01986 =
         0.02083    0.00392    0.00688    0.00313
N00A  2   -0.268760    0.076879    0.607586    11.00000    0.02186    0.01951 =
         0.01670    0.00053    0.00148   -0.00362
N00B  2   -0.059729    0.078124    0.392076    11.00000    0.03265    0.03190 =
         0.01769   -0.00293    0.00390   -0.00055
N00C  2   -0.219606   -0.010417    0.471138    11.00000    0.03294    0.02518 =
         0.02568   -0.00476    0.00047   -0.00575
O00D  3    0.202132    0.511777    0.526154    11.00000    0.04064    0.06071 =
         0.05597   -0.00212    0.00573    0.00303
C00E  1    0.958574    0.675473    0.286202    11.00000    0.01213    0.01770 =
         0.01834   -0.00302    0.00010    0.00024
C00F  1    0.808377    0.708214    0.281797    11.00000    0.01395    0.01592 =
         0.01776   -0.00180    0.00054    0.00045
C00G  1    0.775177    0.810430    0.258262    11.00000    0.01603    0.01598 =
         0.02259    0.00001    0.00271   -0.00252
AFIX  43
H00G  6    0.847230    0.857700    0.245971    11.00000   -1.20000
AFIX   0
C00H  1   -0.232256    0.063362    0.673764    11.00000    0.01796    0.02201 =
         0.01630   -0.00074    0.00224   -0.00157
AFIX  43
H00H  6   -0.150303    0.091803    0.695662    11.00000   -1.20000
AFIX   0
C00I  1    0.448457    0.593951    0.305273    11.00000    0.01447    0.02295 =
         0.02164   -0.00079   -0.00044   -0.00177
C00J  1    0.073359    0.383117    0.401901    11.00000    0.01807    0.01849 =
         0.02045    0.00078    0.00396    0.00209
AFIX  43
H00J  6    0.006053    0.432982    0.416173    11.00000   -1.20000
AFIX   0
C00K  1   -0.163373    0.081577    0.496041    11.00000    0.02452    0.01673 =
         0.01712    0.00029    0.00092   -0.00064
C00L  1   -0.072058    0.131864    0.450294    11.00000    0.02429    0.02060 =
         0.01619    0.00000    0.00260    0.00455
C00M  1    0.637271    0.843802    0.252622    11.00000    0.01878    0.01956 =
         0.03065    0.00443   -0.00035    0.00170
AFIX  43
H00M  6    0.614867    0.913745    0.236706    11.00000   -1.20000
AFIX   0
C00N  1    0.564285    0.670502    0.292411    11.00000    0.01292    0.01821 =
         0.02256    0.00016    0.00076    0.00080
C00O  1    0.702909    0.638221    0.298518    11.00000    0.01352    0.01593 =
         0.02502    0.00146    0.00157    0.00280
AFIX  43
H00O  6    0.725472    0.568156    0.314158    11.00000   -1.20000
AFIX   0
C00P  1   -0.005940    0.230034    0.469082    11.00000    0.02291    0.02065 =
         0.01918    0.00280    0.00313    0.00306
C00Q  1    0.246008    0.311417    0.351678    11.00000    0.01887    0.02878 =
         0.02510    0.00082    0.00435    0.00864
AFIX  43
H00Q  6    0.323658    0.303521    0.323958    11.00000   -1.20000
AFIX   0
C00R  1    0.532804    0.774402    0.270363    11.00000    0.01315    0.02178 =
         0.02870   -0.00096    0.00011    0.00340
AFIX  43
H00R  6    0.438617    0.797627    0.267527    11.00000   -1.20000
AFIX   0
C00S  1   -0.427923   -0.018576    0.654968    11.00000    0.01906    0.02389 =
         0.02655    0.00224    0.00148   -0.00425
AFIX  43
H00S  6   -0.509150   -0.059506    0.662323    11.00000   -1.20000
AFIX   0
C00T  1   -0.187752    0.130171    0.559354    11.00000    0.02367    0.01938 =
         0.01577    0.00271    0.00380   -0.00093
C00U  1   -0.395326    0.024733    0.595279    11.00000    0.02669    0.02949 =
         0.02164    0.00192   -0.00485   -0.00896
AFIX  43
H00U  6   -0.447854    0.020582    0.553373    11.00000   -1.20000
AFIX   0
C00V  1   -0.032525    0.274926    0.530137    11.00000    0.02739    0.01903 =
         0.02433    0.00007    0.00638   -0.00197
AFIX  43
H00V  6    0.011478    0.340362    0.543051    11.00000   -1.20000
AFIX   0
C00W  1   -0.125059    0.225405    0.574818    11.00000    0.02786    0.02146 =
         0.01686   -0.00131    0.00464   -0.00051
AFIX  43
H00W  6   -0.143630    0.259577    0.616490    11.00000   -1.20000
AFIX   0
C00Y  1    0.192607    0.233540    0.389944    11.00000    0.02381    0.02397 =
         0.03167    0.00473    0.00874    0.00944
AFIX  43
H00Y  6    0.223485    0.161475    0.393734    11.00000   -1.20000
AFIX   0
C00Z  1    0.300726    0.553099    0.498492    11.00000    0.03890    0.05996 =
         0.03787   -0.00643   -0.00321    0.00516
AFIX  43
H00Z  6    0.321180    0.527352    0.454714    11.00000   -1.20000
AFIX   0
C010  1    0.358491    0.673578    0.591197    11.00000    0.05136    0.06293 =
         0.03770   -0.01136   -0.00685    0.01346
AFIX 137
H01A  6    0.356190    0.751922    0.589084    11.00000   -1.50000
H01B  6    0.434079    0.650688    0.622947    11.00000   -1.50000
H01C  6    0.269492    0.647012    0.606788    11.00000   -1.50000
AFIX   0
C011  1    0.492818    0.677029    0.486594    11.00000    0.05398    0.08572 =
         0.04951    0.01398   -0.00699   -0.01526
AFIX 137
H01D  6    0.496120    0.641391    0.442418    11.00000   -1.50000
H01E  6    0.581921    0.667098    0.511963    11.00000   -1.50000
H01F  6    0.475484    0.753642    0.479734    11.00000   -1.50000
AFIX   0
HKLF 4




REM  1_a.res in P2(1)/n
REM wR2 = 0.1051, GooF = S = 1.029, Restrained GooF = 1.029 for all data
REM R1 = 0.0483 for 4640 Fo > 4sig(Fo) and 0.0780 for all 6643 data
REM 336 parameters refined using 0 restraints

END

WGHT      0.0327      1.4657

REM Highest difference peak  0.419,  deepest hole -0.517,  1-sigma level  0.098
Q1    1  -0.1842 -0.0404  0.4443  11.00000  0.05    0.42
Q2    1   0.4426  0.7047  0.4445  11.00000  0.05    0.42
Q3    1   0.0563  0.2412  0.4503  11.00000  0.05    0.39
Q4    1   1.0275  0.7551  0.2133  11.00000  0.05    0.38
Q5    1  -0.0982  0.0350  0.3935  11.00000  0.05    0.38
Q6    1  -0.3200  0.0277  0.5014  11.00000  0.05    0.37
Q7    1   0.4462  0.8153  0.5252  11.00000  0.05    0.37
Q8    1   0.4190  0.8896  0.2361  11.00000  0.05    0.37
Q9    1   0.3028  0.3177  0.2985  11.00000  0.05    0.36
Q10   1   0.8936  0.9202  0.2610  11.00000  0.05    0.36
Q11   1   0.7626  0.6615  0.2772  11.00000  0.05    0.35
Q12   1  -0.3182 -0.0421  0.7410  11.00000  0.05    0.35
Q13   1   0.5430  0.7161  0.2568  11.00000  0.05    0.34
Q14   1   0.1522  0.4161  0.3966  11.00000  0.05    0.34
Q15   1  -0.2355  0.0988  0.5791  11.00000  0.05    0.34
Q16   1   0.5731  0.7397  0.2967  11.00000  0.05    0.34
Q17   1   1.0103  0.5438  0.2920  11.00000  0.05    0.34
Q18   1   0.7205  0.5485  0.3890  11.00000  0.05    0.33
Q19   1  -0.1829  0.1187  0.5262  11.00000  0.05    0.33
Q20   1  -0.1354  0.0984  0.5338  11.00000  0.05    0.33
;
_shelx_res_checksum   10570

_shelx_hkl_file
;
   1   0   0    1.70    1.30
   1   0   0    1.50    0.90
   2   0   0  643.94   24.30
  -2   0   0  643.84   21.40
   2   0   0  667.93   21.70
  -2   0   0  651.83   24.10
  -3   0   0    3.60    3.20
  -3   0   0   -0.40    2.00
   3   0   0   -0.40    2.70
   3   0   0   -1.80    1.90
   4   0   0   70.59    7.80
   4   0   0   71.99   10.20
  -4   0   0   67.99    7.60
  -4   0   0   75.19    9.90
   5   0   0    5.40    4.90
   5   0   0    5.20    3.80
   5   0   0    0.90    2.60
  -5   0   0   -2.90    1.70
  -6   0   0 1781.62   67.99
   6   0   0 1811.82   70.39
   6   0   0 1897.81   64.39
   6   0   0 1775.92   60.69
  -7   0   0   -1.70    3.30
   7   0   0    0.30    3.20
   7   0   0    7.00    5.20
   7   0   0    0.90    4.20
   8   0   0 1521.45   69.19
  -8   0   0 1321.17   62.39
   8   0   0 1414.66   54.39
   8   0   0 1334.47   56.49
   9   0   0    1.20    6.60
   9   0   0    3.90    5.20
   9   0   0    0.10    4.60
  10   0   0   18.60   11.20
  10   0   0    9.60    6.30
  10   0   0   13.30    8.30
  11   0   0   -2.00    4.50
  11   0   0   -0.60    4.30
  11   0   0    3.80   10.20
  12   0   0  102.39   27.70
  12   0   0   68.69   15.00
  13   0   0   -1.90    8.30
   0  -1   0    0.20    2.00
   1  -1   0    9.00    2.20
  -1  -1   0    3.50    2.10
  -1  -1   0    5.10    2.30
   1   1   0    3.60    1.70
   1   1   0    8.90    2.80
  -2  -1   0   31.00    6.50
  -2  -1   0   28.90    5.70
   2  -1   0   27.20    5.20
   2  -1   0   31.70    2.60
   2   1   0   29.60    6.30
   2   1   0   25.80    5.30
  -2   1   0   30.90    4.80
  -3  -1   0  142.89   12.90
  -3  -1   0  158.68   11.70
   3  -1   0  178.38   12.50
   3  -1   0  171.18    8.30
   3  -1   0  153.58    8.60
  -3   1   0  163.38   11.50
   3   1   0  158.08   12.00
   3   1   0  152.88   13.30
  -4  -1   0  232.18   15.70
   4  -1   0  252.77   13.20
   4  -1   0  220.48   16.50
  -4  -1   0  249.68   18.40
   4   1   0  229.28   18.30
   4   1   0  229.78   15.90
  -4   1   0  246.08   16.70
   5  -1   0  211.68   18.20
   5  -1   0  252.47   15.10
  -5  -1   0  222.68   16.60
   5  -1   0  266.67   14.30
  -5  -1   0  257.07   20.20
   5   1   0  200.98   19.40
   5   1   0  250.67   18.10
  -5   1   0  256.67   18.70
   6  -1   0   30.00    7.00
  -6  -1   0   25.80   10.10
   6  -1   0   32.90    7.80
   6  -1   0   36.90   10.80
   6   1   0   12.90    7.40
   6   1   0   23.60    7.80
   6   1   0    7.70    5.80
  -6   1   0   31.10    8.80
   7  -1   0    0.70    4.80
   7  -1   0    2.40    3.20
   7  -1   0    3.80    3.90
  -7  -1   0    1.90    4.50
   7   1   0   -4.00    2.20
  -7   1   0    0.30    2.80
   7   1   0    1.30    6.00
   7   1   0   -1.40    2.90
   8  -1   0   57.29   16.70
   8  -1   0   64.79    9.70
  -8  -1   0   46.40   14.60
   8  -1   0   55.69   11.40
  -8   1   0   37.40   11.90
   8   1   0   63.79   16.10
   8   1   0   53.59   15.90
   8   1   0   53.09   13.20
   9  -1   0   73.09   13.70
   9  -1   0   64.49   10.30
   9  -1   0   69.09   18.70
  -9   1   0   90.79   19.80
   9   1   0   60.29   15.70
   9   1   0   41.90   12.10
   9   1   0   82.09   21.90
  10  -1   0    3.00    4.90
  10  -1   0    6.50    7.20
  10  -1   0   -1.00    4.40
  10   1   0    0.50    5.50
  10   1   0   -3.60    6.40
  10   1   0    6.90    6.00
  11  -1   0  447.56   26.90
  11  -1   0  496.15   43.50
  11  -1   0  399.66   24.40
  11   1   0  433.56   33.00
  11   1   0  448.56   35.60
  11   1   0  412.76   41.90
  12  -1   0   -4.90    5.90
  12  -1   0    0.40    3.30
  12   1   0    2.80    6.30
  12   1   0    3.30    9.70
  13  -1   0   -7.60    6.30
  13   1   0   27.80   12.40
  13   1   0   30.40   16.90
   0  -2   0 2280.87   73.39
   0   2   0 2314.57   73.19
   1  -2   0    3.60    2.00
  -1  -2   0    6.20    3.00
  -1  -2   0    2.90    2.70
   1  -2   0    3.20    1.80
   1   2   0   -1.60    1.80
  -1   2   0    0.10    1.80
   1   2   0    3.50    3.00
  -1   2   0    2.50    1.80
  -2  -2   0 3566.74   99.49
  -3  -2   0    9.00    4.70
   3  -2   0   14.60    4.90
  -3   2   0    9.50    3.90
   3   2   0   17.60    6.20
   3   2   0   10.60    5.30
   4  -2   0  208.28   15.10
  -4  -2   0  190.68   15.50
  -4  -2   0  184.58   16.60
   4  -2   0  187.08    7.30
   4  -2   0  187.28    7.20
   4   2   0  160.88   16.20
  -4   2   0  166.98   12.80
   4   2   0  197.68   16.10
   5  -2   0 1157.68   33.70
  -5  -2   0 1166.88   51.09
   5  -2   0 1140.49   34.30
  -5  -2   0 1195.08   47.60
   5  -2   0 1136.99   46.10
  -5   2   0 1207.08   45.10
   5   2   0 1206.68   48.70
   5   2   0 1170.58   52.39
   6  -2   0  905.81   42.50
   6  -2   0  891.71   30.00
  -6  -2   0  838.32   44.70
   6   2   0  821.72   43.80
  -6   2   0  877.71   40.00
   6   2   0  925.31   43.10
   6   2   0  923.61   48.30
  -7  -2   0  114.09   16.60
   7  -2   0   93.39    8.60
   7  -2   0   95.99    8.40
   7  -2   0  106.99   15.30
   7   2   0  101.69   20.60
   7   2   0  112.79   15.20
   7   2   0   93.49   15.00
  -7   2   0   81.99   12.60
   8  -2   0  385.56   31.40
   8  -2   0  465.95   21.60
   8  -2   0  459.65   20.90
   8   2   0  436.96   37.00
  -8   2   0  494.35   32.20
   8   2   0  460.35   32.20
   8   2   0  510.35   35.80
   9  -2   0    0.90    3.30
   9  -2   0   10.70    9.30
   9  -2   0    4.20    3.20
   9   2   0    0.30    4.10
   9   2   0    3.50    7.90
  -9   2   0    6.00    5.90
   9   2   0    0.90    5.30
  10  -2   0    5.80    3.20
  10  -2   0   14.50   10.30
  10   2   0   -0.60    5.00
  10   2   0    1.80    8.80
  10   2   0   13.00    9.30
  11  -2   0    6.50   10.30
  11   2   0    4.50    8.90
  12  -2   0  222.58   29.70
  12   2   0  123.19   31.00
  12   2   0  169.68   23.70
  13  -2   0    7.30   11.50
  13   2   0    5.60   12.20
  13   2   0    7.70    9.80
   0  -3   0   -0.60    2.40
   0   3   0    1.50    3.10
  -1  -3   0  415.56   21.20
   1  -3   0  447.36   17.80
   1   3   0  420.36   20.40
  -1   3   0  430.66   17.60
  -1   3   0  448.76   17.30
   1   3   0  414.96   21.30
  -2  -3   0   16.40    5.90
   2  -3   0   17.30    4.00
  -2  -3   0   16.90    5.70
  -2   3   0   22.20    4.00
  -2   3   0   15.90    3.70
   2   3   0    6.40    4.00
   2   3   0   10.30    4.70
  -2   3   0   13.20    3.00
  -3  -3   0 2057.99   68.59
   3  -3   0 2111.49   59.89
  -3  -3   0 2026.30   68.89
   3   3   0 2084.69   69.79
   3   3   0 2034.90   69.99
  -3   3   0 2066.69   58.79
  -4  -3   0  973.50   43.90
  -4  -3   0  951.10   42.20
   4  -3   0  960.50   36.50
   4   3   0 1013.70   45.30
   4   3   0  969.10   43.10
  -4   3   0  935.91   34.60
  -5  -3   0  282.57   23.20
   5  -3   0  307.57   19.80
  -5  -3   0  266.87   21.40
   5   3   0  262.67   23.80
  -5   3   0  295.97   21.40
   5   3   0  247.98   21.40
   6  -3   0   63.89   10.50
  -6  -3   0   38.20   11.10
  -6  -3   0   46.70   11.30
  -6   3   0   40.60    9.90
   6   3   0   47.00   13.20
   6   3   0   70.99   15.30
   6   3   0   52.29   15.60
   7  -3   0   51.69   13.20
  -7  -3   0   23.10   10.60
   7   3   0   38.30   12.30
   7   3   0   38.80   14.70
   7   3   0    9.40    6.80
  -7   3   0   47.50   11.50
   8  -3   0  101.79   16.10
   8   3   0  104.49   24.50
   8   3   0   84.29   19.40
   8   3   0  118.09   21.80
  -8   3   0   88.19   13.40
   9  -3   0   64.49   17.10
   9   3   0   25.70   12.00
   9   3   0   37.10   14.30
   9   3   0   30.90   12.20
  -9   3   0   42.90   12.30
  10  -3   0  268.27   28.40
  10   3   0  283.67   28.90
  10   3   0  282.47   34.70
  11  -3   0  338.67   34.10
  11   3   0  376.06   34.60
  11   3   0  350.46   40.40
  12  -3   0   66.49   22.30
  12   3   0   16.90   15.80
  12   3   0   31.50   14.10
  13   3   0    0.30    8.30
  13   3   0   -1.40    9.20
   0  -4   0 2188.98   66.39
   0   4   0 2085.99   66.09
   0   4   0 2181.18   63.39
  -1  -4   0  383.86   22.10
   1  -4   0  385.86   18.80
  -1   4   0  394.46   18.20
   1   4   0  415.46   23.10
  -1   4   0  398.56   19.30
   1   4   0  423.56   21.80
  -2  -4   0   65.69    9.80
  -2  -4   0   73.09   13.10
   2  -4   0   54.89    6.10
   2   4   0   71.49   10.40
   2   4   0   66.69    9.80
  -2   4   0   63.29    7.10
  -2   4   0   73.19    6.70
  -2   4   0   46.40    5.70
  -3  -4   0   -4.70    2.30
  -3  -4   0    4.20    4.10
   3  -4   0    0.40    2.40
  -3   4   0    2.20    2.00
   3   4   0    6.90    5.40
  -3   4   0    3.10    2.10
  -3   4   0    2.90    2.70
   3   4   0    6.60    4.90
  -4  -4   0   63.79   13.50
  -4  -4   0   65.69   14.70
   4  -4   0   43.30    6.70
   4   4   0   73.19   15.60
  -4   4   0   47.30    8.10
   4   4   0   42.30   10.70
   5  -4   0  266.07   17.70
  -5  -4   0  265.87   23.50
  -5  -4   0  272.07   22.80
   5   4   0  260.77   24.10
   5   4   0  212.38   21.10
  -5   4   0  265.27   16.50
   6  -4   0  254.67   19.60
  -6  -4   0  271.97   25.40
  -6  -4   0  291.87   24.90
   6   4   0  232.78   25.20
   6   4   0  285.47   25.50
   6   4   0  274.37   26.60
  -6   4   0  260.27   18.10
   7  -4   0  387.46   26.90
   7   4   0  415.06   35.50
   7   4   0  319.97   28.80
  -7   4   0  389.96   24.50
   7   4   0  386.46   33.40
   8  -4   0  161.78   18.80
   8   4   0  122.49   20.00
   8   4   0  111.39   23.00
   8   4   0  187.18   25.60
  -8   4   0  116.69   14.50
   9  -4   0  270.77   26.20
   9   4   0  259.97   32.00
   9   4   0  307.77   30.80
  -9   4   0  338.27   25.90
  10  -4   0    2.80    6.30
 -10   4   0   -0.20    3.80
  10   4   0    8.90    9.40
  10   4   0   -1.60    5.30
  11  -4   0   30.90   13.00
  11   4   0   13.30   12.50
  11   4   0    2.70    8.50
  12  -4   0    2.00    6.90
  12   4   0    9.40   10.70
  12   4   0   -2.30    7.30
   0  -5   0    8.90    4.70
   0   5   0    2.60    3.30
   0   5   0    3.00    2.30
   1  -5   0  176.38   13.60
  -1  -5   0  165.58   15.50
  -1   5   0  170.58   12.80
  -1   5   0  186.68   13.90
   1   5   0  191.38   15.30
  -2  -5   0  419.56   26.40
   2   5   0  416.26   25.70
  -2   5   0  381.16   19.30
   2   5   0  405.96   26.60
  -2   5   0  434.66   21.90
  -2   5   0  404.76   19.10
   3  -5   0  246.38   13.80
  -3  -5   0  243.88   20.30
  -3  -5   0  272.57   22.00
   3   5   0  212.98   20.20
  -3   5   0  236.08   12.60
   3   5   0  239.88   21.10
  -3   5   0  258.97   13.80
  -3   5   0  264.17   14.20
  -4  -5   0   73.49   15.10
   4  -5   0   75.99    8.20
  -4  -5   0   76.19   12.60
  -4   5   0   72.89    7.60
   4   5   0   65.89   15.30
   4   5   0   69.39   15.00
   5  -5   0   11.70    5.40
  -5  -5   0   10.60    6.40
  -5  -5   0   14.00    8.00
   5   5   0    8.20    5.90
  -5   5   0   12.70    4.50
   5   5   0    3.90    5.50
  -6  -5   0  111.49   16.80
  -6  -5   0  162.68   20.50
   6  -5   0  116.69   12.80
   6   5   0  183.78   21.50
  -6   5   0  134.19   12.10
   6   5   0  173.68   22.20
   6   5   0  117.69   22.40
   7  -5   0  179.28   17.30
   7   5   0  174.38   24.00
   7   5   0  185.58   24.70
  -7   5   0  186.88   15.90
   7   5   0  179.68   22.80
   8  -5   0  182.08   19.40
  -8   5   0  191.48   17.40
   8   5   0  270.87   31.10
   8   5   0  218.28   26.10
   9  -5   0  202.98   21.50
  -9   5   0  172.68   17.90
   9   5   0  189.48   25.60
   9   5   0  155.48   32.20
  10  -5   0   89.19   21.90
  10   5   0  104.59   27.60
  10   5   0   93.29   23.50
 -10   5   0   64.59   19.10
  11  -5   0   28.50   12.90
  11   5   0    2.50    9.20
  11   5   0   68.99   20.30
  12  -5   0  103.19   23.40
  12   5   0   82.29   23.60
  12   5   0   69.99   27.20
   0  -6   0  174.18   16.10
   0   6   0  143.29   14.80
   0   6   0  181.18   14.40
   1  -6   0 1256.67   47.10
  -1  -6   0 1218.18   51.19
   1   6   0 1261.17   52.59
  -1   6   0 1286.57   46.40
  -1   6   0 1214.08   47.30
   1   6   0 1219.18   48.80
  -2  -6   0  368.56   26.20
  -2   6   0  342.57   22.30
   2   6   0  354.66   25.00
  -2   6   0  367.06   20.70
   2   6   0  335.87   25.80
  -2   6   0  366.86   19.40
  -3  -6   0   93.49   13.90
  -3   6   0   59.19    7.70
   3   6   0   68.99   16.30
  -3   6   0   80.89    9.20
  -3   6   0   76.29    7.90
   3   6   0   56.59   13.60
   4  -6   0  116.39    9.80
  -4  -6   0  169.98   20.20
  -4   6   0  125.19    9.00
  -4   6   0  109.39    9.20
  -5  -6   0  161.18   19.80
   5  -6   0  153.18   12.30
  -5  -6   0  173.78   20.60
   5   6   0  164.48   20.70
   5   6   0  169.88   21.20
  -5   6   0  167.78   11.80
   6  -6   0   16.70    6.00
  -6   6   0   18.20    5.80
   6   6   0   29.20   11.60
   6   6   0    9.30    9.70
   6   6   0   22.10    9.80
   7  -6   0 1105.69   45.80
   7   6   0 1169.48   62.99
  -7   6   0 1140.19   43.30
   7   6   0 1097.89   64.19
   8  -6   0   31.00    9.70
   8   6   0   17.90   11.20
   8   6   0   31.60   15.20
  -8   6   0   26.60    8.30
   9  -6   0  215.18   20.80
   9   6   0  134.89   33.40
   9   6   0  241.68   30.00
  -9   6   0  170.88   16.70
  10  -6   0    3.80    5.40
  10   6   0   -2.90    8.60
  10   6   0   -1.70    7.10
 -10   6   0    4.50    5.30
  11  -6   0   13.80    8.70
  11   6   0   22.90   13.60
  11   6   0   20.70   15.40
  12  -6   0    4.40    6.70
  12   6   0   17.70   17.00
  12   6   0   -4.50    7.70
   0  -7   0    4.90    3.80
   0   7   0    4.70    3.00
   0   7   0   11.30    6.10
  -1  -7   0  390.96   27.80
   1  -7   0  442.86   26.30
  -1   7   0  402.86   22.10
   1   7   0  463.95   27.80
   1   7   0  401.06   28.50
  -1   7   0  429.76   26.30
  -1   7   0  427.56   24.90
  -2  -7   0  147.79   17.80
   2   7   0  145.99   17.90
   2   7   0  158.78   17.50
  -2   7   0  159.58   14.70
  -2   7   0  149.79   13.10
  -2   7   0  144.59   15.20
  -3  -7   0    6.60    6.60
  -3   7   0    4.90    3.70
  -3   7   0   11.80    5.10
  -3   7   0    3.80    5.10
   3   7   0    7.10    6.10
   3   7   0    5.70    5.80
  -4  -7   0  347.07   29.10
  -4   7   0  325.67   16.80
  -4   7   0  333.27   17.10
   4   7   0  293.47   27.50
   4   7   0  264.17   26.90
  -4   7   0  322.87   18.20
   5  -7   0  141.89   11.30
   5   7   0  197.98   24.00
  -5   7   0  174.98   11.50
   5   7   0  153.18   21.40
   6  -7   0   83.89    9.50
   6   7   0   60.19   16.30
   6   7   0  157.08   29.90
  -6   7   0   97.79    9.00
   7  -7   0    7.40    4.50
   7   7   0   10.90    8.30
  -7   7   0    7.50    4.50
   7   7   0    3.70    5.80
   8  -7   0    4.80    4.70
   8   7   0    3.40    7.90
  -8   7   0    1.70    2.90
   8   7   0    6.30   10.10
   9  -7   0   19.00    8.20
  -9   7   0   21.00    6.90
   9   7   0   10.00   14.30
   9   7   0   26.20   13.80
  10  -7   0  369.56   26.70
  10   7   0  303.67   39.80
  10   7   0  317.47   37.00
  11  -7   0    9.10    6.70
  11   7   0   20.20   14.10
  11   7   0   13.60   13.70
  12   7   0    7.00   22.30
  12   7   0   39.10   19.80
   0  -8   0   63.19   13.80
   0   8   0   89.79   12.90
   0   8   0   97.29   14.00
   0   8   0   70.49   10.80
  -1  -8   0 2254.87   83.59
  -1   8   0 2313.07   80.39
   1   8   0 2269.57   79.99
  -1   8   0 2202.78   72.29
  -1   8   0 2202.68   76.69
  -1   8   0 2138.19   82.59
   1   8   0 2221.78   84.89
  -2  -8   0  120.79   17.10
  -2   8   0  124.29   14.70
  -2   8   0  136.79   14.60
   2   8   0   91.29   18.80
  -2   8   0  134.39   11.80
   2   8   0  140.89   18.80
  -2   8   0   90.69   13.50
  -3  -8   0   83.89   17.60
   3   8   0   83.89   17.40
  -3   8   0   55.59    8.30
   3   8   0   82.59   18.30
  -3   8   0   67.99   10.30
  -3   8   0   69.39   11.00
  -4   8   0   76.09    9.40
   4   8   0   62.69   17.30
  -4   8   0   78.59   10.30
  -4   8   0   80.99    8.60
   4   8   0   71.39   18.10
  -5   8   0  991.30   33.70
  -5   8   0  974.10   32.80
   5   8   0  995.80   58.79
   5   8   0 1012.40   57.79
   6   8   0   -0.10    4.60
  -6   8   0   10.60    3.70
   6   8   0    6.40    8.80
   7  -8   0  250.47   15.10
  -7   8   0  251.17   14.10
   7   8   0  321.97   34.40
   7   8   0  199.38   28.80
   8  -8   0   38.30    8.00
  -8   8   0   31.60    6.80
   8   8   0   14.30   14.40
   8   8   0    2.40    7.30
   9  -8   0   56.99    8.90
   9   8   0  124.59   31.20
   9   8   0   94.89   27.40
  10  -8   0   11.10    5.30
  10   8   0    2.60    7.80
  10   8   0   -1.00    6.50
  11  -8   0   37.20   11.30
  11   8   0   92.59   30.30
  11   8   0   40.20   19.20
   0   9   0    1.60    3.50
   0   9   0   -2.40    1.90
   0   9   0   -2.10    3.00
   0   9   0    1.50    4.00
  -1  -9   0   -0.80    3.40
   1   9   0    4.70    4.70
  -1   9   0   11.30    5.30
  -1   9   0    4.90    5.20
   1   9   0   17.90    8.50
  -1   9   0    4.30    4.80
   1   9   0   -2.00    3.20
  -1   9   0    6.60    5.60
  -2  -9   0   97.39   19.70
  -2   9   0   97.89   14.10
  -2   9   0  108.49   13.10
  -2   9   0   93.99   11.10
   2   9   0  102.99   23.10
  -2   9   0   91.99   18.20
   2   9   0  102.89   15.90
  -3   9   0  127.89   11.40
   3   9   0  138.69   20.90
   3   9   0  128.39   18.70
  -3   9   0  134.79   16.10
  -3   9   0  139.79   15.40
  -3   9   0  153.78   17.80
   4   9   0   69.69   17.30
  -4   9   0   81.39   11.00
  -4   9   0   84.49    9.50
  -4   9   0   86.59   12.00
   4   9   0   63.59   15.90
  -5   9   0   77.29    9.10
   5   9   0   58.79   16.80
  -5   9   0   82.89    7.80
   5   9   0   79.89   21.90
  -5   9   0   89.19    9.40
   6   9   0  333.77   36.00
   6   9   0  394.76   38.60
  -6   9   0  377.56   14.50
   7   9   0   53.39   17.80
   7   9   0  105.09   27.10
   8   9   0   -2.40    5.20
   8   9   0    0.80    8.30
   9   9   0    6.30   11.10
   9   9   0    6.70   11.70
  10   9   0    4.10   10.10
  10   9   0    2.50    8.80
  11   9   0   -4.60   12.70
  11   9   0    5.20   10.40
   0  10   0   52.99   13.50
   0  10   0   75.19   20.20
   0  10   0   42.80   13.00
   0  10   0   61.39   14.80
  -1  10   0  607.34   33.40
   1  10   0  572.64   43.90
  -1  10   0  665.43   40.20
   1  10   0  679.83   49.30
  -1  10   0  626.14   36.70
   1  10   0  598.54   50.09
   1  10   0  564.94   41.00
  -2  10   0  116.19   13.30
  -2  10   0  116.69   16.50
  -2  10   0  106.19   16.90
   2  10   0  151.58   22.30
   2  10   0  127.99   18.70
  -2  10   0  146.39   16.00
   3  10   0   20.40   12.50
  -3  10   0   51.89   13.80
  -3  10   0   25.30    8.10
   3  10   0   21.10   11.80
  -3  10   0   21.70    6.70
  -3  10   0   23.70    8.80
  -4  10   0   83.19    9.80
  -4  10   0   72.29    8.30
   4  10   0   50.39   17.00
   4  10   0   56.29   16.60
  -4  10   0   87.99   13.10
  -4  10   0   96.29   12.80
   5  10   0   -1.00    4.70
   5  10   0    3.00    7.30
  -5  10   0    6.40    3.00
  -5  10   0    4.80    4.80
  -5  10   0   12.70    4.10
   6  10   0  124.59   26.70
   6  10   0  113.69   28.90
   7  10   0  334.57   38.80
   7  10   0  341.57   39.20
   8  10   0   52.19   19.60
   8  10   0    5.90    9.70
   9  10   0    8.60   11.00
   9  10   0    2.80    8.90
  10  10   0   22.20   19.50
  10  10   0   10.60   12.80
   0  11   0    0.80    5.70
   0  11   0    3.40    5.10
   0  11   0    7.70    6.20
   1  11   0   59.39   15.10
   1  11   0   70.39   18.10
  -1  11   0   81.69   12.80
  -1  11   0   78.89   17.30
   1  11   0   69.19   18.20
  -1  11   0   52.39   15.30
  -1  11   0   36.70   12.90
   2  11   0   88.69   20.80
  -2  11   0   76.19   11.50
  -2  11   0   72.39   17.20
   2  11   0   78.89   20.00
  -2  11   0   77.29   16.10
  -2  11   0   68.29   17.20
  -3  11   0    0.10    4.20
  -3  11   0    1.10    4.90
  -3  11   0    0.20    4.30
  -3  11   0   -3.30    2.80
   3  11   0   -8.10    4.00
   3  11   0    1.60    6.00
   4  11   0   17.70   11.20
  -4  11   0   16.20    8.50
  -4  11   0   11.30    5.10
   4  11   0   -2.40    5.50
  -4  11   0    7.90    3.80
  -4  11   0   19.40    8.90
  -5  11   0   12.70    3.60
   5  11   0    9.70    9.60
  -5  11   0   10.40    5.70
  -5  11   0   20.90    7.70
   5  11   0   13.10   10.80
   6  11   0   15.70   13.00
   6  11   0    3.70    8.10
   7  11   0   12.10   12.00
   7  11   0   54.39   22.00
   8  11   0   -2.20    5.90
   8  11   0   14.00   12.20
   9  11   0  105.39   30.50
   9  11   0   74.09   24.90
  10  11   0    7.90   11.80
  10  11   0   21.80   18.70
   0  12   0   78.59   17.10
   0  12   0  112.69   23.10
   0  12   0  117.29   25.50
  -1  12   0   91.29   17.40
  -1  12   0   68.79   17.10
   1  12   0  109.89   23.00
  -1  12   0  102.39   23.30
   1  12   0   86.19   20.50
   2  12   0  272.57   31.70
  -2  12   0  254.87   23.40
  -2  12   0  195.38   23.40
   2  12   0  216.58   26.20
  -2  12   0  249.97   28.10
  -2  12   0  208.08   19.40
   3  12   0   32.40   14.90
  -3  12   0   60.39   12.30
  -3  12   0   19.20    9.50
   3  12   0   35.30   15.00
  -3  12   0   37.80   14.70
  -3  12   0   59.39   13.00
  -4  12   0  151.68   18.40
   4  12   0  124.29   26.80
  -4  12   0  124.09   11.50
  -4  12   0  123.99   18.00
   4  12   0  152.98   34.40
  -5  12   0    2.30    4.80
   5  12   0   17.30   13.90
   5  12   0    5.80   11.80
  -5  12   0   16.50    7.50
   6  12   0   92.59   26.90
  -6  12   0   74.39    8.70
  -6  12   0   88.79    8.90
   6  12   0   82.49   25.80
   7  12   0   34.30   18.50
   8  12   0  156.68   36.50
   8  12   0  128.29   34.20
   9  12   0    2.90   10.70
   9  12   0   32.40   26.30
   0  13   0    1.60    6.00
   0  13   0    0.60    4.40
   0  13   0    6.30    7.30
  -1  13   0   40.20   16.30
   1  13   0   49.30   16.10
  -1  13   0   17.20    8.00
  -1  13   0   53.89   16.70
   1  13   0   79.29   21.60
  -2  13   0   24.10   12.00
   2  13   0   57.59   20.50
  -2  13   0   22.60    9.90
  -2  13   0   32.90   10.30
   2  13   0   80.29   20.10
   3  13   0  131.89   30.90
   3  13   0  113.49   23.40
  -3  13   0  135.29   16.30
  -3  13   0  119.79   13.90
  -3  13   0  138.59   26.90
  -3  13   0  149.69   20.50
  -4  13   0    9.20    9.00
  -4  13   0   14.70    8.30
  -4  13   0    5.20    3.80
   4  13   0   34.90   16.70
  -4  13   0   -5.30    3.90
   4  13   0    7.70   11.10
   5  13   0   93.79   25.00
  -5  13   0   78.89   17.00
   5  13   0   89.49   27.60
  -5  13   0   75.69   16.00
   6  13   0    0.40    7.80
  -6  13   0   14.80    5.80
   6  13   0   15.70   12.90
   7  13   0    3.20    8.90
   7  13   0   22.50   17.10
   8  13   0   12.70   13.70
   8  13   0   30.40   19.30
   0  14   0   37.10   14.30
   0  14   0   54.19   19.50
  -1  14   0    3.80    7.10
  -1  14   0   10.60    8.90
   1  14   0    7.80    7.30
   1  14   0    0.60    8.60
  -1  14   0   -3.60    4.90
  -2  14   0   37.20   14.30
  -2  14   0   30.50   12.40
   2  14   0   14.80   10.50
   2  14   0   43.80   18.20
  -3  14   0   -1.20    3.70
  -3  14   0    1.10    4.30
  -3  14   0    1.60    6.70
   3  14   0    7.60    8.50
   3  14   0   -2.00    5.20
  -4  14   0   17.00   10.20
  -4  14   0   41.80    8.70
  -4  14   0   43.00   14.70
   4  14   0   21.60   14.40
   4  14   0   43.00   18.90
  -4  14   0   12.80   10.20
   5  14   0   52.19   19.60
   5  14   0   22.10   16.00
   6  14   0   40.90   18.20
  -6  14   0   70.49   10.70
   7  14   0   10.80   13.30
   7  14   0    3.80   10.90
   0  15   0   -5.50    4.20
   0  15   0    6.90    6.90
  -1  15   0   67.59   21.10
   1  15   0   70.29   20.10
   1  15   0   77.99   25.90
  -1  15   0   83.19   17.70
  -2  15   0    9.70    9.50
  -2  15   0   19.80    8.60
   2  15   0   -3.80    4.50
   2  15   0   28.40   16.80
   3  15   0   27.20   15.90
  -3  15   0   53.39   12.60
   3  15   0   25.10   13.50
  -3  15   0   43.30   17.00
  -4  15   0  109.39   24.10
  -4  15   0   93.49   10.20
   4  15   0  130.49   30.10
   4  15   0  111.89   30.80
  -5  15   0   49.60   15.90
   5  15   0   97.99   27.90
   5  15   0   66.59   26.90
   6  15   0    9.10   16.30
   6  15   0    6.30   11.70
   0  16   0  151.08   22.70
   0  16   0  102.99   27.80
  -1  16   0   66.99   20.50
  -1  16   0   98.39   20.40
   1  16   0   87.69   28.40
   1  16   0   71.19   19.20
  -2  16   0    1.10    5.00
   2  16   0    5.00    9.70
   2  16   0    9.50    9.90
  -2  16   0   -6.20    5.30
   3  16   0   44.50   22.30
  -3  16   0   20.90   13.00
   3  16   0   42.40   17.80
  -3  16   0   15.90    7.80
   4  16   0   62.99   25.40
   4  16   0   62.69   22.30
  -4  16   0   51.39   19.00
  -5  16   0   15.70   14.70
   5  16   0    8.00   15.60
   5  16   0   10.40   12.90
   0  17   0   -1.40    8.20
   0  17   0    3.90    8.60
  -1  17   0    5.90    7.70
   1  17   0   11.20   10.90
   1  17   0   25.00   16.70
  -1  17   0    0.70    8.60
   2  17   0   19.20   15.80
  -2  17   0   24.10   11.90
  -2  17   0   21.10   14.20
   2  17   0   19.30   11.90
  13   0  -1  192.68   37.70
  12   0  -1   10.00    7.10
  12   0  -1   -7.60    6.30
  11   0  -1  360.66   27.30
  11   0  -1  339.17   37.40
  11   0  -1  317.27   27.00
  10   0  -1    0.70    4.00
  10   0  -1   -4.50    3.50
  10   0  -1   -2.60    5.40
   9   0  -1   22.20    8.60
   9   0  -1   11.90    7.20
   9   0  -1   19.20   11.80
  -8   0   1    0.80    4.30
   8   0  -1    0.10    6.90
   8   0  -1   10.10    6.60
   8   0  -1    1.00    4.70
   7   0  -1  770.22   35.90
   7   0  -1  732.53   36.90
  -7   0   1  753.32   42.10
   7   0  -1  781.52   44.90
   6   0  -1   -1.00    2.90
   6   0  -1    0.70    4.90
  -6   0   1   -0.70    3.60
  -6   0   1    9.90    4.60
  -5   0   1 1252.07   43.90
   5   0  -1 1214.78   52.09
   5   0  -1 1252.27   44.80
  -5   0   1 1317.77   51.69
  -4   0   1   -2.60    1.70
   4   0  -1   -2.60    1.80
  -4   0   1   -0.20    2.50
   4   0  -1    2.10    3.50
   3   0  -1  450.95   23.10
  -3   0   1  450.85   18.90
  -3   0   1  440.26   22.30
   3   0  -1  454.65   19.20
   2   0  -1    2.80    2.40
  -2   0   1   -1.20    1.60
  -2   0   1   -0.90    2.20
   2   0  -1    2.40    2.80
   1   0  -1  113.69    6.00
   1   0  -1  114.59    7.00
  -1   0   1   73.39    5.80
   2   0   1   -2.00    1.80
   2   0   1    2.00    2.30
  -2   0  -1    1.10    2.40
   2   0   1    0.30    2.30
  -3   0  -1 1195.68   41.20
   3   0   1 1213.18   41.50
   3   0   1 1191.58   38.10
   3   0   1 1209.88   40.10
   4   0   1    1.90    2.60
  -4   0  -1   -0.90    2.00
   4   0   1   -0.70    2.30
   4   0   1    2.30    3.80
  -5   0  -1  162.68   15.50
   5   0   1  199.48   14.20
   5   0   1  178.08   14.80
   5   0   1  173.98   16.80
   6   0   1   -2.50    4.10
   6   0   1   -1.90    2.10
   6   0   1   -2.70    1.90
  -6   0  -1   -2.40    1.80
   7   0   1  463.95   26.20
   7   0   1  438.66   31.90
  -7   0  -1  467.15   30.90
   7   0   1  440.16   27.50
   8   0   1   -1.50    4.10
   8   0   1    5.50    5.50
  -8   0  -1    3.30    5.20
   8   0   1   -3.90    3.70
   9   0   1  646.44   34.40
   9   0   1  638.74   45.00
   9   0   1  600.84   36.20
  10   0   1    5.50    6.10
  10   0   1   10.30   10.00
  10   0   1   -5.70    2.80
  11   0   1   25.00   10.80
  11   0   1   15.90   11.90
  11   0   1   10.70    7.50
  12   0   1   -5.30    3.60
  12   0   1   -8.60    5.20
  13   0   1  272.67   36.90
  13  -1  -1   11.20   11.10
  13   1  -1    7.10    8.70
  13   1  -1    9.10   12.20
  12  -1  -1   54.69   10.50
  12  -1  -1   18.10   15.40
  12   1  -1   48.00   14.80
  12   1  -1   80.39   22.70
  11  -1  -1    2.20    4.60
  11  -1  -1    0.30    8.90
  11  -1  -1    3.80    4.50
  11   1  -1   19.20   10.30
  11   1  -1    3.60    6.50
  11   1  -1   -2.10    8.70
  10  -1  -1  889.31   57.39
  10  -1  -1  926.91   42.20
  10  -1  -1  945.31   41.00
  10   1  -1  936.11   51.49
  10   1  -1  914.51   49.00
  10   1  -1  956.40   61.99
   9  -1  -1   39.90   10.40
   9  -1  -1   24.80   11.20
   9  -1  -1   52.19   11.50
   9   1  -1   11.90   11.10
   9   1  -1   48.50   12.90
   9   1  -1   50.79   14.30
   8  -1  -1   72.79   13.10
  -8  -1   1   73.79   17.90
   8  -1  -1   87.99   18.90
   8  -1  -1   67.09   10.10
   8   1  -1   74.49   15.80
  -8   1   1   85.99   17.60
   8   1  -1  100.49   22.10
   8   1  -1   85.89   13.50
   7  -1  -1   58.89   11.20
   7  -1  -1   59.09   15.00
  -7  -1   1   46.10   12.80
   7  -1  -1   55.99   10.40
   7   1  -1   36.60   12.00
   7   1  -1   70.59   14.10
  -7   1   1   40.40   11.40
   7   1  -1   60.39   14.00
   6  -1  -1   29.70    7.00
  -6  -1   1   21.80    7.50
   6  -1  -1   19.80    8.20
  -6  -1   1   33.40   11.20
   6  -1  -1   23.10    6.40
   6   1  -1   20.70    7.30
   6   1  -1   21.00    8.40
  -6   1   1   44.30   11.30
  -5  -1   1   11.20    6.00
   5  -1  -1   14.10    4.60
   5  -1  -1    5.40    5.20
  -5  -1   1   22.30    6.70
   5   1  -1   22.10    7.00
   5   1  -1   22.40    8.70
  -5   1   1   16.80    7.00
  -5   1   1   14.00    4.40
  -4  -1   1 2403.06   73.09
  -4  -1   1 2372.26   77.69
   4  -1  -1 2371.06   66.49
   4  -1  -1 2368.56   75.99
  -4   1   1 2416.06   65.69
   4   1  -1 2410.86   73.79
  -4   1   1 2306.27   73.99
   4   1  -1 2445.96   79.49
   3  -1  -1  103.89    7.10
  -3  -1   1  101.79    9.60
   3  -1  -1  105.19   10.50
  -3   1   1  101.79    9.80
  -3   1   1  109.39    6.80
   3   1  -1  107.89   10.00
   3   1  -1   97.59   11.00
  -2  -1   1 2078.69   59.59
  -2  -1   1 2056.09   61.29
  -2   1   1 2030.10   52.79
   2   1  -1 2054.49   59.69
   2   1  -1 1993.80   61.69
  -2   1   1 2141.29   59.19
  -1  -1   1  242.18   11.80
   1  -1  -1  230.58    8.90
  -1  -1   1  226.98   11.30
   1  -1  -1  219.28   10.40
  -1   1   1  228.58    8.90
   1   1  -1  234.28   11.80
  -1   1   1  230.28   10.50
   0  -1  -1    2.00    1.50
   0  -1   1   -0.40    0.50
   0  -1  -1    1.30    1.40
   1  -1   1  466.65   13.00
  -1  -1  -1  433.56   21.20
   1  -1   1  468.15   14.40
  -1   1  -1  469.45   14.60
   1   1   1  494.45   19.50
   2   1   1 3729.43  102.09
  -3  -1  -1  165.48   13.40
   3  -1   1  169.78    8.60
   3  -1   1  179.28   11.90
   3  -1   1  147.69    8.90
   3   1   1  153.08   11.90
  -3   1  -1  162.38   11.00
   3   1   1  172.08   13.80
   3   1   1  143.29   12.70
   4  -1   1 1235.98   37.50
  -4  -1  -1 1224.08   47.00
   4  -1   1 1174.28   43.70
   4  -1   1 1191.58   39.00
   4   1   1 1205.28   47.40
   4   1   1 1201.08   47.30
   4   1   1 1298.57   44.80
  -4   1  -1 1196.88   43.20
   5  -1   1  301.17   20.90
  -5  -1  -1  270.07   21.00
   5  -1   1  320.87   17.50
   5  -1   1  333.67   16.40
   5   1   1  261.97   20.30
   5   1   1  299.17   22.80
   5   1   1  315.07   20.40
  -5   1  -1  287.87   19.60
  -6  -1  -1  414.16   27.70
   6  -1   1  366.36   25.60
   6  -1   1  322.07   19.60
   6  -1   1  398.16   19.70
   6   1   1  332.07   26.60
  -6   1  -1  355.46   24.00
   6   1   1  347.77   23.10
   6   1   1  343.97   25.00
   7  -1   1   -2.90    2.90
   7  -1   1   -1.30    2.50
   7  -1   1    2.00    3.20
  -7   1  -1   -1.40    2.60
   7   1   1   -4.10    1.80
   7   1   1   -2.30    2.80
   7   1   1   -0.90    4.70
   8  -1   1   32.10    8.20
   8  -1   1   23.70    8.00
  -8  -1  -1   32.30   12.20
   8  -1   1   23.00   11.70
   8   1   1   15.40    8.20
   8   1   1   19.00    8.60
   8   1   1   23.10   11.00
   9  -1   1    7.70    8.50
   9  -1   1   14.20    6.60
   9  -1   1   26.00    8.60
   9   1   1   17.40    9.30
   9   1   1   16.90    9.00
   9   1   1   11.80    9.20
  -9   1  -1    7.90    6.10
  10  -1   1  334.77   22.20
  10  -1   1  369.06   24.60
  10  -1   1  331.97   33.30
  10   1   1  365.26   31.10
  10   1   1  342.07   35.90
  10   1   1  354.46   28.10
  11  -1   1    3.40    5.40
  11  -1   1   14.10   11.00
  11  -1   1    8.00    5.90
  11   1   1   -4.90    5.60
  11   1   1    4.80    6.40
  11   1   1    7.30    7.40
  12  -1   1   16.00   12.90
  12  -1   1   31.20    7.70
  12   1   1   49.80   15.40
  12   1   1   21.20   14.30
  13  -1   1   21.70   14.10
  13   1   1   34.10   20.60
  13   1   1    4.90    9.60
  13  -2  -1   16.60   14.90
  13   2  -1   34.70   15.20
  13   2  -1   62.89   24.80
  12  -2  -1   14.10   11.30
  12   2  -1    7.80   11.50
  12   2  -1   16.40   10.60
  11  -2  -1   28.10   14.70
  11   2  -1   23.60   14.40
  11   2  -1    2.30    6.50
  10  -2  -1   47.40    6.50
  10  -2  -1   67.59   20.10
  10  -2  -1   49.80    6.90
  10   2  -1   65.69   23.00
  10   2  -1   55.79   16.70
  10   2  -1   53.59   16.10
   9  -2  -1    9.20    4.10
   9  -2  -1   -1.30    5.30
   9  -2  -1    0.00    2.70
  -9   2   1   10.90    7.70
   9   2  -1    4.60    6.50
   9   2  -1   12.80    9.20
   9   2  -1   -0.90    6.70
   8  -2  -1  417.96   39.00
   8  -2  -1  449.16   21.80
   8  -2  -1  475.75   21.60
   8   2  -1  502.75   33.70
  -8   2   1  468.15   33.00
   8   2  -1  530.05   36.50
   8   2  -1  483.45   39.20
  -7  -2   1  407.56   27.50
   7  -2  -1  376.86   18.00
   7  -2  -1  396.46   29.60
   7  -2  -1  376.16   18.50
  -7  -2   1  331.97   28.80
  -7   2   1  418.56   28.10
   7   2  -1  372.06   27.50
   7   2  -1  359.36   31.60
  -6  -2   1  238.38   20.20
   6  -2  -1  297.27   17.30
  -6  -2   1  329.07   26.10
   6  -2  -1  275.17   14.10
   6  -2  -1  247.98   21.60
   6   2  -1  284.57   22.60
   6   2  -1  248.18   24.30
  -6   2   1  257.77   20.30
  -5  -2   1  526.05   29.10
  -5  -2   1  524.05   31.90
   5  -2  -1  508.75   29.10
   5  -2  -1  528.35   19.20
   5  -2  -1  555.54   19.70
  -5   2   1  504.05   27.40
   5   2  -1  522.15   32.80
   5   2  -1  533.15   29.90
   4  -2  -1   -0.20    3.70
   4  -2  -1   -2.20    1.40
  -4  -2   1   -0.50    2.80
  -4  -2   1    4.10    3.60
  -4   2   1    3.20    3.40
   4   2  -1   -0.50    3.00
  -4   2   1    2.00    1.40
   4   2  -1    5.10    4.90
   3  -2  -1  615.14   26.10
  -3  -2   1  589.54   29.00
   3  -2  -1  595.04   17.10
   3   2  -1  587.94   29.60
  -3   2   1  590.04   16.60
  -3   2   1  587.24   24.90
   3   2  -1  579.24   27.90
  -2  -2   1  140.69   11.60
  -2  -2   1  145.89   12.10
   2  -2  -1  129.29    6.40
   2  -2  -1  131.99   10.00
  -2   2   1  137.99    6.60
  -2   2   1  127.59    9.20
   2   2  -1  136.49   12.00
   1  -2  -1 2724.23  102.69
  -1   2   1 2811.82  102.69
   0  -2  -1  447.06   21.90
   0  -2   1  437.96   17.70
   0  -2   1  422.76   15.50
   0   2  -1  458.85   15.90
   0   2  -1  504.45   21.40
   0   2   1  435.46   18.00
   0   2   1  444.16   18.40
   0   2   1  451.65   19.30
   1  -2   1 1414.86   39.70
   1   2   1 1456.65   45.30
   1   2   1 1479.95   47.90
  -1   2  -1 1421.96   40.00
   2   2   1 3744.93  106.79
   3  -2   1 1287.97   32.40
  -3  -2  -1 1296.07   47.30
   3  -2   1 1252.67   39.70
  -3   2  -1 1278.07   39.00
   3   2   1 1280.27   46.20
   3   2   1 1292.17   55.49
   3   2   1 1255.47   47.60
   4  -2   1  342.77   18.80
   4  -2   1  326.77   12.30
  -4  -2  -1  346.07   22.90
   4  -2   1  338.27   11.70
   4   2   1  355.56   23.90
   4   2   1  307.67   20.70
  -4   2  -1  350.06   18.00
   4   2   1  334.77   23.10
   5  -2   1   91.89   11.30
   5  -2   1   91.69    6.90
   5  -2   1   83.39    6.10
  -5  -2  -1   89.09   12.70
   5   2   1   78.39   11.30
   5   2   1  106.89   14.60
   5   2   1   97.59   13.40
  -5   2  -1   95.09   10.40
  -6  -2  -1  303.47   24.70
   6  -2   1  260.47   20.90
   6  -2   1  279.57   14.30
   6   2   1  291.57   25.50
   6   2   1  304.77   22.80
  -6   2  -1  256.87   19.40
   6   2   1  309.07   24.90
  -7  -2  -1  812.02   45.80
   7  -2   1  853.21   29.70
   7  -2   1  840.32   42.90
   7  -2   1  833.92   30.80
   7   2   1  934.51   44.90
   7   2   1  762.52   47.00
  -7   2  -1  775.32   39.50
   7   2   1  791.12   45.00
   8  -2   1  325.37   16.90
   8  -2   1  335.97   28.30
   8  -2   1  336.37   17.90
  -8   2  -1  330.87   25.60
   8   2   1  340.07   29.40
   8   2   1  327.77   26.90
   8   2   1  311.67   30.80
   9  -2   1  365.86   31.50
   9  -2   1  335.97   18.30
   9  -2   1  362.46   18.20
  -9   2  -1  392.26   29.90
   9   2   1  405.96   31.00
   9   2   1  397.86   32.90
   9   2   1  305.17   32.90
  10  -2   1    5.00    3.20
  10  -2   1    3.00    4.20
  10  -2   1   -1.50    6.50
  10   2   1   15.90   10.00
  10   2   1   -4.30    4.80
  10   2   1   -1.30    4.30
  11  -2   1   -7.50    4.00
  11   2   1   -1.30    5.10
  11   2   1   10.10   17.20
  12  -2   1    0.30    7.10
  12   2   1   -3.00    5.70
  12   2   1    0.60    7.40
  13  -2   1  101.39   27.10
  13   2   1   94.19   28.20
  13   2   1  106.19   22.90
  13  -3  -1    8.70    9.50
  13   3  -1   -3.60    8.20
  13   3  -1    8.50    9.90
  12  -3  -1  166.08   32.20
  12   3  -1  191.28   40.00
  12   3  -1  195.68   27.60
  11  -3  -1  123.39   26.90
  11   3  -1  112.69   23.20
  11   3  -1   76.59   25.10
  10  -3  -1  558.94   41.90
  10   3  -1  422.36   42.60
  10   3  -1  409.06   35.30
   9  -3  -1  110.89   18.50
  -9   3   1  133.39   17.70
   9   3  -1  126.49   19.20
   9   3  -1  160.98   31.70
   9   3  -1  129.79   20.60
   8  -3  -1  561.94   37.00
  -8   3   1  582.14   35.00
   8   3  -1  498.05   41.40
   8   3  -1  552.04   40.00
   8   3  -1  563.34   38.00
  -7  -3   1  125.79   16.60
  -7  -3   1  146.89   19.70
   7  -3  -1  152.88   17.60
   7   3  -1  145.69   21.20
  -7   3   1  134.19   15.40
   7   3  -1  158.18   19.00
  -6  -3   1   53.09   14.00
   6  -3  -1   38.90   11.00
  -6  -3   1   51.49   12.10
   6   3  -1   32.60   12.10
  -6   3   1   36.40    9.10
   6   3  -1   27.70    9.70
  -5  -3   1  462.15   30.30
  -5  -3   1  428.56   27.70
   5  -3  -1  422.06   25.50
  -5   3   1  440.56   24.20
   5   3  -1  410.46   30.20
   5   3  -1  448.66   28.80
  -4  -3   1 2593.74   86.09
   4  -3  -1 2580.94   77.99
  -4  -3   1 2564.44   83.99
   4   3  -1 2520.55   84.49
  -4   3   1 2562.54   76.19
   4   3  -1 2467.45   86.59
  -3  -3   1  318.67   21.00
  -3  -3   1  274.17   19.30
   3  -3  -1  287.77   16.30
   3   3  -1  273.57   20.10
  -3   3   1  283.07    9.40
  -3   3   1  285.47    9.10
   3   3  -1  304.17   20.70
  -3   3   1  263.17   15.30
  -2  -3   1 2361.56   73.49
  -2  -3   1 2310.97   73.49
   2  -3  -1 2430.76   67.29
   2   3  -1 2332.37   73.89
  -2   3   1 2424.36   62.39
   2   3  -1 2288.77   73.09
  -2   3   1 2329.77   66.49
  -2   3   1 2372.16   63.79
  -1  -3   1 1139.59   39.20
   1  -3  -1 1074.59   35.20
  -1  -3   1 1011.60   36.30
  -1   3   1 1038.00   33.60
  -1   3   1 1044.00   35.60
  -1   3   1 1030.00   34.80
   1   3  -1 1041.90   38.70
   1   3  -1 1031.50   36.90
   0  -3   1 1716.13   51.79
   0  -3   1 1644.84   47.90
   0   3   1 1736.63   54.69
   0   3  -1 1684.23   48.50
   0   3   1 1708.33   52.39
   0   3   1 1699.33   51.79
   0   3  -1 1579.04   51.19
  -1  -3  -1 1199.78   42.20
   1  -3   1 1170.98   37.00
  -1   3  -1 1185.78   37.30
   1   3   1 1230.88   41.30
  -1   3  -1 1202.18   32.70
   1   3   1 1202.98   44.80
   1   3   1 1117.99   41.80
  -1   3  -1 1229.58   33.80
  -2  -3  -1  905.01   37.40
   2  -3   1  963.10   28.20
   2  -3   1  932.11   26.30
  -2   3  -1  945.81   26.00
  -2   3  -1  954.60   28.60
   2   3   1  959.00   38.10
  -3  -3  -1    2.20    3.60
   3  -3   1    4.30    2.80
  -3  -3  -1    5.20    3.30
  -3   3  -1    3.60    2.30
   3   3   1    8.90    5.40
   3   3   1    0.50    4.30
   3   3   1    2.70    3.30
   4  -3   1 1156.58   39.20
  -4  -3  -1 1137.29   48.50
   4   3   1 1108.09   49.30
  -4   3  -1 1169.08   37.90
   4   3   1 1137.99   47.90
   4   3   1 1113.69   50.69
  -5  -3  -1  205.88   19.70
   5  -3   1  182.98   14.90
   5   3   1  242.68   22.00
   5   3   1  192.08   20.30
  -5   3  -1  217.68   14.70
   5   3   1  186.58   18.50
   6  -3   1   66.59   12.60
  -6  -3  -1   49.20   16.00
   6   3   1   31.60   11.80
  -6   3  -1   33.70    8.00
   6   3   1   51.79   13.50
   6   3   1   26.30   10.60
   7  -3   1   67.19   14.10
  -7  -3  -1   81.39   18.30
   7   3   1   72.19   17.40
  -7   3  -1   54.79   11.50
   7   3   1   64.29   17.10
   7   3   1   48.70   13.30
   8  -3   1   59.49   14.40
   8   3   1   58.29   15.90
  -8   3  -1   72.79   11.80
   8   3   1   71.79   19.90
   8   3   1   67.49   16.40
   9   3   1   84.79   23.90
   9   3   1   72.99   17.60
   9   3   1   97.39   22.10
  10  -3   1  113.49   18.80
  10   3   1  125.69   30.40
 -10   3  -1  103.99   16.10
  10   3   1   59.29   16.30
  11  -3   1  252.97   28.70
  11   3   1  189.58   24.80
  11   3   1  225.88   32.90
  12  -3   1   68.99   20.20
  12   3   1   44.10   20.00
  12   3   1   55.59   18.00
  13  -3   1   31.50   16.00
  13   3   1   -1.30    7.10
  13   3   1   11.20   11.20
  12  -4  -1   63.29   18.60
  12   4  -1   70.99   22.30
  12   4  -1  109.99   28.70
  11  -4  -1   12.00   10.80
  11   4  -1   33.30   16.80
  11   4  -1    9.40   10.10
  10  -4  -1    6.30    7.40
 -10   4   1    3.50    5.80
  10   4  -1   -7.40    3.80
  10   4  -1   18.00   19.00
   9   4  -1   96.79   21.40
   9   4  -1   60.19   20.90
   8  -4  -1   49.70   14.00
  -8   4   1   45.60   11.80
   8   4  -1   63.29   18.00
   8   4  -1   28.40   14.10
   8   4  -1   34.50   13.80
   7  -4  -1   93.79   17.40
  -7  -4   1   45.90   14.10
  -7   4   1   55.39   12.20
   7   4  -1   71.19   20.00
   7   4  -1   55.69   15.70
  -6  -4   1   53.69   13.70
   6  -4  -1   71.49   13.90
  -6  -4   1   79.09   16.90
   6   4  -1   98.89   19.00
   6   4  -1   67.39   17.80
  -6   4   1   74.19   10.50
  -5  -4   1   84.69   17.00
  -5  -4   1  112.99   14.90
   5  -4  -1  101.89   11.90
  -5   4   1   82.19   10.20
   5   4  -1   96.39   15.30
   5   4  -1   73.09   14.70
  -4  -4   1  176.98   17.80
   4  -4  -1  177.98   13.80
  -4  -4   1  183.08   17.90
   4   4  -1  162.28   18.00
  -4   4   1  150.48   12.40
   4   4  -1  145.39   16.60
  -3  -4   1 1486.45   56.29
  -3  -4   1 1366.76   55.49
   3  -4  -1 1445.96   47.70
  -3   4   1 1465.05   41.90
  -3   4   1 1492.65   40.70
  -3   4   1 1489.05   46.90
   3   4  -1 1373.66   55.69
  -2  -4   1   84.99   10.90
   2  -4  -1   88.59    8.60
  -2  -4   1   69.09    9.50
  -2   4   1   80.09    8.00
  -2   4   1  101.29    7.90
  -2   4   1   74.49    8.00
   2   4  -1   93.09   11.70
   2   4  -1   79.79   10.70
  -1  -4   1  114.19   11.90
  -1  -4   1  138.99   11.50
  -1   4   1   99.09    9.40
  -1   4   1  102.59    9.70
   1   4  -1  102.79   10.60
   1   4  -1  102.69   11.40
  -1   4   1  111.09   10.70
   0  -4   1  413.86   21.80
   0   4   1  453.75   22.80
   0   4   1  480.45   25.20
   0   4   1  434.76   22.50
   0   4  -1  451.25   22.80
   0   4  -1  440.46   19.70
   1  -4   1 1267.17   41.40
  -1  -4  -1 1218.58   45.70
  -1   4  -1 1237.38   41.40
  -1   4  -1 1219.68   37.70
   1   4   1 1199.78   45.80
   1   4   1 1160.58   43.80
  -1   4  -1 1241.58   36.70
   2  -4   1  340.07   15.60
  -2  -4  -1  318.07   21.40
   2   4   1  410.06   23.60
  -2   4  -1  336.27   15.70
  -2   4  -1  345.07   13.10
   2   4   1  368.56   23.20
  -3  -4  -1   31.90    8.70
   3  -4   1   42.00    4.70
   3   4   1   45.20   10.80
   3   4   1   55.79   12.00
  -3   4  -1   40.60    4.50
  -3   4  -1   49.99    4.70
   4  -4   1   86.89    8.10
  -4  -4  -1   93.19   13.10
  -4  -4  -1   88.29   12.90
   4   4   1   94.39   13.30
  -4   4  -1   87.79    7.20
   4   4   1   95.29   14.90
   4   4   1  111.79   14.80
   5  -4   1  361.86   19.80
  -5  -4  -1  389.16   28.50
  -5   4  -1  371.36   18.70
   5   4   1  342.67   28.00
   5   4   1  368.46   29.70
   5   4   1  334.77   26.60
  -6  -4  -1  308.17   27.10
   6  -4   1  295.17   20.30
   6   4   1  305.67   26.30
   6   4   1  264.77   26.80
  -6   4  -1  319.47   19.20
   6   4   1  321.77   28.60
   7  -4   1  324.27   23.20
  -7   4  -1  284.37   19.90
   7   4   1  290.67   29.80
   7   4   1  256.47   25.70
   7   4   1  262.17   27.60
   8  -4   1   40.70   11.80
  -8   4  -1   66.89   13.40
   8   4   1   45.50   15.40
   8   4   1   64.19   17.00
   8   4   1   57.29   17.60
   9  -4   1    8.40    7.60
   9   4   1   15.20   11.10
  -9   4  -1    5.90    5.00
   9   4   1   10.00   10.10
  10  -4   1   35.30   14.70
  10   4   1   17.30   11.40
  10   4   1   57.59   19.50
  11  -4   1    9.40    8.90
  11   4   1    2.00    7.70
  11   4   1    1.00    6.10
  12  -4   1   40.20   15.80
  12   4   1   22.00   15.00
  12   4   1    2.90    9.50
  12  -5  -1   15.80    9.10
  12   5  -1   -5.10    6.70
  12   5  -1   13.80   13.70
  11  -5  -1  209.88   25.40
  11   5  -1  146.39   30.00
  11   5  -1  184.38   39.70
  10  -5  -1   39.50   13.90
 -10   5   1   37.40   11.40
  10   5  -1   36.80   16.80
  10   5  -1   52.09   20.80
   9  -5  -1  279.87   26.30
  -9   5   1  278.27   23.50
   9   5  -1  262.77   33.60
   9   5  -1  336.37   33.50
   8  -5  -1   41.80   12.50
   8   5  -1   47.70   18.10
   8   5  -1   36.10   14.60
  -8   5   1   52.39   11.70
   7  -5  -1   54.59   13.40
  -7  -5   1   14.70    7.90
  -7   5   1   31.80    8.70
   7   5  -1   33.90   12.00
   7   5  -1   31.90   14.70
  -6  -5   1   36.70   12.20
  -6  -5   1   28.70   10.80
   6  -5  -1   51.29   11.40
   6   5  -1   48.60   13.90
   6   5  -1   73.59   18.80
  -6   5   1   59.19    9.10
  -5  -5   1  740.63   43.30
   5  -5  -1  785.02   35.00
  -5  -5   1  789.62   43.70
  -5   5   1  823.42   36.70
   5   5  -1  807.32   46.60
   5   5  -1  800.72   46.30
   4  -5  -1  362.86   20.40
  -4  -5   1  358.96   27.00
  -4  -5   1  347.97   26.70
  -4   5   1  383.66   13.40
   4   5  -1  399.16   29.00
  -4   5   1  377.06   20.00
  -4   5   1  372.16   12.70
   4   5  -1  360.86   27.90
  -3  -5   1 2093.89   71.69
  -3  -5   1 1894.11   71.09
   3  -5  -1 1803.32   58.89
  -3   5   1 1879.51   56.89
  -3   5   1 1899.91   54.79
   3   5  -1 1896.11   71.89
   3   5  -1 1926.11   71.09
  -3   5   1 1868.51   58.69
  -2  -5   1  313.47   21.20
  -2  -5   1  338.07   23.60
   2  -5  -1  310.67   17.70
  -2   5   1  322.27   17.20
  -2   5   1  340.47   19.30
   2   5  -1  246.88   19.90
   2   5  -1  263.67   21.50
  -2   5   1  355.06   18.90
  -1  -5   1 1162.28   46.70
  -1   5   1 1161.18   45.10
   1   5  -1 1221.88   48.10
   1   5  -1 1171.48   44.40
  -1   5   1 1125.89   42.40
  -1   5   1 1093.39   41.70
   0  -5   1   18.00    6.70
   0   5   1    4.90    4.70
   0   5   1    8.50    5.10
   0   5   1   23.60    8.70
   0   5  -1    3.40    3.10
   0   5  -1    9.30    5.30
  -1  -5  -1  397.06   24.50
   1  -5   1  403.56   21.60
   1   5   1  410.66   25.40
   1   5   1  403.46   23.20
  -1   5  -1  407.36   19.40
   1   5   1  443.26   27.90
  -1   5  -1  400.26   17.80
  -1   5  -1  405.76   21.70
  -2  -5  -1  197.48   18.20
   2  -5   1  242.18   14.50
  -2   5  -1  237.48   12.20
  -2   5  -1  234.78   14.50
   2   5   1  192.78   18.00
   2   5   1  247.48   19.40
  -3  -5  -1  871.31   42.10
  -3   5  -1  814.02   25.40
   3   5   1  818.72   44.30
   3   5   1  788.42   41.00
   3   5   1  792.92   40.80
  -3   5  -1  827.32   29.00
   4  -5   1    1.10    2.30
  -4  -5  -1    2.20    3.90
  -4   5  -1    3.50    1.50
   4   5   1    4.80    5.20
  -4   5  -1    3.80    2.30
   4   5   1   -2.40    3.40
  -4   5  -1    2.80    1.60
   4   5   1   -1.50    3.40
   5  -5   1  146.99   11.30
   5   5   1  124.49   18.20
  -5   5  -1  177.28   11.10
   5   5   1  111.19   17.20
   5   5   1  128.39   18.70
   6  -5   1   19.70    6.30
  -6   5  -1   29.10    6.80
   6   5   1   20.40   10.00
   6   5   1   21.40   10.00
   6   5   1   21.90    9.40
   7  -5   1    5.80    5.30
  -7   5  -1   -0.10    3.10
   7   5   1   -2.20    4.90
   7   5   1   -0.50    4.00
   7   5   1   14.80    9.10
   8  -5   1    0.30    4.70
   8   5   1    8.20    8.20
   8   5   1   -0.30    7.50
  -8   5  -1    3.20    4.10
   9  -5   1  226.78   21.70
   9   5   1  211.58   26.90
  -9   5  -1  220.78   19.30
   9   5   1  232.28   31.00
  10  -5   1  105.79   20.40
  10   5   1   68.79   20.30
  10   5   1   65.29   22.00
  11  -5   1   61.49   15.60
  11   5   1   86.39   24.90
  11   5   1   63.39   19.20
  12  -5   1    1.70    7.10
  12   5   1   -5.50    7.10
  12   5   1    5.20    9.30
  12  -6  -1   68.39   17.40
  12   6  -1   35.00   17.30
  12   6  -1   64.99   24.50
  11  -6  -1   29.00   11.80
  11   6  -1   38.70   16.60
  11   6  -1   21.60   14.10
  10  -6  -1    4.60    7.30
  10   6  -1    5.30    9.60
  10   6  -1    2.20    8.80
 -10   6   1    9.00    6.80
   9  -6  -1   15.60    7.50
   9   6  -1   10.10   13.20
  -9   6   1    5.10    4.90
   9   6  -1   12.00   11.00
   8  -6  -1  212.68   20.20
  -8   6   1  167.28   16.40
   8   6  -1  181.78   27.50
   8   6  -1  166.98   24.60
   7  -6  -1  115.09   14.50
   7   6  -1  107.29   24.60
  -7   6   1   96.49   11.70
   7   6  -1   96.89   22.50
  -6  -6   1  530.95   44.10
   6  -6  -1  457.75   27.10
   6   6  -1  571.04   40.40
  -6   6   1  529.15   26.60
   6   6  -1  480.75   38.70
  -5  -6   1   57.89   15.50
  -5  -6   1   40.20   12.10
   5  -6  -1   57.09   10.70
   5   6  -1   24.20   11.10
  -5   6   1   43.00    8.70
   5   6  -1   42.50   14.10
  -4  -6   1  483.35   33.40
   4  -6  -1  439.56   23.30
  -4  -6   1  486.65   37.70
  -4   6   1  504.75   19.30
  -4   6   1  482.25   23.50
  -4   6   1  482.35   20.20
  -3  -6   1   90.19   16.90
  -3  -6   1   86.49   16.90
   3  -6  -1   76.09    9.20
   3   6  -1   86.69   14.10
  -3   6   1   97.39   10.30
  -3   6   1   85.99    9.50
  -3   6   1   86.99    8.90
   3   6  -1   79.19   16.70
  -2  -6   1  371.76   26.60
  -2   6   1  362.46   20.70
   2   6  -1  373.86   27.10
   2   6  -1  380.46   25.70
  -2   6   1  335.47   20.30
  -1  -6   1   94.89   12.80
  -1   6   1  112.09   14.10
  -1   6   1   91.29   11.20
   1   6  -1  104.79   13.80
  -1   6   1  125.69   13.90
   1   6  -1   90.69   11.60
   0  -6   1  159.48   15.60
   0   6   1  197.88   17.10
   0   6   1  182.98   18.00
   0   6  -1  200.98   17.40
   0   6   1  148.49   15.00
   0   6  -1  183.08   14.30
   1  -6   1 1607.54   56.09
  -1  -6  -1 1554.74   60.39
   1   6   1 1551.24   60.69
  -1   6  -1 1572.24   52.39
  -1   6  -1 1567.84   49.99
  -1   6  -1 1607.14   56.49
   1   6   1 1512.25   63.79
   1   6   1 1549.94   57.89
  -2  -6  -1 1099.59   49.60
   2   6   1 1093.69   48.20
   2   6   1 1121.79   53.79
  -2   6  -1 1059.19   41.00
  -2   6  -1 1080.89   36.80
   2   6   1 1023.30   48.80
  -2   6  -1 1105.89   34.80
  -3  -6  -1   57.89   13.00
   3   6   1   66.89   15.10
  -3   6  -1   71.09    6.30
   3   6   1   83.69   17.60
  -3   6  -1   53.39    7.50
   3   6   1   86.99   17.60
   4   6   1   87.49   28.40
   4   6   1   50.59   16.20
  -4   6  -1   62.99    5.40
  -4   6  -1   52.19    6.10
  -5   6  -1    7.70    3.20
   5   6   1   16.30    8.80
   5   6   1    0.80    5.10
   5   6   1    1.70    5.00
   6  -6   1  185.98   13.30
   6   6   1  221.88   25.20
   6   6   1  176.18   23.50
  -6   6  -1  189.58   12.20
   7  -6   1   16.40    6.40
   7   6   1   -2.50    6.20
  -7   6  -1   13.50    5.40
   7   6   1   17.10   10.30
   8  -6   1  798.42   37.20
  -8   6  -1  756.22   33.80
   8   6   1  756.32   54.79
   8   6   1  870.61   54.79
   9  -6   1    4.40    5.50
   9   6   1   -3.30    7.60
   9   6   1   -3.50    7.80
  10  -6   1  204.28   20.60
  10   6   1  185.68   28.00
  10   6   1  238.28   34.20
  11  -6   1    0.80    4.90
  11   6   1   -3.10    6.20
  11   6   1    4.10    9.90
  12  -6   1   12.60    9.00
  12   6   1   11.00   13.00
  12   6   1    4.90   11.90
  12  -7  -1   22.10   11.10
  12   7  -1   29.10   30.20
  12   7  -1   34.90   20.30
  11  -7  -1  195.98   26.10
  11   7  -1  232.48   45.90
  11   7  -1  161.18   34.60
  10  -7  -1    1.40    4.90
 -10   7   1    1.60    4.20
  10   7  -1   -1.80    8.00
  10   7  -1   25.40   18.00
   9  -7  -1  522.45   33.20
   9   7  -1  555.24   50.59
  -9   7   1  543.25   30.30
   9   7  -1  565.24   47.50
   8  -7  -1  116.49   14.60
   8   7  -1   72.89   20.90
   8   7  -1   65.59   21.70
  -8   7   1   99.19   12.00
   7  -7  -1   11.40    6.30
  -7   7   1    2.20    3.80
   7   7  -1    2.80    6.30
   7   7  -1    5.70    8.30
   6  -7  -1   -2.20    3.10
   6   7  -1   -3.50    3.00
  -6   7   1   -0.50    3.40
   6   7  -1   -1.60    5.90
   5  -7  -1  385.06   21.80
  -5   7   1  410.26   21.60
   5   7  -1  381.56   33.80
   5   7  -1  370.96   33.00
   4  -7  -1   16.00    6.00
  -4  -7   1    8.80    6.80
  -4   7   1   17.40    5.10
   4   7  -1    3.50    5.80
   4   7  -1   18.90    9.10
  -4   7   1   19.70    6.30
  -4   7   1   18.30    6.10
  -3  -7   1 1474.65   75.09
   3   7  -1 1483.65   67.39
  -3   7   1 1524.65   52.49
   3   7  -1 1588.94   66.29
  -3   7   1 1537.25   53.39
  -2  -7   1    0.80    4.40
  -2   7   1   12.30    5.40
   2   7  -1    2.40    4.30
   2   7  -1    9.40    7.50
  -2   7   1    4.80    4.90
  -1  -7   1  381.96   27.30
  -1   7   1  377.76   24.30
  -1   7   1  415.46   28.40
   1   7  -1  416.16   29.10
  -1   7   1  431.66   26.30
   1   7  -1  394.66   25.60
   0  -7   1   -1.00    2.30
   0   7   1   10.40    6.00
   0   7   1   -2.00    2.60
   0   7   1    4.60    4.60
   0   7   1    2.00    3.50
   0   7  -1    9.00    6.10
   0   7  -1    7.00    4.60
   1  -7   1  307.17   21.90
  -1   7  -1  359.46   23.90
   1   7   1  357.16   24.30
   1   7   1  293.27   24.40
  -1   7  -1  325.27   19.00
   1   7   1  341.67   28.20
  -1   7  -1  339.17   21.00
   2  -7   1    1.70    3.40
  -2   7  -1    0.80    2.20
   2   7   1    4.50    5.80
  -2   7  -1    5.50    3.70
   2   7   1    5.50    4.90
   2   7   1    2.30    4.10
  -2   7  -1    3.80    4.40
  -3   7  -1  833.22   29.20
  -3   7  -1  830.02   34.40
   3   7   1  821.22   51.29
  -3   7  -1  813.22   27.30
   3   7   1  866.21   45.90
   3   7   1  754.72   45.10
  -4   7  -1    6.70    4.00
   4   7   1    9.50    7.50
  -4   7  -1   11.70    4.80
   4   7   1   -0.50    5.10
   4   7   1    5.90    7.00
  -4   7  -1    9.40    3.00
  -5   7  -1  634.14   20.70
   5   7   1  589.04   42.20
   5   7   1  740.43   46.60
   6   7   1   -5.80    4.10
   6   7   1    9.80    8.00
  -6   7  -1    6.10    2.60
   7  -7   1   62.19    7.70
  -7   7  -1   62.19    6.80
   7   7   1   62.69   19.50
   7   7   1   68.99   20.40
   8  -7   1    4.80    3.80
   8   7   1   -9.30    3.90
   8   7   1    2.10    6.90
   9  -7   1   61.79   11.80
   9   7   1  105.89   26.40
   9   7   1   80.49   22.50
  10  -7   1   14.50    6.90
  10   7   1   -2.70    5.80
  10   7   1   -0.70    6.90
  11  -7   1   53.49   12.70
  11   7   1   66.09   24.90
  11   7   1   63.09   21.40
  12   7   1  -16.80   12.40
  12   7   1   -5.80    7.00
  11  -8  -1    1.80    5.00
  11   8  -1   -6.10    6.20
  11   8  -1    0.70    8.90
  10  -8  -1   14.70    7.10
  10   8  -1   21.00   16.50
  10   8  -1   32.20   16.50
   9  -8  -1    1.00    4.10
   9   8  -1    3.60    9.60
  -9   8   1   -0.20    2.90
   9   8  -1   15.70   11.50
   8  -8  -1  152.78   14.90
   8   8  -1   54.49   30.00
   8   8  -1  134.39   26.90
  -8   8   1  125.59   12.30
   7  -8  -1   98.49   11.40
  -7   8   1  112.09   12.70
   7   8  -1  144.09   30.00
   7   8  -1  103.29   25.60
   6  -8  -1   62.49    9.20
   6   8  -1   73.49   22.40
   6   8  -1   85.49   22.80
  -6   8   1   81.69    9.60
   5  -8  -1    5.30    3.90
   5   8  -1    5.10    7.40
  -5   8   1    3.80    3.10
  -5   8   1    2.90    3.40
  -5   8   1   10.30    3.60
   5   8  -1   19.70   11.00
   4   8  -1  154.78   20.80
  -4   8   1  158.38   13.70
  -4   8   1  177.28   15.90
  -4   8   1  157.88   13.20
   4   8  -1  159.08   22.00
  -3  -8   1  296.27   27.70
   3   8  -1  363.56   31.20
  -3   8   1  334.87   21.70
   3   8  -1  350.96   28.90
  -3   8   1  312.77   23.00
  -3   8   1  300.97   24.20
  -2  -8   1    6.40    6.20
  -2   8   1   37.20   11.50
   2   8  -1   25.00    9.70
  -2   8   1   18.70    7.90
   2   8  -1   12.40    7.90
  -2   8   1   39.80   10.10
  -1  -8   1   17.90    8.60
  -1   8   1   11.90    6.70
   1   8  -1    1.80    4.10
   1   8  -1    7.50    6.10
  -1   8   1   33.00    8.80
  -1   8   1   17.10    8.30
  -1   8   1   16.60    7.00
   0  -8   1  262.57   22.40
   0   8   1  249.18   24.20
   0   8   1  191.78   17.70
   0   8  -1  226.48   18.40
   0   8   1  209.08   20.30
   0   8   1  258.77   22.80
   0   8  -1  242.58   22.00
   1  -8   1    1.60    5.30
   1   8   1    6.50    5.60
   1   8   1   15.80    8.40
   1   8   1   19.00    9.60
  -1   8  -1   15.20    6.80
  -1   8  -1   23.20    8.90
  -1   8  -1   14.70    6.10
   2  -8   1 1468.45   56.79
   2   8   1 1437.76   70.29
  -2   8  -1 1545.55   53.09
   2   8   1 1609.04   65.59
  -2   8  -1 1499.25   49.60
   2   8   1 1494.95   67.69
  -2   8  -1 1416.56   57.19
   3   8   1  248.88   24.80
  -3   8  -1  267.97   19.00
  -3   8  -1  251.67   14.90
  -3   8  -1  219.98   19.00
   3   8   1  260.27   28.30
  -3   8  -1  220.18   12.90
   3   8   1  267.27   26.60
  -4   8  -1   60.49    9.20
  -4   8  -1   45.10    4.90
  -4   8  -1   43.10    4.90
  -4   8  -1   43.30    8.80
   4   8   1   37.20   13.40
   4   8   1   49.30   16.30
  -5   8  -1  133.89   14.20
   5   8   1  158.28   22.90
  -5   8  -1  151.58   10.30
   5   8   1  171.88   23.70
   6   8   1   61.49   19.50
   6   8   1   52.49   17.00
   7   8   1   -5.10    4.40
   7   8   1   -2.80    6.10
   8   8   1  383.86   39.10
   8   8   1  376.66   46.70
   9   8   1   13.10   11.90
   9   8   1   59.39   19.90
  10   8   1   76.59   24.40
  10   8   1   72.99   22.80
  11   8   1    1.60    9.30
  11   8   1    5.10   11.50
  11   9  -1   46.40   30.80
  11   9  -1   62.59   24.80
  10  -9  -1   44.50    7.40
  10   9  -1   66.99   24.60
  10   9  -1   73.89   27.00
   9  -9  -1  364.86   19.70
   9   9  -1  436.96   46.60
   9   9  -1  350.56   41.00
  -9   9   1  351.26   21.00
   8  -9  -1   23.50    6.60
   8   9  -1    9.60   12.00
   8   9  -1   58.99   19.80
  -8   9   1   29.30    6.60
   7   9  -1    6.30    8.30
  -7   9   1    3.10    3.00
   7   9  -1   -0.50    6.90
   6   9  -1   -8.20    4.20
   6   9  -1    2.80    7.60
  -6   9   1    8.30    4.30
  -5   9   1   14.10    5.50
   5   9  -1   14.70    9.90
  -5   9   1   14.60    6.00
  -5   9   1    8.60    4.30
   5   9  -1    8.00    8.80
   4   9  -1   95.09   20.70
   4   9  -1   91.29   20.10
  -4   9   1   82.59   11.10
  -4   9   1   89.99   12.40
   3   9  -1  206.28   23.50
   3   9  -1  222.78   26.10
  -3   9   1  215.38   18.80
  -3   9   1  197.48   17.40
  -3   9   1  193.98   19.60
  -2  -9   1  165.38   21.70
  -2   9   1  187.18   17.80
  -2   9   1  181.88   20.10
  -2   9   1  170.78   18.00
   2   9  -1  179.88   22.70
   2   9  -1  186.58   24.60
  -1  -9   1  113.29   17.00
   1   9  -1  102.19   16.60
  -1   9   1  108.09   15.20
  -1   9   1   99.49   15.90
  -1   9   1  115.59   15.20
   1   9  -1  122.59   16.10
  -1   9   1  118.79   13.70
   0  -9   1   42.60   12.70
   0   9  -1   34.50   10.00
   0   9   1   40.10   12.90
   0   9  -1   43.70   12.60
   0   9  -1   44.80   15.80
   0   9   1   56.49   14.10
   0   9   1   51.69   12.50
   1  -9   1   42.80   12.30
   1   9   1   34.30   10.50
  -1   9  -1   29.30   10.10
   1   9   1   33.30   12.00
   1   9   1   35.60   13.10
   1   9   1   37.50   12.30
  -1   9  -1   28.10    9.00
  -1   9  -1   25.70    7.90
  -2   9  -1    4.80    6.30
  -2   9  -1   -1.30    2.70
  -2   9  -1   -5.90    2.70
   2   9   1    8.10    6.90
   2   9   1   -6.10    2.40
   2   9   1   -1.50    2.90
  -2   9  -1    2.20    3.20
  -3   9  -1  248.78   16.00
  -3   9  -1  203.18   18.40
   3   9   1  220.58   24.20
  -3   9  -1  253.27   21.80
  -3   9  -1  221.98   14.00
   3   9   1  248.18   27.20
   4   9   1   77.59   20.30
  -4   9  -1  109.39   13.30
   4   9   1  112.59   23.00
  -4   9  -1  110.79    8.10
  -4   9  -1  118.49   13.30
   5   9   1   33.20   14.10
  -5   9  -1   42.30    8.10
   5   9   1   48.70   18.20
  -5   9  -1   45.10    7.30
   6   9   1  203.38   28.20
   6   9   1  179.38   26.30
   7   9   1   10.30   10.70
   7   9   1    5.20    8.60
   8   9   1   19.40   13.40
   8   9   1   14.10   10.60
   9   9   1   60.49   22.00
   9   9   1  145.99   33.80
  10   9   1   -1.30    6.50
  10   9   1   21.40   14.10
  11   9   1   14.40   15.70
  11   9   1   -1.20    7.50
  10  10  -1   -3.30    9.30
  10  10  -1   -7.40    6.00
   9  10  -1   -6.70    5.10
   9  10  -1    5.30   10.80
   8  10  -1   -7.70    4.60
   8  10  -1   -4.70    4.50
   7  10  -1   68.59   22.00
  -7  10   1   48.40    5.60
   7  10  -1   61.09   22.50
  -6  10   1   95.89    9.20
   6  10  -1  132.39   30.20
   6  10  -1  122.79   26.40
  -5  10   1   71.89   10.00
   5  10  -1   90.89   24.00
  -5  10   1   62.39    9.00
  -5  10   1   64.39   10.20
   5  10  -1   62.19   19.60
   4  10  -1  147.99   28.80
   4  10  -1  118.89   27.60
  -4  10   1  143.79   15.30
  -4  10   1   98.69   14.00
  -4  10   1  139.59   13.90
  -3  10   1  123.69   17.00
   3  10  -1  122.09   27.70
  -3  10   1  143.29   16.60
  -3  10   1  112.69   12.70
  -3  10   1  118.19   14.50
   3  10  -1  146.49   20.80
  -2  10   1  215.68   20.50
   2  10  -1  184.28   24.40
  -2  10   1  177.28   21.60
  -2  10   1  217.68   18.20
   2  10  -1  241.08   24.70
  -2  10   1  202.08   20.90
  -1 -10   1  124.69   27.80
   1  10  -1  112.69   18.60
  -1  10   1  107.59   15.40
  -1  10   1  108.49   14.20
  -1  10   1  122.49   28.20
  -1  10   1   95.39   15.60
   1  10  -1  107.29   16.80
   0 -10   1   98.59   16.10
   0  10   1   77.49   18.20
   0  10   1  113.09   15.30
   0  10  -1  106.09   15.60
   0  10  -1   89.39   13.60
   0  10  -1   62.29   15.40
   0  10   1   59.79   16.60
   0  10   1  115.59   17.30
   1  10   1  137.09   36.60
   1  10   1  163.58   21.00
   1  10   1  130.89   19.70
  -1  10  -1  131.89   18.20
   1  10   1  130.49   17.70
  -1  10  -1  136.99   15.20
  -1  10  -1  110.99   15.20
  -2  10  -1  783.42   42.80
  -2  10  -1  799.82   35.40
  -2  10  -1  794.62   38.00
   2  10   1  835.62   51.69
   2  10   1  709.63   44.80
  -2  10  -1  737.53   44.80
  -3  10  -1  108.39   15.90
  -3  10  -1  104.29   11.30
  -3  10  -1   99.19   14.00
   3  10   1   75.19   19.60
   3  10   1  128.89   20.00
  -3  10  -1   97.29   10.00
  -4  10  -1  179.58   10.50
   4  10   1  164.68   24.70
   4  10   1  160.88   23.70
  -4  10  -1  173.08   17.30
  -4  10  -1  193.08   18.70
  -4  10  -1  165.88   10.60
  -5  10  -1   52.29   10.50
   5  10   1   23.60   14.00
   5  10   1   30.10   13.90
   6  10   1   16.40   13.40
   6  10   1   -0.90    5.40
   7  10   1  162.68   34.20
   7  10   1  117.49   30.30
   8  10   1  176.28   36.30
   8  10   1  192.98   30.90
   9  10   1  110.29   28.80
   9  10   1  104.59   29.00
  10  10   1   11.00   14.00
  10  10   1   30.60   20.00
  10  11  -1    4.00   10.70
  10  11  -1    5.00   10.60
   9  11  -1   68.99   28.80
   9  11  -1  129.39   31.80
   8  11  -1  106.89   30.80
   8  11  -1  143.79   32.50
   7  11  -1   -4.80    5.10
   7  11  -1   -5.60    4.90
  -6  11   1   66.69    6.70
   6  11  -1   98.89   28.90
  -6  11   1   82.59    8.20
  -6  11   1   72.49    6.90
   6  11  -1   40.70   21.10
  -5  11   1   59.29   10.80
   5  11  -1  104.49   24.90
  -5  11   1   53.79   12.40
  -5  11   1   48.70    8.60
   5  11  -1   28.00   14.50
  -5  11   1   59.19   12.40
  -4  11   1   10.80    6.40
  -4  11   1   -7.10    3.00
  -4  11   1    2.40    3.70
   4  11  -1    2.00    6.70
  -4  11   1   -3.80    3.30
   4  11  -1    6.20   10.70
  -3  11   1  239.08   24.90
   3  11  -1  193.78   24.70
  -3  11   1  238.68   22.60
  -3  11   1  190.78   16.90
  -3  11   1  188.38   19.00
   3  11  -1  216.78   28.60
  -2  11   1  253.37   27.10
  -2  11   1  271.37   21.60
   2  11  -1  254.07   29.70
  -2  11   1  241.88   24.40
  -2  11   1  239.48   22.80
   2  11  -1  284.37   28.00
   1  11  -1    6.40    5.90
   1  11  -1    0.70    4.80
   1  11  -1   -2.90    4.20
  -1  11   1    1.90    3.80
  -1  11   1    4.40    4.80
  -1  11   1   -2.10    4.40
  -1  11   1    2.50    5.90
   0  11  -1    0.00    3.80
   0  11  -1    4.80    6.60
   0  11   1   21.00    9.80
   0  11   1   11.50    8.50
   0  11  -1    7.40    7.50
  -1  11  -1  108.79   18.10
   1  11   1  164.78   22.20
   1  11   1  158.98   22.60
  -1  11  -1  128.99   15.60
   1  11   1  185.68   21.80
  -1  11  -1  132.99   25.00
  -1  11  -1  147.89   17.80
   2  11   1    1.60    5.80
   2  11   1   -0.70    5.50
  -2  11  -1   24.90    9.50
  -2  11  -1   22.90    9.00
  -2  11  -1   14.80    7.00
  -2  11  -1   20.60    9.80
   3  11   1  197.88   27.30
  -3  11  -1  195.98   22.50
  -3  11  -1  202.28   17.00
   3  11   1  146.39   22.60
  -3  11  -1  197.98   14.90
  -3  11  -1  208.78   21.30
   4  11   1   18.10   13.60
  -4  11  -1   10.00    7.50
  -4  11  -1   16.90    4.80
  -4  11  -1   16.70    7.70
  -4  11  -1   18.00    4.80
   4  11   1    9.30    9.30
   5  11   1   72.89   22.70
  -5  11  -1   82.19   12.20
   5  11   1   81.89   23.20
  -5  11  -1   77.59   11.60
   6  11   1  106.19   24.60
   6  11   1   48.40   18.70
   7  11   1    3.10    9.60
   7  11   1    5.30    8.00
   8  11   1   -6.30    5.20
   8  11   1   -2.20    6.30
   9  11   1    9.80   12.20
   9  11   1   10.00   11.50
  10  11   1   -0.20   13.00
  10  11   1   22.90   18.50
   9  12  -1   12.60   16.00
   9  12  -1    0.20   10.90
   8  12  -1    0.20    9.50
   8  12  -1   -0.80    8.10
   7  12  -1  136.19   33.60
   7  12  -1   90.79   25.90
   6  12  -1   11.20   13.90
   6  12  -1   17.80   12.40
  -6  12   1   19.00    5.70
  -6  12   1   22.60    6.20
  -5  12   1   55.39    7.60
  -5  12   1   53.99   13.30
   5  12  -1   52.29   17.90
   5  12  -1   62.69   22.70
  -5  12   1   65.79    9.50
  -5  12   1   65.39   14.00
  -4  12   1   23.30    9.40
  -4  12   1   28.90    8.10
  -4  12   1   20.70    8.20
  -4  12   1   29.70   11.00
   4  12  -1   16.40   12.60
   4  12  -1   45.00   17.40
   3  12  -1   31.40   14.30
  -3  12   1   38.50   11.50
  -3  12   1   53.99   15.30
   3  12  -1   31.90   15.30
  -3  12   1   46.20   15.30
  -3  12   1   25.30    8.30
   2  12  -1  208.68   28.40
  -2  12   1  193.38   23.30
   2  12  -1  182.58   23.80
  -2  12   1  216.28   26.20
  -2  12   1  167.68   18.10
  -2  12   1  192.38   21.20
  -1  12   1   34.90   15.50
   1  12  -1   56.89   20.10
  -1  12   1   35.80   13.10
   1  12  -1   27.00   11.50
   1  12  -1   29.20   12.10
  -1  12   1   63.69   17.90
   0  12   1   30.20   12.50
   0  12  -1    7.70    6.80
   0  12  -1    2.80    6.90
   0  12  -1   22.70   10.70
   0  12   1    8.30    9.40
   0  12   1   23.80   11.40
  -1  12  -1  237.38   26.80
   1  12   1  246.28   29.30
  -1  12  -1  244.78   22.20
  -1  12  -1  224.08   23.20
   1  12   1  258.57   26.60
   2  12   1   -8.50    3.20
   2  12   1   13.20   11.90
  -2  12  -1    2.00    5.30
  -2  12  -1    5.40    7.50
  -2  12  -1    7.70    7.00
  -2  12  -1    6.80    5.70
  -3  12  -1   22.40   10.70
  -3  12  -1   12.30    6.40
  -3  12  -1    9.30    7.90
   3  12   1   26.30   13.30
  -3  12  -1    3.50    4.00
   3  12   1    9.00    8.90
   4  12   1   49.99   18.00
  -4  12  -1   31.40    5.80
  -4  12  -1    6.70    6.80
  -4  12  -1   41.80   13.70
   4  12   1   35.20   19.80
  -4  12  -1   30.20    6.20
  -5  12  -1   70.39   14.90
   5  12   1   30.70   14.90
  -5  12  -1   51.39   12.40
   5  12   1   57.19   28.00
   6  12   1    2.50    8.20
  -6  12  -1    7.00    3.80
  -6  12  -1    5.80    3.50
   6  12   1   -5.40    6.20
   7  12   1   36.80   16.40
   7  12   1   71.89   23.60
   8  12   1    6.00    9.90
   8  12   1   16.40   12.90
   9  12   1   64.99   23.60
   8  13  -1   95.09   29.90
   8  13  -1   26.10   17.20
   7  13  -1    1.20    8.20
   7  13  -1    7.20   11.10
   6  13  -1   -5.00    7.20
  -6  13   1    8.70    5.40
   6  13  -1    6.70   10.90
  -5  13   1    5.90    5.90
   5  13  -1   13.30   11.70
  -5  13   1    5.70    6.90
  -5  13   1    0.50    3.70
  -5  13   1    7.90    4.10
   5  13  -1   13.20   11.70
  -4  13   1  209.38   16.90
   4  13  -1  146.79   33.20
  -4  13   1  193.98   24.10
  -4  13   1  192.08   21.90
  -4  13   1  211.68   18.80
   4  13  -1  199.58   28.80
  -3  13   1    7.20    8.50
   3  13  -1   -6.80    4.10
   3  13  -1   10.10   10.20
  -3  13   1    4.60    7.40
  -3  13   1    3.50    4.80
  -3  13   1   -0.70    3.90
  -2  13   1  412.56   35.10
  -2  13   1  380.36   31.30
   2  13  -1  435.76   37.50
  -2  13   1  422.16   34.10
   2  13  -1  403.26   40.70
   1  13  -1   13.80   11.00
   1  13  -1    6.40    8.70
  -1  13   1   16.80   11.70
  -1  13   1   14.00   10.00
  -1  13   1   10.50    7.60
   0  13  -1  113.79   17.40
   0  13  -1  140.79   26.30
   0  13   1   96.79   21.60
   0  13  -1   78.89   21.40
   0  13   1   99.99   23.20
  -1  13  -1  145.79   21.00
   1  13   1   98.09   22.20
  -1  13  -1  132.49   31.70
  -1  13  -1   73.29   19.60
   1  13   1  114.79   25.80
  -2  13  -1   55.09   12.60
   2  13   1   65.39   20.20
   2  13   1   96.79   23.70
  -2  13  -1   68.79   16.40
  -2  13  -1   69.09   18.80
  -3  13  -1    8.20    6.20
  -3  13  -1    0.10    3.20
   3  13   1   14.80   11.90
  -3  13  -1   -8.30    4.00
   3  13   1    3.00    6.40
  -3  13  -1   -1.40    5.10
  -4  13  -1  100.99    8.80
   4  13   1  121.39   31.70
  -4  13  -1  128.69    9.50
  -4  13  -1  113.89   18.00
  -4  13  -1  110.39   18.50
   4  13   1  126.29   28.00
  -5  13  -1    1.10    5.80
  -5  13  -1   -0.70    4.20
   5  13   1   25.90   15.80
   5  13   1    7.10    8.90
  -6  13  -1   37.00    8.00
   6  13   1   41.30   20.30
   6  13   1   43.60   18.40
  -6  13  -1   41.50   12.50
   7  13   1   22.70   13.80
   7  13   1    3.20    8.20
   8  13   1   10.40   10.70
   8  13   1   -2.70    7.60
   7  14  -1   51.79   23.40
   7  14  -1    4.70    9.90
   6  14  -1   59.99   25.20
   6  14  -1   28.30   16.30
  -6  14   1   24.10    7.60
   5  14  -1   96.19   25.00
   5  14  -1   96.59   30.90
  -5  14   1  104.69    8.90
  -4  14   1   24.60    7.60
   4  14  -1   64.79   20.90
   4  14  -1   11.20   11.40
  -4  14   1   22.10    8.70
  -4  14   1   38.80   17.50
  -4  14   1   41.80   14.50
  -3  14   1    8.10    6.30
   3  14  -1   19.70   15.00
   3  14  -1    2.80    9.90
  -3  14   1    5.30    6.00
  -3  14   1    2.30    7.10
  -2  14   1  106.59   15.70
  -2  14   1  113.59   22.70
   2  14  -1   94.69   26.90
   2  14  -1  137.59   22.60
  -2  14   1  139.69   21.90
  -1  14   1  105.69   21.20
  -1  14   1   73.99   21.10
   1  14  -1   90.99   21.80
   1  14  -1  112.69   29.40
   0  14  -1   10.10    7.60
   0  14   1    2.60    7.30
   0  14  -1   29.50   13.20
   0  14   1    3.90    5.10
  -1  14  -1   63.09   15.20
  -1  14  -1   65.39   19.60
   1  14   1   79.99   32.10
  -1  14  -1   83.59   20.20
   1  14   1   60.89   17.70
   2  14   1   15.60   11.70
  -2  14  -1   25.90   11.10
  -2  14  -1   18.00   10.80
  -2  14  -1   10.00    6.90
   2  14   1    4.30    8.50
  -3  14  -1  109.29   23.50
  -3  14  -1   81.79   12.60
   3  14   1   95.69   26.90
   3  14   1  181.28   35.00
  -3  14  -1   90.29   12.00
   4  14   1   78.09   23.90
  -4  14  -1  118.79    8.00
  -4  14  -1   80.29   20.70
  -4  14  -1  131.09   20.00
   4  14   1  120.89   30.40
   5  14   1    9.20   10.20
   5  14   1   15.90   11.90
  -5  14  -1   -0.20    6.90
   6  14   1  175.28   38.90
   6  14   1  162.98   38.70
  -6  14  -1  139.99   14.20
   7  14   1  125.29   32.70
   7  14   1  123.79   38.20
   6  15  -1   -6.70    9.40
   6  15  -1    1.50    7.10
   5  15  -1    0.60    7.30
  -5  15   1   -0.20    5.60
   5  15  -1   -3.30    7.10
   4  15  -1  130.59   33.00
   4  15  -1  150.28   33.40
  -4  15   1  122.59   13.60
  -4  15   1  104.69   22.90
   3  15  -1  107.89   25.70
   3  15  -1   67.19   23.20
  -3  15   1   94.39   21.30
  -3  15   1   63.19   18.50
  -2  15   1  139.59   18.60
   2  15  -1   90.19   25.30
  -2  15   1  156.58   30.00
   2  15  -1  111.39   25.00
  -2  15   1  141.99   37.70
   1  15  -1    0.90    8.20
   1  15  -1   28.00   13.70
  -1  15   1   37.60   13.70
  -1  15   1    6.40    8.10
   0  15  -1   24.80   14.10
   0  15   1   -5.20    5.20
   0  15  -1   14.50    9.70
   0  15   1    5.00    7.20
  -1  15  -1   -4.10    3.70
  -1  15  -1    1.20    6.80
  -1  15  -1   -0.80    8.90
   1  15   1   16.10   10.60
   1  15   1   -2.10    5.50
   2  15   1   42.80   16.60
   2  15   1   76.39   23.90
  -2  15  -1   73.29   21.80
  -3  15  -1   16.70   12.40
   3  15   1   42.00   20.20
   3  15   1   22.90   12.90
  -3  15  -1   48.10   11.20
   4  15   1   35.40   18.20
  -4  15  -1   30.90   13.10
   4  15   1   27.30   16.40
   5  15   1   44.90   19.80
  -5  15  -1   45.70   15.00
   5  15   1   85.19   27.40
   6  15   1    7.10   13.70
   6  15   1    8.30   10.10
   5  16  -1   50.59   23.60
  -5  16   1   34.90   16.30
   5  16  -1    8.10   16.10
   4  16  -1   -4.70    7.20
   4  16  -1    6.90    9.70
  -4  16   1   -2.30    6.40
   3  16  -1    8.90   14.00
  -3  16   1   -5.70    5.20
  -3  16   1   26.30   11.20
   3  16  -1    1.70   10.00
   2  16  -1    8.90    9.30
   2  16  -1    0.80   10.20
  -2  16   1    7.00    7.80
  -2  16   1    8.20   10.00
   1  16  -1   -5.50    6.80
  -1  16   1   -2.50    6.10
  -1  16   1   -1.50    4.00
   1  16  -1   -1.50    5.70
   0  16   1   53.69   16.20
   0  16  -1   18.70   12.50
   0  16   1   27.80   15.40
   0  16  -1   61.69   18.70
   1  16   1   57.79   18.90
  -1  16  -1  106.09   23.00
  -1  16  -1   52.99   18.80
   1  16   1   53.59   21.90
   2  16   1   16.80   11.20
   2  16   1   74.19   25.00
  -2  16  -1   21.90   10.20
  -2  16  -1   19.00   14.90
   3  16   1   21.40   14.00
   3  16   1   10.60   15.10
  -3  16  -1   33.50   16.30
   4  16   1   -0.40    7.20
   4  16   1    0.30    9.90
  -4  16  -1    8.40   10.30
  -5  16  -1   16.90   17.80
   5  16   1   -6.90    6.30
   5  16   1   -2.50    8.40
  -2  17   1   19.90   13.00
  -2  17   1   40.10   14.40
   2  17  -1   36.20   17.40
   2  17  -1   19.80   15.00
   1  17  -1   15.70   13.10
  -1  17   1   -3.30    6.60
   1  17  -1    0.80    7.60
  -1  17   1    3.90    7.80
   0  17  -1   -4.50    7.90
   0  17   1   -0.20    6.00
   0  17  -1    2.80    8.20
   0  17   1   -5.90    6.50
  -1  17  -1    2.60    7.20
   1  17   1    6.00    7.00
  -1  17  -1   -8.20    6.50
   1  17   1    1.70    8.20
   2  17   1   -5.00    6.30
  -2  17  -1    5.20   10.10
   2  17   1   14.70   13.60
  13   0  -2    3.30    8.80
  12   0  -2   83.49   26.40
  12   0  -2   81.29   16.50
  11   0  -2    5.70    5.90
  11   0  -2    7.50    9.90
  11   0  -2   -3.00    4.60
  10   0  -2  267.37   32.40
  10   0  -2  287.77   25.00
  10   0  -2  316.67   25.20
   9   0  -2    1.10    4.20
   9   0  -2    6.20    7.90
   9   0  -2   -1.20    3.80
   8   0  -2  808.52   49.99
   8   0  -2  842.32   40.30
  -8   0   2  792.12   46.70
   8   0  -2  849.02   42.20
  -7   0   2   -1.10    3.30
  -7   0   2   -3.40    2.10
   7   0  -2    8.50    5.80
   6   0  -2  526.45   27.20
   6   0  -2  488.85   33.00
  -6   0   2  461.25   24.80
  -6   0   2  425.26   29.40
   5   0  -2    0.60    3.60
  -5   0   2    2.80    3.90
  -5   0   2   -3.10    2.00
   5   0  -2   -5.10    2.30
  -4   0   2  267.27   19.20
  -4   0   2  258.57   15.30
   4   0  -2  255.37   19.70
   4   0  -2  234.48   15.40
   3   0  -2    3.00    4.20
   3   0  -2   -0.70    2.30
  -3   0   2   -2.30    2.50
  -3   0   2   -3.70    1.70
  -2   0   2    1.30    2.90
  -2   0   2   -0.50    2.40
   2   0  -2   -0.30    3.10
   2   0  -2    0.30    2.60
  -1   0   2   -1.40    1.70
   1   0  -2    4.10    2.40
  -1   0   2   -0.20    1.70
   1   0   2   -0.50    1.70
  -1   0  -2   -1.10    1.40
   1   0   2    0.50    1.70
   2   0   2  226.48   12.60
   2   0   2  234.28   13.30
  -2   0  -2  247.68   13.60
   3   0   2    0.50    2.50
   3   0   2    3.00    3.40
  -3   0  -2    0.50    2.50
  -3   0  -2   -0.60    2.30
   4   0   2 1247.78   44.50
   4   0   2 1186.68   41.30
   4   0   2 1210.58   45.50
  -4   0  -2 1211.68   44.70
   5   0   2   -1.50    3.10
   5   0   2   -0.40    2.80
   5   0   2   -1.40    2.40
  -5   0  -2    2.00    3.20
   6   0   2  412.56   23.30
   6   0   2  432.46   28.60
  -6   0  -2  398.86   26.30
   6   0   2  366.36   24.10
  -7   0  -2    0.90    4.20
   7   0   2   -4.00    2.60
   7   0   2   16.80    8.40
   7   0   2   -1.30    2.70
   8   0   2  321.37   24.80
   8   0   2  312.57   22.50
   8   0   2  304.37   28.30
  -8   0  -2  341.57   27.80
   9   0   2    3.10    4.60
   9   0   2    4.30    5.30
   9   0   2   -6.20    4.10
  10   0   2   11.80    8.10
  10   0   2    1.80    6.80
  10   0   2    9.90    7.30
  11   0   2    1.80    5.10
  11   0   2   -1.80    6.80
  11   0   2    5.60    5.90
  12   0   2   49.00   13.00
  12   0   2   35.00   22.10
  13   0   2   -7.40    6.50
  13  -1  -2    8.10   12.90
  13   1  -2   22.30   16.10
  13   1  -2    9.30    8.30
  12  -1  -2    7.40    5.20
  12  -1  -2   -1.30    7.30
  12   1  -2   41.20   18.50
  12   1  -2    2.10    6.60
  11  -1  -2   38.70   10.40
  11  -1  -2   38.30   10.10
  11  -1  -2   15.90   11.40
  11   1  -2   22.20   10.20
  11   1  -2   11.00   11.40
  11   1  -2   42.10   14.00
  10  -1  -2    5.70    5.80
  10  -1  -2    4.90    9.30
  10  -1  -2    3.50    5.60
  10   1  -2   -5.00    5.50
  10   1  -2    3.10    7.40
  10   1  -2   14.50    8.90
   9  -1  -2  294.57   31.10
   9  -1  -2  334.27   23.10
   9  -1  -2  332.67   22.40
   9   1  -2  320.47   27.00
   9   1  -2  278.97   26.10
   9   1  -2  287.27   32.10
   8  -1  -2    1.20    3.90
   8  -1  -2    4.80    7.10
   8  -1  -2   -2.90    3.60
  -8  -1   2   -1.40    3.40
   8   1  -2    1.60    4.40
  -8   1   2    7.80    6.60
   8   1  -2    5.40    6.00
   8   1  -2    0.90    6.30
  -7  -1   2 1265.97   60.89
  -7  -1   2 1334.57   54.09
   7  -1  -2 1388.56   63.29
   7  -1  -2 1409.76   49.99
  -7   1   2 1328.97   59.19
   7   1  -2 1427.26   57.09
   7   1  -2 1357.16   64.99
   6  -1  -2  230.78   16.00
  -6  -1   2  273.57   23.40
  -6  -1   2  235.98   18.60
   6  -1  -2  218.88   21.50
  -6   1   2  235.28   15.10
   6   1  -2  250.27   19.50
  -6   1   2  255.47   21.30
   6   1  -2  261.37   24.40
   5  -1  -2    5.30    5.50
  -5  -1   2    8.70    5.60
   5  -1  -2    3.80    3.80
  -5  -1   2    7.50    5.20
   5   1  -2    8.10    5.90
  -5   1   2    2.00    2.60
  -5   1   2    1.80    4.30
   5   1  -2   -3.90    2.20
   4  -1  -2   18.00    5.20
   4  -1  -2   14.30    6.40
  -4  -1   2    1.70    3.60
  -4   1   2    8.80    5.40
   4   1  -2   13.20    6.60
   4   1  -2    3.00    3.50
  -4   1   2    4.10    3.20
  -3  -1   2 1274.17   46.20
  -3  -1   2 1226.88   42.30
   3  -1  -2 1198.68   44.40
   3  -1  -2 1220.48   44.10
  -3   1   2 1233.58   43.80
   3   1  -2 1168.38   42.20
   3   1  -2 1185.08   45.90
  -3   1   2 1203.18   36.80
   2  -1  -2  227.18   11.30
  -2  -1   2  207.98   13.20
   2  -1  -2  203.28   13.70
  -2  -1   2  219.58   14.60
  -2   1   2  219.68   11.00
   2   1  -2  217.38   13.60
  -2   1   2  224.08   13.90
   2   1  -2  214.88   14.80
   1  -1  -2 3321.77  113.29
  -1  -1   2 3340.07   97.29
   1   1  -2 3216.48   96.79
  -1   1   2 3222.88  112.79
   0  -1  -2   53.59    5.70
   0  -1  -2   58.29    5.90
   0  -1   2   71.29    5.20
   0  -1   2   57.89    5.50
   0   1   2   66.49    6.20
   0   1  -2   68.29    6.00
   0   1  -2   57.49    4.80
   0   1   2   72.19    6.40
   1  -1   2  105.89    7.20
  -1  -1  -2  128.49    9.80
   1  -1   2  114.79    6.00
   1   1   2  114.49    9.30
  -1   1  -2  114.09    5.90
  -1   1  -2  107.19    7.40
  -2  -1  -2   74.09    9.00
   2  -1   2   90.99    6.50
   2  -1   2   86.19    7.00
   2   1   2   90.29    9.60
  -2   1  -2   84.19    6.80
   2   1   2   90.59    8.80
   3  -1   2 3200.48   86.49
   3  -1   2 3141.09   84.89
   3   1   2 3189.78   93.09
   3   1   2 3106.49   89.39
  -3   1  -2 3160.28   85.89
   3   1   2 3134.49   91.79
   4  -1   2  184.38   14.00
   4  -1   2  152.18   10.40
  -4  -1  -2  165.78   14.90
   4  -1   2  183.68   12.20
   4   1   2  172.48   14.10
  -4   1  -2  191.78   13.60
   4   1   2  197.58   16.50
   4   1   2  162.28   17.40
   5  -1   2 1799.02   58.49
  -5  -1  -2 1839.12   66.59
   5  -1   2 1868.61   56.29
   5  -1   2 1845.22   63.89
   5   1   2 1920.41   67.29
  -5   1  -2 1830.52   62.29
   5   1   2 1814.92   67.29
   5   1   2 1846.22   63.59
   6  -1   2   99.89   11.00
   6  -1   2  125.19   10.90
  -6  -1  -2  122.09   15.30
   6  -1   2  146.19   15.80
   6   1   2  119.09   14.70
   6   1   2  113.69   15.70
  -6   1  -2  121.19   13.70
   6   1   2  131.89   14.00
   7  -1   2  389.36   28.30
   7  -1   2  352.96   20.30
   7  -1   2  342.27   26.60
   7   1   2  329.87   24.00
   7   1   2  367.26   27.40
  -7   1  -2  353.76   25.50
  -8  -1  -2    1.00    3.70
   8  -1   2    4.50    4.30
   8  -1   2   13.40   10.40
   8  -1   2    7.20    5.10
   8   1   2    0.60    4.10
  -8   1  -2    1.60    3.80
   8   1   2   -0.70    5.10
   8   1   2    6.40    5.40
   9  -1   2   71.49   11.20
   9  -1   2  107.99   23.40
   9  -1   2   58.79    9.80
   9   1   2   87.69   18.40
   9   1   2   83.49   14.00
   9   1   2   75.99   19.30
  10  -1   2    8.60    9.10
  10  -1   2    6.70    5.80
  10  -1   2    7.10    5.60
  10   1   2   -2.30    4.40
  10   1   2   12.50    8.70
  10   1   2   17.70   12.30
  11  -1   2  593.74   30.20
  11  -1   2  645.64   48.60
  11  -1   2  542.75   31.00
  11   1   2  554.04   40.60
  11   1   2  588.44   38.00
  11   1   2  670.73   51.79
  12  -1   2   21.70    6.70
  12  -1   2   32.20   15.00
  12   1   2   28.80   12.10
  12   1   2   13.60   12.10
  13  -1   2  113.89   28.50
  13   1   2  111.59   21.20
  13   1   2   94.99   26.60
  13  -2  -2  110.89   29.70
  13   2  -2   84.99   22.30
  13   2  -2   38.30   18.60
  12  -2  -2  293.47   36.30
  12   2  -2  355.36   42.90
  12   2  -2  350.16   32.80
  11  -2  -2   85.59   23.30
  11  -2  -2   46.20    4.00
  11   2  -2  148.59   21.50
  11   2  -2   93.49   25.70
  10  -2  -2    5.70    3.50
  10  -2  -2    3.60    7.80
  10  -2  -2    5.60    3.90
  10   2  -2    4.30    6.60
  10   2  -2    3.70    6.10
  10   2  -2   -1.90    6.20
   9  -2  -2   78.49    9.20
   9  -2  -2   72.99   19.40
   9  -2  -2   68.59    8.70
  -9   2   2   96.59   20.10
   9   2  -2   81.69   22.10
   9   2  -2   85.29   18.00
   9   2  -2   64.99   16.80
   8  -2  -2   19.40    6.10
   8  -2  -2   36.80   12.60
  -8  -2   2   26.00   10.30
   8  -2  -2   23.20    6.60
  -8   2   2   36.10   11.20
   8   2  -2   19.70    8.80
   8   2  -2   20.50   11.80
  -7  -2   2   61.89   15.50
   7  -2  -2   61.79    7.70
  -7  -2   2   77.39   14.80
   7  -2  -2   54.69    7.50
   7  -2  -2   63.89   15.10
   7   2  -2   64.99   14.90
  -7   2   2   77.69   12.70
   7   2  -2   78.19   19.50
  -6  -2   2  530.45   35.00
   6  -2  -2  598.54   23.70
  -6  -2   2  527.15   31.30
   6  -2  -2  583.74   34.60
  -6   2   2  568.84   21.90
   6   2  -2  574.14   33.30
   6   2  -2  547.25   37.10
  -6   2   2  545.45   31.80
  -5  -2   2  186.18   16.70
   5  -2  -2  189.68   17.80
  -5  -2   2  193.58   19.30
   5   2  -2  201.58   20.50
  -5   2   2  220.78   17.80
  -5   2   2  194.08   10.50
   5   2  -2  181.08   17.00
  -4  -2   2  670.83   32.90
  -4  -2   2  726.03   36.50
   4  -2  -2  732.23   25.10
   4  -2  -2  720.63   33.90
   4   2  -2  774.52   38.40
  -4   2   2  758.22   24.20
   4   2  -2  785.42   35.70
  -4   2   2  791.02   33.80
  -3  -2   2   28.80    6.70
  -3  -2   2   39.70    8.70
   3  -2  -2   36.90    4.60
   3  -2  -2   49.40    9.40
   3   2  -2   46.80   10.20
  -3   2   2   34.00    4.30
   3   2  -2   33.50    7.80
  -3   2   2   55.19    9.60
   2  -2  -2  449.76   20.50
  -2  -2   2  397.36   20.80
  -2  -2   2  396.26   21.10
   2  -2  -2  395.26   16.20
   2   2  -2  458.25   22.30
   2   2  -2  383.96   21.40
  -2   2   2  414.36   19.70
  -2   2   2  395.66   16.10
   1  -2  -2  181.18   11.70
  -1  -2   2  174.88   11.60
   1  -2  -2  167.58   10.80
  -1  -2   2  165.08   12.00
   1   2  -2  178.48   11.90
  -1   2   2  152.48   10.20
  -1   2   2  165.58   11.30
   0  -2   2   79.89    6.20
   0  -2  -2   84.29    8.40
   0  -2  -2   88.99    8.50
   0  -2   2   83.59    7.60
   0   2  -2  100.89    8.50
   0   2   2   89.69    8.60
   0   2   2   83.39    8.30
   0   2  -2   98.19    6.80
  -1  -2  -2  290.47   17.80
   1  -2   2  327.07   14.40
   1   2   2  304.77   18.00
  -1   2  -2  336.77   14.80
   2   2   2 3554.84  101.19
   2   2   2 3681.73  105.49
   3  -2   2  413.06   15.50
   3   2   2  401.16   23.30
  -3   2  -2  408.56   15.80
   3   2   2  426.16   25.20
   3   2   2  420.46   22.90
  -3   2  -2  401.66   16.40
   4  -2   2  216.78   10.30
   4  -2   2  200.68   13.70
   4  -2   2  244.28   11.70
   4   2   2  247.28   18.50
  -4   2  -2  240.68   14.10
   4   2   2  202.08   18.40
   4   2   2  225.78   18.80
   5  -2   2   63.09    6.60
   5  -2   2   58.49    9.10
  -5  -2  -2   46.70   11.10
   5   2   2   57.89   12.20
   5   2   2   57.89   13.80
   5   2   2   53.99   11.70
  -5   2  -2   50.89    9.70
  -6  -2  -2  399.66   28.80
   6  -2   2  430.56   26.20
   6  -2   2  408.76   17.80
   6  -2   2  434.46   19.60
  -6   2  -2  405.86   24.40
   6   2   2  423.06   27.60
   6   2   2  404.26   29.40
   6   2   2  396.36   29.80
   7  -2   2  117.19    9.50
   7  -2   2   98.49    9.80
   7  -2   2  107.89   14.60
  -7  -2  -2  147.89   18.40
   7   2   2  123.39   16.00
   7   2   2  132.99   17.90
  -7   2  -2  108.29   13.60
   7   2   2  159.98   20.50
   8  -2   2   53.29    9.00
   8  -2   2   35.70   12.50
   8  -2   2   44.10    8.60
  -8   2  -2   48.10   12.90
   8   2   2   34.40   13.90
   8   2   2   56.89   15.20
   8   2   2   40.70   12.70
   9  -2   2   23.00   10.40
   9  -2   2   16.10    5.60
   9  -2   2   12.50    5.00
   9   2   2    5.70   10.20
   9   2   2   -2.70    3.40
   9   2   2   -0.60    3.70
  10  -2   2  170.48   11.90
  10  -2   2  179.48   23.80
  10  -2   2  168.28   11.60
  10   2   2  224.78   24.00
  10   2   2  141.49   21.80
  10   2   2  166.98   26.00
  11  -2   2   21.30   12.50
  11   2   2    3.50    9.80
  11   2   2   45.20   15.40
  12  -2   2   38.50   15.80
  12   2   2   20.20   11.20
  12   2   2   26.30   14.00
  13  -2   2    4.30   10.10
  13   2   2   -0.50    6.70
  13   2   2   -6.00    6.90
  13  -3  -2   10.20   10.80
  13   3  -2   16.30   13.60
  13   3  -2   14.50   13.40
  12  -3  -2    3.10    9.10
  12   3  -2    0.90   10.00
  12   3  -2   -3.40    7.80
  11  -3  -2  225.48   29.10
  11   3  -2  166.98   24.80
  11   3  -2  256.07   35.80
  10  -3  -2   48.50   17.10
  10   3  -2   53.89   22.80
  10   3  -2   42.80   15.00
   9  -3  -2  126.99   20.10
   9   3  -2  120.99   25.30
   9   3  -2  109.69   18.50
  -9   3   2  173.68   20.40
   9   3  -2  195.28   24.90
   8  -3  -2   -0.60    4.90
  -8  -3   2    7.10    5.80
   8   3  -2   11.10    8.30
  -8   3   2    8.50    6.60
   8   3  -2   -5.40    5.00
  -7  -3   2  177.48   19.50
  -7  -3   2  188.78   24.10
   7  -3  -2  156.78   19.10
   7   3  -2  169.78   22.90
   7   3  -2  197.08   21.50
  -7   3   2  180.48   18.10
  -6  -3   2  266.87   24.60
  -6  -3   2  202.88   19.90
   6  -3  -2  183.48   18.90
   6   3  -2  187.28   22.00
  -6   3   2  249.08   19.80
   6   3  -2  215.78   21.10
   5  -3  -2   15.90    2.50
  -5  -3   2   10.50    6.10
  -5  -3   2   17.70    6.70
   5  -3  -2   19.20    7.90
   5   3  -2   14.50    6.80
  -5   3   2   27.80    7.80
   5   3  -2    5.60    5.20
  -4  -3   2 1823.32   63.99
   4  -3  -2 1643.14   58.49
  -4  -3   2 1688.13   64.69
   4  -3  -2 1675.63   45.30
   4   3  -2 1742.53   64.49
   4   3  -2 1721.33   66.29
  -4   3   2 1706.93   44.80
  -3  -3   2 1758.52   62.19
   3  -3  -2 1778.32   49.60
   3  -3  -2 1832.52   58.49
  -3  -3   2 1772.62   63.39
   3   3  -2 1738.73   63.79
   3   3  -2 1780.92   63.29
  -3   3   2 1891.81   49.90
  -3   3   2 1721.53   56.79
   2  -3  -2 1909.61   58.99
  -2  -3   2 1975.70   62.79
  -2  -3   2 1811.52   62.09
  -2   3   2 1918.51   58.69
   2   3  -2 1880.11   63.49
   2   3  -2 1931.51   63.09
  -2   3   2 1866.71   54.89
  -1  -3   2   44.70    6.90
   1  -3  -2   33.70    6.80
   1  -3  -2   40.20    6.50
  -1  -3   2   42.60    8.40
  -1   3   2   46.80    8.30
   1   3  -2   38.70    8.20
  -1   3   2   31.80    6.80
   1   3  -2   36.60    7.40
   0  -3   2 1465.25   43.70
   0  -3   2 1505.85   48.00
   0  -3  -2 1494.55   50.89
   0   3  -2 1558.54   48.80
   0   3  -2 1518.05   44.30
   0   3   2 1470.95   49.70
   0   3   2 1425.26   50.09
   1  -3   2 1008.80   34.60
   1   3   2 1077.89   42.30
  -1   3  -2 1056.39   28.70
   1   3   2 1058.69   39.30
  -1   3  -2 1061.39   35.60
   2  -3   2  457.35   17.50
   2   3   2  460.25   26.70
   2   3   2  438.36   23.80
   2   3   2  453.75   24.40
  -2   3  -2  434.16   19.60
   3  -3   2  980.50   29.00
   3  -3   2  975.10   28.50
  -3   3  -2 1002.30   29.90
  -3   3  -2 1005.90   28.40
   3   3   2 1001.00   42.60
   3   3   2  993.70   42.00
   3   3   2  899.81   43.50
   4  -3   2  458.95   20.10
   4  -3   2  461.45   13.80
   4   3   2  458.25   27.80
   4   3   2  491.05   29.80
   4   3   2  400.76   28.40
  -4   3  -2  463.05   19.00
   5  -3   2 1350.46   46.50
   5   3   2 1320.47   55.09
   5   3   2 1318.37   57.99
  -5   3  -2 1304.57   44.20
   5   3   2 1217.58   57.29
   6  -3   2  160.98   15.10
   6   3   2  162.48   19.80
   6   3   2  146.59   18.80
  -6   3  -2  175.88   14.50
   6   3   2  174.98   18.70
   7  -3   2  740.43   37.60
   7   3   2  712.83   44.70
  -7   3  -2  718.63   34.60
   7   3   2  686.13   44.90
   7   3   2  711.23   41.40
   8  -3   2   60.99   15.20
   8   3   2   47.60   14.10
   8   3   2   52.79   17.20
  -8   3  -2   65.49   13.80
   8   3   2   62.09   16.50
   9  -3   2   96.99   18.80
   9   3   2  129.19   26.10
   9   3   2  158.48   20.70
   9   3   2  153.18   23.80
  10  -3   2    5.40    7.30
  10   3   2    9.40    8.20
  10   3   2    1.00    8.30
  11  -3   2   85.29   21.90
  11   3   2   92.09   22.20
  11   3   2   75.79   24.10
  12  -3   2  126.79   27.70
  12   3   2  125.89   33.60
  12   3   2   97.99   23.50
  13  -3   2    7.90    8.30
  13   3   2    9.20   10.90
  13   3   2    7.80   10.40
  12  -4  -2   76.39   21.80
  12   4  -2   41.80   16.50
  12   4  -2    8.90   11.10
  11  -4  -2  140.29   22.70
  11   4  -2  152.68   32.90
  11   4  -2  141.99   29.50
  10  -4  -2   18.70   10.30
  10   4  -2    5.90    9.00
   9  -4  -2   80.79   18.70
   9   4  -2  115.69   24.30
   9   4  -2   80.59   22.00
  -9   4   2   82.89   17.70
   8  -4  -2  182.58   21.30
  -8  -4   2  155.58   20.50
  -8   4   2  130.89   16.60
   8   4  -2  144.09   20.80
   8   4  -2  163.38   24.50
  -7  -4   2  493.05   35.20
   7  -4  -2  531.15   33.80
   7   4  -2  544.65   41.60
   7   4  -2  495.45   36.30
  -7   4   2  531.85   31.50
  -6  -4   2  101.59   15.20
  -6  -4   2   83.99   18.40
   6  -4  -2   93.29   13.50
   6   4  -2   83.69   18.60
   6   4  -2  123.69   18.80
  -6   4   2  100.89   12.60
  -5  -4   2  158.38   18.60
   5  -4  -2  196.98   17.20
  -5  -4   2  195.78   19.70
   5   4  -2  159.88   19.90
   5   4  -2  200.18   20.60
  -5   4   2  189.58   16.00
   4  -4  -2   15.70    6.50
  -4  -4   2   10.70    6.80
  -4  -4   2    7.90    5.80
  -4   4   2   11.40    2.40
  -4   4   2   19.60    3.30
   4   4  -2   10.90    6.50
   4   4  -2   14.30    6.90
  -4   4   2   20.60    6.90
  -3  -4   2   33.80    9.40
  -3  -4   2   33.90    9.40
   3  -4  -2   60.69   10.80
   3   4  -2   61.49   12.90
   3   4  -2   47.40   12.00
  -3   4   2   45.00    8.90
  -3   4   2   36.70    5.60
  -2  -4   2   -0.10    2.80
  -2  -4   2    6.40    4.80
   2  -4  -2    8.60    4.30
  -2   4   2    6.60    3.20
  -2   4   2    8.60    4.50
   2   4  -2    8.40    5.10
   2   4  -2   -0.70    2.80
  -2   4   2    2.10    2.80
  -1  -4   2   34.50    9.00
  -1  -4   2   35.10    7.10
   1  -4  -2   41.60    8.70
  -1   4   2   47.60    6.80
   1   4  -2   23.50    6.40
   1   4  -2   35.60    8.40
  -1   4   2   31.40    7.60
  -1   4   2   33.10    7.30
   0  -4   2   49.60    7.80
   0  -4   2   49.90    6.30
   0   4  -2   41.90    5.90
   0   4  -2   51.59   10.20
   0   4   2   38.00    8.40
   0   4   2   39.30    7.70
   0   4   2   36.40    8.30
   1  -4   2  318.07   17.20
  -1   4  -2  322.57   12.90
  -1   4  -2  290.27   16.80
   1   4   2  291.97   21.30
   1   4   2  300.67   19.80
   2  -4   2  226.88   12.80
   2   4   2  221.98   17.50
   2   4   2  212.18   19.30
  -2   4  -2  234.28   13.50
   2   4   2  233.28   18.40
   3  -4   2   24.50    4.50
  -3   4  -2   21.10    5.00
   3   4   2   20.30    9.20
   3   4   2   15.90    7.40
   3   4   2    4.30    5.30
   4  -4   2   47.60    5.40
  -4   4  -2   46.80    4.70
   4   4   2   63.89   13.60
   4   4   2   48.60   13.00
  -4   4  -2   49.90    3.50
   4   4   2   82.89   16.30
   5  -4   2    4.80    3.40
   5   4   2    0.30    4.30
  -5   4  -2   17.10    4.60
   5   4   2    8.20    7.70
   5   4   2    3.70    4.40
   6  -4   2   -0.20    3.60
  -6   4  -2    0.40    2.70
   6   4   2    0.10    4.50
   6   4   2    1.90    4.40
   6   4   2    6.10    5.80
   7  -4   2  155.58   15.50
  -7   4  -2  178.28   14.90
   7   4   2  158.68   20.30
   7   4   2  168.18   22.80
   7   4   2  181.98   23.20
   8  -4   2  190.28   18.80
   8   4   2  166.78   24.70
   8   4   2  173.48   26.00
   8   4   2  212.28   24.30
   9  -4   2  135.59   17.70
   9   4   2  109.49   23.40
   9   4   2  123.49   27.30
  10  -4   2   -3.40    4.50
  10   4   2    5.10    8.60
  10   4   2   -6.30    4.00
  11  -4   2   23.00   11.40
  11   4   2   48.80   20.30
  11   4   2   32.90   15.60
  12  -4   2   -4.10    5.20
  12   4   2   14.10   12.50
  12   4   2   -7.40    5.50
  12  -5  -2   10.00   10.10
  12   5  -2   -4.00    7.20
  12   5  -2    1.70    9.00
  11  -5  -2   35.90   14.80
  11   5  -2   21.00   13.60
  11   5  -2   36.00   17.10
  10  -5  -2  107.79   22.50
 -10   5   2   97.09   15.70
  10   5  -2   99.09   27.20
  10   5  -2   82.89   20.00
   9   5  -2   -1.00    5.30
   9   5  -2    3.80    7.30
   8  -5  -2   53.49   13.90
   8   5  -2   61.49   20.80
   8   5  -2   42.70   14.40
  -8   5   2   69.19   14.60
  -7  -5   2   -2.00    3.40
   7  -5  -2    0.60    5.40
   7   5  -2    2.90    6.10
   7   5  -2    9.20    8.80
  -7   5   2    6.10    5.50
   6  -5  -2   76.19   12.20
  -6  -5   2   78.59   19.60
  -6  -5   2   97.99   15.80
   6   5  -2  103.49   22.50
  -6   5   2   81.59   11.20
   6   5  -2  100.59   21.10
   5  -5  -2  128.69   14.00
  -5  -5   2  143.59   18.00
  -5  -5   2  119.39   17.00
   5   5  -2  152.28   19.90
  -5   5   2  112.49   12.30
   5   5  -2  141.89   22.20
  -4  -5   2  157.58   17.70
   4  -5  -2  142.69   13.60
  -4  -5   2  142.49   17.00
   4   5  -2  135.59   17.40
  -4   5   2  132.29   14.30
  -4   5   2  159.68    8.50
  -4   5   2  126.39    8.70
   4   5  -2  138.39   17.50
  -3  -5   2 1049.00   47.00
   3  -5  -2 1060.29   41.20
  -3  -5   2 1017.00   48.00
  -3   5   2 1046.00   37.60
   3   5  -2 1021.20   48.60
  -3   5   2 1036.60   35.20
  -3   5   2 1085.29   40.70
   3   5  -2 1067.89   48.50
   2  -5  -2 1620.34   55.69
  -2  -5   2 1694.33   62.29
  -2  -5   2 1681.33   59.59
   2   5  -2 1620.94   59.99
  -2   5   2 1584.64   55.49
  -2   5   2 1620.04   55.49
  -2   5   2 1614.64   52.39
   2   5  -2 1626.54   62.69
  -1  -5   2  154.78   14.90
  -1  -5   2  111.69   11.60
   1   5  -2  123.39   12.40
  -1   5   2  149.19   12.80
   1   5  -2  147.79   15.10
  -1   5   2  150.08   13.70
   0  -5   2  944.21   39.20
   0   5   2  987.50   43.20
   0   5   2  884.41   39.80
   0   5  -2  948.51   39.90
   0   5  -2  963.70   35.30
   0   5   2  955.00   39.80
  -1   5  -2   -1.10    1.80
   1   5   2    4.60    4.70
  -1   5  -2   -1.30    2.60
   1   5   2   -2.10    2.20
   2  -5   2   19.80    5.50
   2   5   2    6.20    5.80
  -2   5  -2   12.90    2.90
  -2   5  -2   11.30    2.50
  -2   5  -2   12.90    5.00
   2   5   2    9.10    5.50
   2   5   2   13.90    7.10
   3  -5   2   43.50    5.60
   3   5   2   44.60   12.20
   3   5   2   55.39   13.20
   3   5   2   57.79   14.30
  -3   5  -2   42.50    7.60
   4  -5   2  663.43   19.90
   4   5   2  673.73   39.40
   4   5   2  712.33   42.90
   4   5   2  669.53   39.10
  -4   5  -2  695.03   22.80
   5   5   2   76.69   20.70
  -5   5  -2   69.59    5.90
   5   5   2   38.80   12.20
   6  -5   2  732.13   29.60
  -6   5  -2  715.83   27.50
   6   5   2  652.43   44.00
   6   5   2  694.73   46.60
   6   5   2  695.73   43.70
   7  -5   2   -5.00    3.80
   7   5   2    5.00    7.70
   7   5   2    2.80    5.80
   8  -5   2   71.09   13.40
   8   5   2   44.30   14.90
   8   5   2   37.90   15.40
   9  -5   2  174.08   18.50
   9   5   2  196.98   29.30
   9   5   2  180.78   24.90
  10  -5   2  244.28   23.00
  10   5   2  233.38   32.80
  10   5   2  175.98   26.00
  11  -5   2   -3.20    4.00
  11   5   2   -5.50    5.60
  11   5   2    9.60    9.30
  12  -5   2  161.48   22.00
  12   5   2  108.59   30.80
  12   5   2  141.19   30.70
  12  -6  -2    7.50    7.80
  12   6  -2    1.60   11.60
  12   6  -2   -1.50    8.00
  11  -6  -2  126.19   19.80
  11   6  -2  124.79   30.60
  11   6  -2  154.08   36.90
  10  -6  -2    1.70    4.20
 -10   6   2    4.40    5.10
  10   6  -2    3.00    7.20
  10   6  -2   -2.10    6.10
   9  -6  -2   27.60   10.10
   9   6  -2   33.00   20.70
   9   6  -2   30.70   14.40
  -9   6   2   12.60    6.40
   8  -6  -2   63.99   15.10
   8   6  -2   36.60   15.50
  -8   6   2   39.40   10.80
   8   6  -2   99.09   25.30
   7  -6  -2  113.19   15.30
   7   6  -2  154.48   24.50
  -7   6   2  115.59   13.60
   7   6  -2  117.59   25.20
   6  -6  -2   33.70    9.90
   6   6  -2   16.50    9.80
  -6   6   2   10.60    6.10
   6   6  -2    9.00    8.50
  -5  -6   2  754.22   45.00
   5  -6  -2  754.12   35.80
  -5  -6   2  788.72   45.80
   5   6  -2  774.82   47.40
  -5   6   2  812.32   35.30
   5   6  -2  746.33   46.30
  -4  -6   2   -0.70    2.60
   4  -6  -2    0.60    3.10
  -4   6   2    1.80    2.70
   4   6  -2    2.90    5.70
  -4   6   2    1.40    2.10
  -3  -6   2  363.86   27.40
  -3  -6   2  331.37   25.40
   3  -6  -2  325.97   20.90
  -3   6   2  361.06   20.80
   3   6  -2  345.17   27.60
  -3   6   2  322.87   18.00
  -3   6   2  370.86   22.50
   3   6  -2  347.37   26.70
   2  -6  -2  418.66   23.60
  -2  -6   2  360.56   26.60
  -2  -6   2  382.56   25.10
   2   6  -2  384.96   27.90
   2   6  -2  443.36   27.50
  -2   6   2  374.76   23.70
  -2   6   2  394.06   21.90
  -1  -6   2   10.70    6.40
  -1  -6   2    3.90    4.60
   1   6  -2    1.80    4.20
   1   6  -2    2.00    3.30
  -1   6   2   -0.30    2.90
  -1   6   2    3.40    4.40
  -1   6   2    6.70    4.60
   0  -6   2  150.88   15.10
   0   6  -2  147.69   15.40
   0   6   2  130.49   14.60
   0   6   2  167.58   17.40
   0   6   2  137.49   14.80
   0   6  -2  151.38   12.90
   1  -6   2  372.86   22.60
   1   6   2  328.97   24.30
  -1   6  -2  345.67   17.50
  -1   6  -2  366.16   22.60
   1   6   2  330.57   26.40
   1   6   2  325.97   22.60
   2  -6   2  180.48   14.50
   2   6   2  199.88   21.50
   2   6   2  203.08   18.80
  -2   6  -2  203.98   15.70
  -2   6  -2  213.68   11.60
  -2   6  -2  206.88   13.10
   2   6   2  210.88   20.20
   3  -6   2  208.98   13.90
   3   6   2  250.77   22.60
   3   6   2  207.58   22.90
  -3   6  -2  221.28   15.10
   3   6   2  242.18   22.90
   4   6   2  219.78   32.50
   4   6   2  200.08   21.80
   4   6   2  233.78   23.90
  -4   6  -2  247.18   13.50
   5   6   2  167.48   22.40
   5   6   2  147.79   19.80
   5   6   2   96.19   19.70
   6   6   2    2.00    5.90
   6   6   2   13.10    8.60
   7  -6   2   18.60    6.00
   7   6   2   20.90   12.30
   7   6   2   40.60   14.50
   8  -6   2    7.40    4.80
   8   6   2    2.90    7.90
   8   6   2   21.80   12.10
   9  -6   2  215.58   18.30
   9   6   2  203.38   27.90
   9   6   2  266.97   56.49
  10  -6   2   30.60    9.80
  10   6   2   20.70   13.50
  10   6   2   44.60   18.70
  11  -6   2  159.48   18.50
  11   6   2  167.78   35.70
  11   6   2  162.98   27.10
  12  -6   2    6.10    7.80
  12   6   2   13.10   14.00
  12   6   2   -5.10    6.30
  12  -7  -2    1.70    6.90
  12   7  -2   18.80   15.90
  12   7  -2    1.00   10.30
  11  -7  -2    2.90    5.50
  11   7  -2   24.30   16.20
  11   7  -2   -5.10    7.10
  10  -7  -2  208.58   23.00
  10   7  -2  215.88   31.00
 -10   7   2  212.58   20.80
  10   7  -2  231.88   35.40
   9  -7  -2   99.59   16.00
  -9   7   2   78.59   12.70
   9   7  -2  120.39   30.30
   9   7  -2  114.19   26.60
   8  -7  -2  542.65   33.60
  -8   7   2  523.75   30.10
   8   7  -2  559.94   45.80
   8   7  -2  536.45   47.90
   7  -7  -2   35.60   11.00
   7   7  -2   14.30   10.60
   7   7  -2   13.50    9.60
  -7   7   2   28.20    8.80
   6  -7  -2  131.29   14.60
   6   7  -2  117.09   25.10
  -6   7   2  115.39   12.90
   6   7  -2  152.08   30.00
   5  -7  -2  258.87   19.20
  -5   7   2  215.08   11.10
   5   7  -2  213.68   25.30
  -5   7   2  226.08   11.00
   5   7  -2  214.18   25.40
  -5   7   2  212.88   17.00
  -4  -7   2   70.79   17.40
   4  -7  -2   70.59   10.10
  -4  -7   2   95.49   15.20
  -4   7   2   47.90    7.00
  -4   7   2   47.70    7.80
  -4   7   2   73.29   13.00
   4   7  -2   78.49   19.20
   4   7  -2  101.19   16.70
  -3  -7   2  133.99   18.50
   3  -7  -2  178.98   15.60
  -3  -7   2  151.98   17.80
   3   7  -2  190.98   20.70
  -3   7   2  171.48   14.10
  -3   7   2  149.59   14.50
  -3   7   2  140.99   14.40
   3   7  -2  153.18   19.70
  -2  -7   2 1488.45   64.29
  -2   7   2 1488.35   55.09
  -2   7   2 1554.44   59.79
  -2   7   2 1519.65   57.19
   2   7  -2 1506.25   65.49
   2   7  -2 1523.45   61.39
  -1  -7   2   90.69   13.30
   1   7  -2   86.99   13.90
  -1   7   2   80.19   11.80
   1   7  -2   86.59   12.00
  -1   7   2   89.99   12.20
  -1   7   2   96.99   15.70
   0  -7   2  881.21   42.50
   0   7   2  923.21   44.20
   0   7  -2  857.41   43.00
   0   7   2  859.11   42.90
   0   7  -2  933.71   38.50
   0   7   2  906.71   46.80
   1  -7   2  187.48   17.00
   1   7   2  203.88   21.80
  -1   7  -2  176.28   14.30
  -1   7  -2  192.28   13.80
  -1   7  -2  176.38   16.80
   1   7   2  184.48   19.20
   1   7   2  192.18   19.70
   1   7   2  182.68   17.60
   2  -7   2  115.69   12.80
  -2   7  -2  166.18   10.60
   2   7   2  192.88   21.90
  -2   7  -2  153.18   11.20
   2   7   2  184.08   20.00
   2   7   2   98.69   14.30
  -2   7  -2  196.88   16.20
   3  -7   2   39.50    8.70
   3   7   2   39.00   13.10
  -3   7  -2   41.30    4.00
  -3   7  -2   36.60    3.50
  -3   7  -2   50.49   10.40
   3   7   2   25.10    9.20
   4   7   2 1130.49   58.69
   4   7   2 1084.79   57.09
  -4   7  -2 1252.67   41.90
   4   7   2 1218.48   64.19
  -4   7  -2 1128.99   41.80
  -5   7  -2  107.49    6.30
  -5   7  -2  106.49    6.20
   5   7   2  111.49   18.50
   5   7   2  113.89   18.70
   6   7   2  414.76   35.90
   6   7   2  336.07   33.10
   7   7   2    7.20    8.50
   7   7   2    8.80    8.40
   8   7   2   29.40   13.50
   8   7   2   60.39   19.60
   9  -7   2    7.20    4.50
   9   7   2    1.20    7.30
   9   7   2   -3.30    5.80
  10  -7   2  138.89   13.20
  10   7   2  114.59   32.30
  10   7   2  150.98   32.60
  11  -7   2   26.70    8.20
  11   7   2   18.70   15.10
  11   7   2   38.90   17.30
  12   7   2  195.98   58.69
  12   7   2  109.39   28.90
  11  -8  -2   62.39   14.80
  11   8  -2   15.30   15.30
  11   8  -2   45.60   21.30
  10  -8  -2    1.80    4.50
  10   8  -2  -10.60    4.80
  10   8  -2   -6.20    6.10
   9  -8  -2    4.70    5.10
   9   8  -2   11.90   11.00
  -9   8   2   17.00    7.50
   9   8  -2    7.50   11.20
   8  -8  -2    7.30    6.00
   8   8  -2   13.00   11.00
  -8   8   2   22.00    7.30
   8   8  -2   -2.20    4.90
   7  -8  -2  143.19   15.40
   7   8  -2  140.29   28.00
   7   8  -2  154.78   25.30
  -7   8   2  126.29   13.70
   6  -8  -2   32.80    9.40
   6   8  -2   16.90   10.70
  -6   8   2   26.40    8.00
   6   8  -2    9.30    9.00
   5  -8  -2  199.58   17.00
  -5   8   2  181.48   12.70
   5   8  -2  134.79   22.30
   5   8  -2  161.58   23.40
  -5   8   2  198.28   12.10
  -5   8   2  198.58   16.60
   4  -8  -2   32.40    8.80
  -4  -8   2   36.60   12.30
  -4   8   2   32.30    7.90
  -4   8   2   25.30    8.70
   4   8  -2   20.20   10.70
  -4   8   2   37.60    9.90
   4   8  -2   38.40   13.50
  -3  -8   2   -0.70    4.40
   3   8  -2   -2.60    3.50
  -3   8   2   11.40    6.10
  -3   8   2    0.90    3.40
  -3   8   2    4.00    4.40
   3   8  -2   -3.00    3.30
  -2  -8   2    7.50    8.00
  -2   8   2   19.90    8.20
  -2   8   2   15.90    7.30
  -2   8   2   20.70    7.70
   2   8  -2   14.00    7.90
   2   8  -2   20.70    8.50
  -1  -8   2   74.89   16.20
   1   8  -2   64.29   13.40
  -1   8   2   58.09   12.90
   1   8  -2   54.09   15.00
  -1   8   2   82.89   17.10
  -1   8   2   44.50   12.20
   0  -8   2  205.48   20.40
   0   8  -2  270.77   23.60
   0   8   2  233.38   22.10
   0   8   2  237.08   19.90
   0   8   2  297.57   26.40
   0   8   2  264.77   22.90
   0   8  -2  212.98   17.90
   1  -8   2   76.49   12.40
   1   8   2   85.49   17.90
  -1   8  -2   84.59   10.90
  -1   8  -2  112.39   11.50
   1   8   2   61.09   13.60
   1   8   2  102.39   15.50
  -1   8  -2  102.79   14.10
   1   8   2   90.09   13.50
   2  -8   2  265.47   20.70
  -2   8  -2  286.47   17.50
   2   8   2  284.37   28.50
  -2   8  -2  271.97   21.30
   2   8   2  306.87   27.40
   2   8   2  238.38   23.50
  -2   8  -2  290.67   16.20
   3  -8   2  361.06   22.30
  -3   8  -2  351.76   15.40
   3   8   2  373.16   31.80
   3   8   2  355.56   29.60
  -3   8  -2  370.06   19.90
   3   8   2  326.97   32.10
  -3   8  -2  360.06   23.40
   4   8   2   78.49   19.30
  -4   8  -2   80.69   19.40
   4   8   2  110.39   24.60
  -4   8  -2   76.99   10.00
   5   8   2  356.46   33.70
  -5   8  -2  345.57   17.00
  -5   8  -2  317.87   16.20
   5   8   2  337.07   32.60
   6   8   2    9.20    9.20
   6   8   2    4.30    6.90
   7   8   2   84.49   22.40
   7   8   2   52.19   16.60
   8   8   2   -4.20    7.60
   8   8   2   68.99   21.20
   9   8   2  119.29   27.20
   9   8   2  229.68   33.20
  10   8   2   65.49   23.40
  10   8   2   53.99   20.40
  11   8   2   30.30   17.50
  11   8   2   60.29   25.30
  11   9  -2   48.10   26.90
  11   9  -2   48.60   23.30
  10  -9  -2    4.50    4.90
  10   9  -2   25.70   16.00
  10   9  -2   28.50   17.50
   9  -9  -2  102.69   13.00
   9   9  -2  106.19   27.50
   9   9  -2  115.79   30.80
  -9   9   2  100.69   12.00
   8  -9  -2  193.28   17.00
  -8   9   2  186.38   15.40
   8   9  -2  124.69   30.30
   8   9  -2  187.98   29.40
   7  -9  -2   63.99   10.10
   7   9  -2   30.80   16.90
  -7   9   2   58.79   11.10
   7   9  -2   57.69   20.60
   6  -9  -2   60.69   11.60
   6   9  -2   67.49   20.70
   6   9  -2   46.90   18.70
  -6   9   2   51.89   10.90
   5   9  -2  114.79   25.20
  -5   9   2   92.29    9.70
  -5   9   2   93.89   10.80
   5   9  -2  105.19   22.80
  -5   9   2  100.59   12.30
  -4   9   2    3.20    5.20
  -4   9   2   13.80    6.20
   4   9  -2   -2.80    4.40
   4   9  -2   -2.70    3.90
  -4   9   2   -5.40    2.30
   3   9  -2  199.08   25.00
  -3   9   2  193.18   19.80
  -3   9   2  204.78   18.70
  -3   9   2  161.18   16.70
   3   9  -2  171.08   21.80
  -2  -9   2 1344.87   64.79
  -2   9   2 1299.97   60.39
  -2   9   2 1343.77   56.79
  -2   9   2 1346.07   56.89
   2   9  -2 1392.26   67.59
  -1  -9   2   56.99   15.20
   1   9  -2   56.59   14.90
  -1   9   2   80.39   18.40
   1   9  -2   97.99   14.20
  -1   9   2   74.19   17.00
  -1   9   2   60.39   14.60
   0  -9   2  552.94   36.50
   0   9   2  531.05   41.60
   0   9   2  450.15   33.20
   0   9   2  434.06   29.50
   0   9  -2  503.45   29.60
   0   9   2  459.75   44.80
   1  -9   2   -5.00    2.50
   1   9   2    6.50    6.50
   1   9   2   -3.40    2.20
  -1   9  -2    2.90    5.70
   1   9   2    1.20    5.00
   1   9   2    1.60    4.60
  -1   9  -2    0.60    3.30
  -1   9  -2    0.90    2.70
   2  -9   2   17.80    7.20
   2   9   2    5.30    6.10
  -2   9  -2   14.40    5.60
  -2   9  -2   18.20    5.70
  -2   9  -2   19.40    8.30
   2   9   2   24.90   10.60
   2   9   2    4.50    6.10
   3   9   2   -3.50    3.10
  -3   9  -2    0.30    2.50
  -3   9  -2   -5.80    2.10
  -3   9  -2    3.00    2.60
   3   9   2   -1.80    5.00
   4   9   2  648.64   47.10
  -4   9  -2  751.22   34.90
   4   9   2  696.73   47.00
  -4   9  -2  695.13   35.30
   5   9   2  287.07   31.50
  -5   9  -2  297.47   18.00
   5   9   2  286.37   31.90
  -5   9  -2  289.37   18.00
   6   9   2  722.83   52.49
   6   9   2  662.63   50.79
   7   9   2    5.80    9.50
   7   9   2   -3.50    5.20
   8   9   2    1.90    7.50
   8   9   2   -3.60    6.00
   9   9   2   -8.10    5.20
   9   9   2    0.40    6.10
  10   9   2    2.60    9.20
  10   9   2   19.20   15.40
  11   9   2   -2.70    7.20
  11   9   2    2.40    8.40
  10  10  -2    7.40   11.50
  10  10  -2    5.40   10.00
   9  10  -2   -7.20    6.80
   9  10  -2   19.80   14.80
   8  10  -2   42.90   20.00
   8  10  -2   34.20   19.00
  -7  10   2  109.59   15.10
   7  10  -2   48.80   18.40
   7  10  -2   86.59   23.70
   6  10  -2  271.17   33.90
  -6  10   2  282.37   19.20
   6  10  -2  352.66   38.60
  -5  10   2   16.00    6.10
   5  10  -2    4.30    6.70
  -5  10   2    5.20    4.80
   5  10  -2    9.90    9.80
  -5  10   2   12.60    6.60
  -4  10   2  223.48   19.40
   4  10  -2  227.48   29.40
   4  10  -2  211.38   26.80
  -4  10   2  243.88   22.00
  -4  10   2  218.38   19.20
   3  10  -2   88.59   19.30
  -3  10   2   38.20   12.10
   3  10  -2   91.39   23.80
  -3  10   2   66.79   14.30
  -3  10   2   77.39   12.80
   2  10  -2    3.70    7.80
  -2  10   2   11.10    7.20
  -2  10   2    1.80    3.60
   2  10  -2    8.20    7.80
  -2  10   2    4.70    6.70
  -1  10   2  148.39   20.70
  -1  10   2  185.28   20.80
   1  10  -2  131.89   20.30
  -1  10   2  148.69   18.80
  -1  10   2  158.98   17.40
   1  10  -2  162.58   18.70
   0 -10   2   66.59   17.50
   0  10  -2   58.89   14.10
   0  10   2   43.80   13.90
   0  10   2   45.50   16.20
   0  10   2   43.10   13.30
   0  10  -2   65.09   13.80
   0  10  -2   67.69   17.70
   0  10   2   57.69   14.10
   1 -10   2   -0.90    4.00
   1  10   2    7.20    5.70
  -1  10  -2    5.70    4.90
   1  10   2    4.60    6.70
   1  10   2    6.90    7.80
  -1  10  -2    8.60    8.00
  -1  10  -2    0.10    3.30
   2 -10   2  494.15   32.40
  -2  10  -2  494.85   25.20
  -2  10  -2  531.85   34.30
   2  10   2  464.55   38.20
   2  10   2  518.95   40.00
  -2  10  -2  465.75   27.00
   2  10   2  444.66   34.90
  -3  10  -2   85.19   17.10
   3  10   2   52.59   16.10
  -3  10  -2   86.49    9.20
  -3  10  -2   96.19   15.00
  -3  10  -2   87.19    8.50
   3  10   2   63.39   18.20
   4  10   2    2.90    8.30
  -4  10  -2    1.50    3.50
   4  10   2    9.30    9.30
  -4  10  -2    5.30    5.80
  -5  10  -2   67.39   12.90
   5  10   2   87.89   23.10
  -5  10  -2   58.09    9.60
   5  10   2  116.69   28.40
   6  10   2   20.50   12.40
   6  10   2   14.00   11.00
   7  10   2   52.89   20.20
   7  10   2   76.69   24.80
   8  10   2   53.89   20.20
   8  10   2   60.69   20.70
   9  10   2   14.40   14.20
   9  10   2   11.90   13.10
  10  10   2   12.90   13.40
  10  10   2   -0.20    9.20
  10  11  -2    6.80   11.50
  10  11  -2   -8.80    7.40
   9  11  -2   92.79   28.70
   9  11  -2   98.59   30.10
   8  11  -2  126.39   33.10
   8  11  -2   85.39   27.10
  -7  11   2   20.90    5.80
   7  11  -2   46.20   20.80
   7  11  -2   16.20   12.30
  -6  11   2  204.08   12.90
   6  11  -2  190.38   30.10
  -6  11   2  175.88   12.00
  -6  11   2  198.58   17.80
   6  11  -2  258.57   54.49
   5  11  -2   -0.70    7.10
  -5  11   2    2.30    3.70
   5  11  -2   14.80   13.00
  -5  11   2    2.90    4.70
  -5  11   2   -2.00    3.10
  -4  11   2   81.89   17.90
   4  11  -2   54.79   18.60
  -4  11   2   48.80   12.40
  -4  11   2   33.50   10.20
   4  11  -2   13.80   11.00
  -3  11   2   26.90   10.40
   3  11  -2   30.10   12.50
  -3  11   2   34.50   11.20
  -3  11   2   35.80   10.50
  -3  11   2   45.00   13.50
   3  11  -2   27.70   12.10
  -2  11   2   90.09   13.20
   2  11  -2   98.49   19.80
  -2  11   2   61.49   15.80
   2  11  -2   96.59   23.50
  -2  11   2  109.69   22.60
  -2  11   2  108.89   20.60
  -1  11   2  314.97   31.70
   1  11  -2  287.37   30.50
  -1  11   2  285.37   27.80
  -1  11   2  303.07   25.00
   1  11  -2  317.97   27.50
  -1  11   2  291.47   27.70
   0  11   2   53.49   15.70
   0  11  -2   56.19   14.80
   0  11   2   33.10   12.60
   0  11  -2   35.10   13.00
   0  11  -2   49.10   12.90
   0  11   2   40.90   12.60
   1 -11   2    4.10    6.00
   1  11   2   23.50    9.70
  -1  11  -2   18.70    8.60
   1  11   2   12.90    9.00
   1  11   2   14.30    9.50
  -1  11  -2    5.50    7.30
  -1  11  -2   -1.40    3.50
  -2  11  -2   17.60   10.60
  -2  11  -2   14.10    6.60
  -2  11  -2    7.30    5.70
   2  11   2   -0.30    3.80
   2  11   2   17.00    9.30
  -2  11  -2   -5.20    3.70
  -3  11  -2  121.69   11.70
  -3  11  -2  130.29   11.20
  -3  11  -2  130.39   18.50
  -3  11  -2  158.18   19.00
   3  11   2  145.89   22.30
   3  11   2  140.49   23.30
  -4  11  -2   67.49   15.50
   4  11   2  105.09   23.70
   4  11   2  144.39   31.00
  -4  11  -2   99.39   14.80
  -5  11  -2  128.89   15.00
   5  11   2  153.28   25.20
  -5  11  -2  170.68   16.30
   5  11   2  159.48   26.50
   6  11   2  165.08   35.60
  -6  11  -2  143.99    8.70
   6  11   2  153.08   31.00
   7  11   2  105.69   29.40
   7  11   2  168.68   34.00
   8  11   2   -1.50    8.10
   8  11   2    5.40    9.40
   9  11   2   -1.50    7.40
   9  11   2   25.50   15.80
  10  11   2    3.10   10.50
  10  11   2   27.50   19.60
   9  12  -2   81.39   30.00
   9  12  -2   87.79   30.40
   8  12  -2   27.60   15.50
   8  12  -2   30.70   19.70
   7  12  -2    0.60    9.00
   7  12  -2   21.30   16.40
   6  12  -2  434.06   45.10
   6  12  -2  418.36   45.60
  -6  12   2  411.26   20.90
  -6  12   2  488.65   24.50
  -6  12   2  456.55   32.40
  -6  12   2  440.06   22.30
  -5  12   2    1.40    3.70
   5  12  -2   -7.30    3.90
  -5  12   2   -1.90    3.20
  -5  12   2    2.40    4.20
   5  12  -2   12.50   11.40
  -5  12   2    2.30    6.10
   4  12  -2   13.80   11.50
  -4  12   2   34.40   10.90
  -4  12   2   29.80   10.90
  -4  12   2   45.40   14.00
  -4  12   2   30.20    8.60
   4  12  -2   60.29   30.50
  -3  12   2   25.90   12.30
   3  12  -2   33.10   14.30
  -3  12   2   17.80    9.20
  -3  12   2   12.30    8.10
   3  12  -2   34.20   15.50
  -3  12   2   41.10   10.90
  -2  12   2   97.09   14.40
  -2  12   2  109.39   18.00
  -2  12   2  125.89   25.30
  -2  12   2   57.89   15.50
   2  12  -2   81.49   23.70
   2  12  -2  128.59   24.60
   1  12  -2    5.70    6.50
  -1  12   2    1.90    5.10
  -1  12   2    1.70    5.00
   1  12  -2   -1.80    4.40
   1  12  -2   14.10    9.30
  -1  12   2    2.40    5.20
   0  12   2   34.20   12.80
   0  12  -2   12.40   10.80
   0  12  -2   15.50    8.70
   0  12   2   22.00    8.90
   0  12   2   22.30   11.40
  -1  12  -2   33.20   12.40
   1  12   2   34.40   13.10
  -1  12  -2   10.80    7.60
  -1  12  -2   29.90    9.80
   1  12   2   11.40    9.50
  -2  12  -2  709.63   34.80
   2  12   2  668.23   50.29
   2  12   2  731.93   48.40
  -2  12  -2  699.43   44.90
  -2  12  -2  653.63   36.20
  -2  12  -2  621.24   45.50
  -3  12  -2   15.80    9.70
  -3  12  -2   33.60   10.80
   3  12   2   36.40   14.30
   3  12   2   27.10   13.50
  -3  12  -2   35.90   12.90
  -3  12  -2   33.60    7.60
  -4  12  -2    9.40    8.60
   4  12   2   -3.20    5.30
  -4  12  -2    1.20    5.60
  -5  12  -2    1.20    5.00
   5  12   2   -8.80    5.00
  -5  12  -2    6.20    5.70
   5  12   2   -3.10    4.90
  -6  12  -2    5.10    3.40
   6  12   2   -1.20    8.10
  -6  12  -2    1.40    2.70
   6  12   2   -3.30    5.50
   7  12   2    0.10    6.20
   7  12   2   -7.20    5.10
   8  12   2   50.59   21.60
   8  12   2   24.40   17.20
   9  12   2   29.10   18.30
   9  12   2    1.10   12.40
   8  13  -2    4.90   10.00
   8  13  -2   -0.30    9.10
   7  13  -2   -3.10    6.50
   7  13  -2   -2.50    8.50
   6  13  -2    0.90    8.30
  -6  13   2    2.00    2.80
  -6  13   2   -1.80    2.40
   6  13  -2   -3.90    5.80
  -6  13   2    3.30    4.60
  -6  13   2    1.80    3.90
  -5  13   2   -0.60    3.60
   5  13  -2    0.40    8.20
   5  13  -2    9.40   10.30
  -5  13   2   -2.30    4.10
  -5  13   2   -4.20    3.80
  -5  13   2    1.80    3.00
   4  13  -2   -8.80    4.20
  -4  13   2    1.00    5.60
  -4  13   2    4.30    5.80
  -4  13   2    0.60    3.10
   4  13  -2    4.70    9.10
  -4  13   2    0.70    5.10
   3  13  -2  209.98   31.00
  -3  13   2  274.87   22.80
  -3  13   2  232.38   23.90
   3  13  -2  262.17   31.10
  -3  13   2  257.97   26.80
  -2  13   2   23.00   11.00
   2  13  -2   14.30   10.40
  -2  13   2   11.20    8.90
  -2  13   2   46.70   13.00
   2  13  -2   50.49   19.60
  -1  13   2  278.57   29.60
   1  13  -2  303.07   29.40
   1  13  -2  268.37   32.10
  -1  13   2  263.57   25.60
  -1  13   2  306.37   31.40
   0  13   2   12.70   10.30
   0  13  -2    0.30    5.40
   0  13  -2    1.40    6.40
   0  13   2    0.80    7.70
   0  13  -2   14.40    9.10
  -1  13  -2  219.38   26.80
   1  13   2  219.88   29.20
  -1  13  -2  194.58   20.30
  -1  13  -2  210.28   22.80
   1  13   2  193.18   24.50
  -2  13  -2   97.69   22.00
  -2  13  -2   82.39   16.30
  -2  13  -2   76.09   12.10
   2  13   2  105.19   23.90
   2  13   2  135.49   31.20
  -3  13  -2   16.60   11.30
  -3  13  -2    9.30    7.10
   3  13   2    1.80    6.70
  -3  13  -2   12.40    5.70
  -3  13  -2    5.90    7.60
   3  13   2    3.30    9.40
   4  13   2   11.60   10.20
  -4  13  -2    2.70    7.10
   4  13   2    3.40    7.80
  -4  13  -2    7.90    7.30
  -5  13  -2  215.18   21.30
   5  13   2  183.88   29.00
  -5  13  -2  148.59   19.10
   5  13   2  186.48   30.90
   6  13   2   12.20   12.30
  -6  13  -2   10.50    5.20
   6  13   2   16.20   11.70
   7  13   2    7.00   12.70
   7  13   2   61.69   26.20
   8  13   2    0.50    7.20
   8  13   2    3.00   10.60
   7  14  -2   -7.00    8.30
   7  14  -2   -3.70    6.40
  -6  14   2   53.99   11.80
   6  14  -2   85.69   28.30
   6  14  -2   71.99   26.60
   5  14  -2   24.00   14.60
  -5  14   2    4.90    4.30
  -5  14   2    1.70    7.40
   5  14  -2   36.20   19.80
  -4  14   2   43.40   10.40
   4  14  -2   75.89   24.60
  -4  14   2   69.69   18.20
   4  14  -2   65.49   21.50
  -4  14   2   48.10   13.10
   3  14  -2   -7.00    4.60
  -3  14   2    0.20    5.90
   3  14  -2   10.30   11.20
  -3  14   2   -2.00    4.70
  -3  14   2    9.30    8.10
  -2  14   2    2.30    6.00
   2  14  -2   -7.90    5.00
  -2  14   2   -2.10    4.80
  -2  14   2   15.20    9.20
   2  14  -2    9.60    9.40
   1  14  -2    3.70   15.40
  -1  14   2   15.60    9.10
   1  14  -2   17.30    9.60
  -1  14   2   21.50   12.30
   0  14  -2  113.69   17.90
   0  14   2   79.19   19.20
   0  14  -2   86.39   24.10
   0  14   2  112.79   26.60
  -1  14  -2   20.70   12.30
   1  14   2   -2.00    4.10
  -1  14  -2    2.70    6.50
  -1  14  -2   15.30    8.80
  -2  14  -2   68.99   19.80
   2  14   2  103.39   25.90
   2  14   2   28.20   14.10
  -2  14  -2   86.29   13.00
  -2  14  -2   99.79   15.20
  -3  14  -2   94.49   22.20
   3  14   2   82.19   22.70
   3  14   2  117.39   40.30
  -3  14  -2   63.89    9.60
  -3  14  -2   74.19   11.10
  -4  14  -2   42.20   14.10
   4  14   2    5.90    7.70
  -4  14  -2   11.80   10.80
   4  14   2   29.60   17.00
   5  14   2   31.10   16.20
   5  14   2   -1.10    6.20
   6  14   2   18.00   13.10
   6  14   2   41.70   18.70
  -6  14  -2   33.60    9.20
   7  14   2   65.59   41.80
   6  15  -2    7.50   17.10
   6  15  -2   -3.60    6.60
   5  15  -2   -1.10    6.90
   5  15  -2    3.20    8.50
  -5  15   2    2.90    7.10
   4  15  -2   17.30   14.10
  -4  15   2    0.40    6.40
  -4  15   2    5.30    5.20
   4  15  -2   -4.60    8.70
   3  15  -2  132.09   33.70
  -3  15   2  101.69   15.50
  -3  15   2  122.69   25.80
   3  15  -2  134.79   29.50
  -2  15   2    2.20    8.70
   2  15  -2   14.40   11.60
   2  15  -2   17.10   13.10
  -2  15   2   -2.50    3.40
   1  15  -2  219.78   32.10
   1  15  -2  194.38   25.90
  -1  15   2  270.17   27.70
  -1  15   2  215.18   29.90
   0  15  -2    0.20    5.20
   0  15  -2    0.10    6.80
   0  15   2    1.90    7.80
   0  15   2    7.10    8.00
  -1  15  -2   11.80   12.60
   1  15   2   -3.40    4.10
   1  15   2   12.40   11.30
  -1  15  -2    8.90    7.20
  -1  15  -2   28.80   13.50
   2  15   2    9.60   13.00
  -2  15  -2    4.20    6.00
  -2  15  -2   16.90   11.60
   2  15   2   44.90   20.10
   3  15   2    1.50    7.90
  -3  15  -2    6.20    4.80
   3  15   2    8.60   11.80
  -3  15  -2    6.00   10.10
  -4  15  -2   60.59   18.30
   4  15   2   66.89   26.20
   4  15   2   42.40   19.90
   5  15   2  283.07   37.70
  -5  15  -2  213.88   24.20
   5  15   2  234.08   37.90
   6  15   2   -6.90    5.90
   6  15   2    9.20   12.30
   5  16  -2   79.99   27.50
  -5  16   2   95.39   23.30
   5  16  -2   71.69   26.70
  -4  16   2   55.69   18.30
   4  16  -2   44.10   24.80
   4  16  -2    3.70    9.70
   3  16  -2    7.80    9.10
  -3  16   2    8.20    8.20
   3  16  -2   -2.80    8.90
  -3  16   2    8.00    9.30
  -2  16   2    7.90    9.70
   2  16  -2  -10.20    5.40
   2  16  -2    1.60    8.00
  -2  16   2    2.00    6.20
   1  16  -2   18.40   16.80
  -1  16   2   21.90   10.90
  -1  16   2   60.09   22.30
   1  16  -2   37.90   15.40
   0  16  -2   25.90   14.20
   0  16  -2   11.40   12.20
   0  16   2   45.00   19.00
   0  16   2   44.10   16.30
   1  16   2   34.00   15.80
  -1  16  -2   46.30   14.60
  -1  16  -2    9.10   10.00
   1  16   2   39.70   18.80
   2  16   2   25.90   14.10
   2  16   2   38.60   21.00
  -2  16  -2   31.90   14.10
  -2  16  -2   15.30   14.70
   3  16   2   98.59   31.30
   3  16   2   85.79   25.60
  -3  16  -2  158.28   26.00
  -4  16  -2    3.70    8.70
   4  16   2    6.50   11.70
   4  16   2    0.40   11.10
   5  16   2    7.80   11.70
   5  16   2   19.60   15.50
   2  17  -2   23.20   17.10
   2  17  -2    9.80   10.50
  -2  17   2   31.10   17.80
  -2  17   2   21.20   10.60
   1  17  -2   33.00   15.30
  -1  17   2  102.79   24.30
  -1  17   2   42.60   19.20
   0  17  -2   -1.30    6.60
   0  17   2   10.40   11.80
   0  17   2    3.70    7.80
   0  17  -2   14.40   16.60
  -1  17  -2   11.80    9.50
  -1  17  -2   -1.20    8.90
   1  17   2   -3.20    5.50
   1  17   2   14.20   11.40
  -2  17  -2   71.49   23.60
   2  17   2   78.09   27.10
   2  17   2   84.59   22.80
  13   0  -3  128.09   34.70
  12   0  -3   -0.40   11.20
  12   0  -3   -1.20    5.30
  11   0  -3  420.56   31.70
  11   0  -3  488.15   32.70
  11   0  -3  394.96   41.80
  10   0  -3   -1.50    5.00
  10   0  -3   -2.40    3.50
  10   0  -3    5.70   10.40
   9   0  -3   27.70    9.80
   9   0  -3   21.00    8.50
   9   0  -3   34.10   15.10
  -8   0   3    3.90    5.00
   8   0  -3   22.70   12.30
   8   0  -3    1.50    5.30
  -8   0   3    1.40    3.90
   7   0  -3  242.38   25.60
  -7   0   3  229.58   18.20
   7   0  -3  236.58   19.60
  -7   0   3  300.57   26.50
  -6   0   3   -1.70    3.40
   6   0  -3   -4.80    2.70
   6   0  -3   -4.00    2.30
  -6   0   3    2.30    3.00
   5   0  -3 1362.36   58.79
  -5   0   3 1481.55   51.29
   5   0  -3 1424.36   51.49
  -5   0   3 1427.46   57.59
  -4   0   3    5.90    4.70
   4   0  -3    0.70    2.70
   4   0  -3   -1.30    3.30
  -4   0   3   -1.30    2.60
  -3   0   3  830.32   30.90
   3   0  -3  789.72   31.30
   3   0  -3  792.42   35.40
  -3   0   3  756.92   34.10
   2   0  -3    3.90    4.40
   2   0  -3    0.30    3.50
  -2   0   3    5.60    3.40
  -2   0   3   -1.70    3.00
  -1   0   3    1.60    2.90
  -1   0   3    1.30    2.40
   1   0  -3    6.10    3.50
   1   0  -3    2.90    2.80
   0   0  -3    0.50    2.30
   0   0   3    1.70    2.40
   0   0   3   -0.60    2.20
  -1   0  -3   30.30    5.80
   1   0   3   22.60    4.90
   1   0   3   31.20    5.80
  -1   0  -3   32.70    6.60
  -2   0  -3   -3.50    2.20
   2   0   3    4.10    3.70
   3   0   3  523.85   23.90
   3   0   3  541.55   25.30
  -3   0  -3  534.35   25.20
  -4   0  -3   -0.70    2.90
   4   0   3   -1.90    2.50
   4   0   3    3.80    3.90
   5   0   3   27.40    8.00
   5   0   3   26.90    8.20
   5   0   3   27.90    7.20
   6   0   3    3.50    3.80
   6   0   3    0.40    2.80
   6   0   3   -1.40    2.90
   7   0   3 1050.49   44.80
   7   0   3 1156.08   53.89
   7   0   3 1056.29   48.00
   8   0   3    8.50    5.30
   8   0   3   -3.90    2.80
   8   0   3   -3.50    5.00
   9   0   3   58.29   14.50
   9   0   3   47.30   11.80
   9   0   3   64.59   18.60
  10   0   3    1.70    4.40
  10   0   3   -0.70    3.60
  10   0   3    7.00    8.60
  11   0   3   17.70    8.90
  11   0   3    1.20    8.10
  11   0   3   32.80   11.60
  12   0   3   -3.40    4.60
  13   0   3   -5.10    7.50
  13  -1  -3   19.50   15.60
  13   1  -3    3.50   11.50
  13   1  -3    3.40    7.70
  12  -1  -3   15.90   13.60
  12  -1  -3   21.30    7.70
  12   1  -3    5.10    9.90
  12   1  -3   14.00    9.40
  11  -1  -3    3.80    7.70
  11  -1  -3    4.50    5.10
  11  -1  -3    0.80    4.10
  11   1  -3   -0.20    5.10
  11   1  -3    5.60    9.10
  11   1  -3   20.50   19.70
  10  -1  -3  135.39   28.50
  10  -1  -3   99.39   13.60
  10  -1  -3  127.39   15.10
  10   1  -3   95.49   25.50
   9  -1  -3   70.19   20.10
   9  -1  -3   19.60    8.10
   9  -1  -3   29.20    9.00
   9   1  -3   12.00    8.60
   9   1  -3   34.00   14.10
   9   1  -3   33.80   11.70
  -8  -1   3  272.67   22.50
   8  -1  -3  282.17   20.60
   8  -1  -3  255.57   28.10
  -8   1   3  267.97   25.90
   8   1  -3  272.27   29.60
   8   1  -3  248.68   23.20
  -8   1   3  259.67   18.40
   7  -1  -3  348.67   21.80
  -7  -1   3  281.67   22.20
  -7  -1   3  338.47   28.60
   7  -1  -3  273.47   26.90
   7   1  -3  314.97   24.70
  -7   1   3  313.07   26.10
  -7   1   3  336.47   20.10
   7   1  -3  273.07   27.90
  -6  -1   3  459.75   27.30
  -6  -1   3  463.15   31.70
   6  -1  -3  427.06   23.80
   6  -1  -3  437.06   31.50
  -6   1   3  497.95   31.20
  -6   1   3  499.25   23.60
   6   1  -3  456.65   33.30
   6   1  -3  418.26   27.30
  -5  -1   3   -4.20    1.70
   5  -1  -3   -2.20    2.70
   5  -1  -3   -2.70    3.70
  -5  -1   3    2.10    3.60
   5   1  -3    1.30    4.00
   5   1  -3    2.00    4.20
  -5   1   3   -1.60    3.40
  -5   1   3    1.90    3.10
  -4  -1   3 1182.98   50.19
   4  -1  -3 1236.58   42.80
  -4  -1   3 1213.28   46.20
   4  -1  -3 1298.27   51.39
   4   1  -3 1322.17   53.49
   4   1  -3 1305.97   48.10
  -4   1   3 1357.76   50.49
  -4   1   3 1248.88   41.70
  -3  -1   3   66.49   12.40
  -3  -1   3   51.69    9.60
   3  -1  -3   33.80    8.20
   3  -1  -3   47.80    8.10
  -3   1   3   47.10    6.40
  -3   1   3   41.90   10.10
   3   1  -3   46.80   10.20
   3   1  -3   44.70    8.90
  -2  -1   3  615.44   26.10
   2  -1  -3  645.24   27.90
  -2  -1   3  636.84   28.20
   2  -1  -3  644.04   24.80
  -2   1   3  620.34   24.00
  -2   1   3  606.34   26.90
   2   1  -3  622.04   28.30
   2   1  -3  627.54   27.10
   1  -1  -3   76.69    8.30
  -1  -1   3   66.19    7.80
   1  -1  -3   64.19    7.20
  -1  -1   3   64.69    7.70
   1   1  -3   67.79    8.00
   1   1  -3   62.19    8.00
  -1   1   3   60.29    7.10
  -1   1   3   74.59    8.20
   0  -1  -3 1718.23   52.09
   0  -1   3 1612.94   50.19
   0  -1   3 1719.63   48.60
   0  -1  -3 1654.43   51.69
   0   1   3 1696.43   51.69
   0   1   3 1678.93   51.59
   0   1  -3 1697.03   48.60
   1  -1   3 1151.48   34.40
  -1  -1  -3 1174.38   39.60
   1  -1   3 1131.29   37.10
  -1   1  -3 1174.68   34.50
  -1   1  -3 1148.69   37.70
   1   1   3 1111.29   39.30
   1   1   3 1162.38   40.30
   2  -1   3  946.81   31.30
   2  -1   3  929.11   32.60
  -2  -1  -3  945.81   37.10
   2   1   3  981.30   37.60
  -2   1  -3  947.91   32.90
   3  -1   3  289.17   15.20
   3  -1   3  305.27   16.30
  -3  -1  -3  308.87   19.90
   3   1   3  265.37   17.60
  -3   1  -3  279.97   15.80
   3   1   3  267.67   18.80
   4  -1   3  809.12   32.20
   4  -1   3  847.42   33.60
  -4   1  -3  800.82   32.30
   4   1   3  848.62   38.40
   4   1   3  830.32   35.00
   4   1   3  847.82   37.70
   5  -1   3  465.85   25.90
   5  -1   3  450.05   23.70
   5  -1   3  464.75   21.90
   5   1   3  473.25   26.40
   5   1   3  466.45   28.80
   5   1   3  469.65   28.60
   6  -1   3 1193.38   45.90
   6  -1   3 1122.19   49.10
   6  -1   3 1212.68   43.20
   6   1   3 1121.29   48.20
   6   1   3 1135.09   52.49
   6   1   3 1256.07   53.59
   7  -1   3  209.28   17.10
   7  -1   3  188.98   19.60
   7  -1   3  169.58   14.30
   7   1   3  176.28   17.50
   7   1   3  138.69   33.00
   7   1   3  203.48   20.60
   8  -1   3  415.46   32.30
   8  -1   3  386.96   24.90
   8  -1   3  408.16   23.60
   8   1   3  334.77   31.00
   8   1   3  375.36   29.80
   8   1   3  357.26   26.70
   9  -1   3    8.30    5.60
   9  -1   3   -1.90    5.20
   9  -1   3    1.70    3.90
   9   1   3    7.20    6.20
   9   1   3   -0.60    4.70
   9   1   3   -2.50    4.50
  10  -1   3  107.19   12.80
  10  -1   3   69.79   14.20
  10  -1   3  113.39   23.70
  10   1   3   86.99   25.50
  10   1   3  115.39   25.30
  11  -1   3   96.89   13.30
  11  -1   3  103.69   25.50
  11  -1   3   95.89   12.80
  11   1   3   82.29   23.20
  11   1   3  103.39   22.10
  11   1   3  102.49   16.40
  12  -1   3  248.68   17.70
  12  -1   3  275.97   33.30
  12   1   3  220.38   32.10
  12   1   3  197.98   23.10
  13  -1   3    4.40    8.50
  13   1   3    3.60   12.60
  13   1   3   -5.40    5.20
  13  -2  -3   55.79   21.50
  13   2  -3   38.90   16.00
  13   2  -3   33.20   18.40
  12  -2  -3   75.89   29.00
  12   2  -3   53.29   23.40
  12   2  -3   25.70   14.20
  11  -2  -3  165.48   10.80
  11  -2  -3  201.38   29.10
  11   2  -3  173.28   23.20
  11   2  -3  134.59   31.20
  10  -2  -3   39.50   15.60
  10  -2  -3   34.70    7.70
  10  -2  -3   25.40    6.70
  10   2  -3   38.80   14.20
  10   2  -3   32.20   16.60
  10   2  -3   28.20   11.80
   9  -2  -3   28.40   13.80
   9  -2  -3   16.00    5.70
   9  -2  -3   14.20    6.00
  -9  -2   3   21.70    9.50
   9   2  -3    3.90    9.20
   9   2  -3    9.00    7.50
   8  -2  -3  240.78   26.00
  -8  -2   3  220.78   21.70
   8  -2  -3  214.18   15.80
   8  -2  -3  196.18   15.00
   8   2  -3  246.18   28.70
   8   2  -3  228.38   23.30
  -8   2   3  231.88   23.30
  -7  -2   3  200.68   19.70
   7  -2  -3  164.78   20.60
   7  -2  -3  210.88   14.90
  -7  -2   3  218.38   23.80
   7   2  -3  224.18   21.90
   7   2  -3  197.88   24.10
  -7   2   3  220.28   21.40
  -7   2   3  209.28   13.60
   6  -2  -3   67.69   15.50
   6  -2  -3   44.70    7.10
  -6  -2   3   57.09   17.20
  -6  -2   3   46.30   11.80
   6   2  -3   78.49   16.30
  -6   2   3   58.19    6.90
  -6   2   3   63.09   13.80
   5  -2  -3  666.13   36.80
  -5  -2   3  687.53   35.00
   5  -2  -3  693.53   27.80
  -5  -2   3  739.73   39.60
  -5   2   3  748.53   26.80
   5   2  -3  759.12   37.20
  -5   2   3  731.53   36.00
   5   2  -3  634.24   38.90
  -4  -2   3  524.45   30.20
   4  -2  -3  459.25   21.00
  -4  -2   3  534.75   28.20
   4  -2  -3  502.25   28.50
   4   2  -3  520.65   31.40
  -4   2   3  500.05   20.30
  -4   2   3  481.15   27.10
   4   2  -3  566.14   29.40
   3  -2  -3  162.68   10.90
  -3  -2   3  165.18   15.30
  -3  -2   3  179.48   14.80
   3  -2  -3  168.58   14.30
   3   2  -3  159.48   15.50
  -3   2   3  154.18   10.30
  -3   2   3  159.88   13.90
   3   2  -3  170.98   14.80
  -2  -2   3   47.50    9.90
   2  -2  -3   34.30    6.80
   2  -2  -3   24.10    6.50
  -2  -2   3   25.90    7.20
  -2   2   3   46.00    7.60
   2   2  -3   31.50    8.40
  -2   2   3   43.30    7.60
   2   2  -3   30.40    7.30
  -1  -2   3 3057.19   85.69
  -1  -2   3 3082.69   87.19
   1   2  -3 3046.70   88.19
   1   2  -3 3054.09   86.19
   0  -2   3 2516.65   73.89
   0  -2   3 2635.24   69.99
   0   2   3 2581.64   75.99
  -1  -2  -3 4880.81  148.99
   1  -2   3 4986.30  155.98
   1   2   3 4930.11  150.38
  -1   2  -3 4793.62  154.08
  -2  -2  -3  798.52   35.70
   2  -2   3  788.12   24.30
   2  -2   3  808.72   28.30
   2  -2   3  813.52   23.50
  -2   2  -3  780.42   28.50
   2   2   3  820.42   36.00
  -3  -2  -3  453.95   27.40
   3  -2   3  469.25   19.70
   3  -2   3  482.35   21.40
   3   2   3  491.15   26.30
   3   2   3  500.55   28.30
  -3   2  -3  489.75   20.50
   3   2   3  461.55   25.10
   4  -2   3  141.49   10.40
   4  -2   3  131.79   10.80
   4   2   3  139.29   14.90
  -4   2  -3  144.69   10.50
   4   2   3  148.89   14.50
   4   2   3  166.98   16.80
   5  -2   3    4.20    2.40
   5  -2   3    6.40    3.90
   5  -2   3    7.30    3.60
   5   2   3    1.60    4.50
   5   2   3   -1.20    2.80
   5   2   3   -2.40    2.10
   6  -2   3   89.79    8.40
   6  -2   3  117.09   13.20
   6  -2   3   91.39    9.40
   6   2   3  117.79   16.20
   6   2   3  117.59   16.00
   6   2   3   88.39   12.90
   7  -2   3 1111.09   40.60
   7  -2   3 1085.59   38.00
   7  -2   3 1089.39   49.10
   7   2   3 1078.89   55.99
   7   2   3 1079.09   50.79
   7   2   3 1125.29   55.69
   8  -2   3   46.60    9.20
   8  -2   3   30.70    7.10
   8  -2   3   40.60   12.60
   8   2   3   41.60   14.80
   8   2   3   41.20   12.60
   8   2   3   36.10   14.40
   9  -2   3  193.58   13.90
   9  -2   3  195.68   14.90
   9  -2   3  192.58   22.50
   9   2   3  187.38   21.70
   9   2   3  223.28   27.90
   9   2   3  247.98   26.60
  10  -2   3   41.80   14.10
  10  -2   3   43.80    8.30
  10  -2   3   45.50    7.90
  10   2   3   27.20   11.70
  10   2   3   76.39   18.00
  10   2   3   71.09   21.40
  11  -2   3  150.28   28.80
  11   2   3  125.89   36.40
  11   2   3  118.39   19.00
  12  -2   3   -3.30    6.20
  12   2   3   -0.20    9.30
  12   2   3   -0.90    6.00
  13   2   3   28.80   14.30
  13   2   3   19.30   15.10
  13  -3  -3    7.10    9.00
  13   3  -3   38.50   19.20
  13   3  -3   30.00   16.20
  12  -3  -3   24.50   15.10
  12   3  -3   28.80   15.20
  12   3  -3   44.70   21.10
  11  -3  -3    3.60    7.90
  11   3  -3   -2.70    6.70
  11   3  -3    1.30    7.60
  10  -3  -3  139.39   23.20
  10   3  -3  165.38   23.90
  10   3  -3  178.18   29.10
   9  -3  -3   44.40   16.70
  -9  -3   3   29.20   11.20
   9   3  -3   45.50   19.80
   9   3  -3   29.10   12.10
  -9   3   3   16.30    9.60
   8  -3  -3   37.40   13.30
   8  -3  -3   28.60    3.90
   8  -3  -3   31.40    4.00
  -8  -3   3   20.90    9.40
   8   3  -3   15.10    8.90
   8   3  -3   37.50   14.90
  -8   3   3   26.70   10.10
  -7  -3   3  140.09   17.40
   7  -3  -3  109.59    7.90
   7  -3  -3  136.19   18.70
   7  -3  -3  110.49    7.80
   7   3  -3  137.29   18.20
  -7   3   3  118.19   15.80
   7   3  -3  118.49   23.70
   6  -3  -3  119.79   16.10
  -6  -3   3   95.29   18.90
  -6  -3   3  120.59   15.40
   6  -3  -3  119.19    8.50
   6   3  -3  113.49   15.80
  -6   3   3  122.39   14.70
  -6   3   3  127.09    7.90
   6   3  -3  113.89   18.00
   5  -3  -3   36.50   11.00
  -5  -3   3   24.70    8.80
   5  -3  -3   31.00    4.90
  -5  -3   3   36.20   11.30
  -5   3   3   39.50   10.50
   5   3  -3   26.50   10.80
   5   3  -3   17.60    7.50
  -5   3   3   36.10    4.40
  -4  -3   3   89.19   12.40
   4  -3  -3  106.79   12.80
  -4  -3   3   75.49   14.60
   4  -3  -3   76.89    8.50
  -4   3   3  100.99    7.60
   4   3  -3   60.29   12.50
  -4   3   3   81.29   11.00
   4   3  -3   63.19   14.20
   3  -3  -3   85.39   10.70
  -3  -3   3   79.39   11.40
   3  -3  -3   93.29    8.40
  -3  -3   3  110.89   12.60
   3   3  -3  109.49   13.60
  -3   3   3  112.99    8.90
  -3   3   3  109.59   11.60
   3   3  -3   92.69   12.20
  -2  -3   3    7.40    4.70
   2  -3  -3    3.20    3.50
   2  -3  -3    8.30    4.00
  -2  -3   3    2.40    3.20
   2   3  -3    2.80    4.10
  -2   3   3    0.70    3.20
  -2   3   3    6.10    3.80
   2   3  -3    2.60    3.40
   1  -3  -3  668.63   29.80
   1  -3  -3  694.93   29.30
  -1  -3   3  683.43   28.30
  -1  -3   3  676.93   31.10
   1   3  -3  724.33   31.40
   1   3  -3  697.23   29.00
  -1   3   3  672.73   29.80
  -1   3   3  678.73   29.00
   0  -3   3  391.96   20.50
   0  -3  -3  418.76   22.60
   0  -3   3  385.56   17.30
   0  -3  -3  381.06   22.10
   0   3  -3  424.26   18.20
   0   3   3  404.26   22.60
   0   3   3  428.66   22.60
   0   3  -3  390.96   21.10
   1  -3   3   70.09    7.90
   1  -3   3   57.89    4.50
  -1  -3  -3   45.50    8.90
   1   3   3   54.59   11.70
  -1   3  -3   51.49    4.70
  -1   3  -3   73.59    8.60
  -2  -3  -3  428.16   27.10
   2  -3   3  479.25   20.20
   2   3   3  421.76   26.60
  -2   3  -3  476.65   20.80
   3  -3   3  131.39    7.00
   3  -3   3  128.39    6.70
   3  -3   3  123.49    8.80
   3   3   3  121.89   14.90
   3   3   3  116.69   13.40
   3   3   3  131.39   13.80
  -3   3  -3  123.49    9.80
   4  -3   3   28.30    5.60
   4  -3   3   28.20    5.10
   4   3   3   20.80    9.10
   4   3   3   29.60    9.40
  -4   3  -3   31.90    4.90
   4   3   3   22.20    8.70
   5  -3   3   22.90    4.30
   5  -3   3   14.30    3.30
   5  -3   3   19.20    6.10
   5   3   3    9.60    6.60
   5   3   3    7.70    6.80
   5   3   3    4.80    4.80
   6  -3   3  161.28    8.30
   6  -3   3  178.98   15.10
   6  -3   3  154.08    8.70
   6   3   3  135.09   16.90
   6   3   3  135.99   18.20
   6   3   3  149.99   19.40
   7  -3   3  101.89    6.50
   7  -3   3   94.29    5.90
   7  -3   3   77.29   12.00
   7   3   3  110.79   18.00
   7   3   3  111.29   24.50
   7   3   3  110.79   17.90
   8  -3   3   32.20   11.00
   8   3   3   27.10   12.30
   8   3   3   42.70   15.00
   8   3   3   36.00   12.50
   9  -3   3   -3.80    5.20
   9   3   3    9.50   10.10
   9   3   3    0.50    5.40
   9   3   3    4.90    6.90
  10  -3   3   11.20    8.20
  10   3   3    2.90    7.80
  10   3   3   28.10   11.60
  11  -3   3   23.30   12.20
  11   3   3   25.40   13.00
  11   3   3   41.90   14.50
  12  -3   3   46.80   16.50
  12   3   3   29.20   16.60
  12   3   3   37.00   15.80
  12  -4  -3  140.69   30.30
  12   4  -3  137.79   29.80
  12   4  -3  274.77   39.70
  11  -4  -3   87.19   21.90
  11   4  -3  124.99   33.70
  11   4  -3  128.89   26.70
  10  -4  -3   63.89   18.00
  10   4  -3   75.09   24.80
  10   4  -3   83.69   20.50
   9  -4  -3  145.99   21.50
   9   4  -3  135.69   31.80
   9   4  -3  139.09   22.00
  -9   4   3  152.18   19.30
   8  -4  -3   81.09   17.90
  -8  -4   3   32.70   14.50
   8   4  -3   93.89   24.30
  -8   4   3   74.09   16.10
   8   4  -3   61.89   17.20
  -7  -4   3  447.86   33.30
   7  -4  -3  382.86   30.00
   7   4  -3  432.96   34.10
  -7   4   3  458.75   30.00
   7   4  -3  471.15   38.80
  -6  -4   3  434.16   32.30
   6  -4  -3  465.45   30.50
  -6  -4   3  477.75   35.10
  -6   4   3  471.85   28.90
   6   4  -3  420.06   34.60
   6   4  -3  482.05   40.90
   5  -4  -3  261.97   10.70
   5  -4  -3  257.97   21.00
  -5  -4   3  219.18   21.50
  -5  -4   3  291.07   24.90
   5   4  -3  271.97   31.00
  -5   4   3  264.67   10.40
  -5   4   3  231.98   19.00
   5   4  -3  256.27   23.40
  -4  -4   3  730.43   38.70
  -4  -4   3  769.62   40.50
   4  -4  -3  768.62   31.20
   4  -4  -3  737.73   35.60
   4   4  -3  722.23   40.60
  -4   4   3  752.32   34.80
  -4   4   3  754.52   26.50
   4   4  -3  750.12   40.10
  -3  -4   3  340.17   23.90
   3  -4  -3  361.26   18.00
   3  -4  -3  389.06   22.90
  -3  -4   3  311.57   23.30
   3   4  -3  337.97   24.40
  -3   4   3  349.96   17.90
   3   4  -3  318.87   24.00
  -3   4   3  358.76   25.20
  -2  -4   3   24.20    7.90
  -2  -4   3   15.60    5.80
   2  -4  -3   12.80    5.60
   2  -4  -3   21.70    6.30
   2   4  -3   16.20    6.70
   2   4  -3   22.80    7.40
  -2   4   3   18.90    6.10
  -2   4   3   21.50    6.10
  -1  -4   3 1617.74   54.59
   1  -4  -3 1675.13   57.29
  -1  -4   3 1654.33   58.49
   1  -4  -3 1693.23   57.69
  -1   4   3 1682.03   57.59
  -1   4   3 1705.53   57.69
   1   4  -3 1624.64   58.59
   1   4  -3 1626.34   55.09
   0  -4   3  621.74   32.40
   0  -4   3  574.44   23.40
   0  -4  -3  655.33   31.90
   0   4   3  565.24   33.70
   0   4   3  556.94   29.80
   0   4  -3  552.04   27.90
   0   4  -3  595.54   24.30
   1  -4   3  201.98    9.70
   1  -4   3  204.58   14.30
  -1  -4  -3  191.18   18.00
   1   4   3  194.58   16.00
  -1   4  -3  195.48   14.70
   1   4   3  222.18   18.90
  -1   4  -3  200.88   10.10
   1   4   3  217.78   18.00
   2  -4   3 1427.66   46.90
  -2   4  -3 1492.45   48.50
   2   4   3 1520.55   56.49
   2   4   3 1472.25   59.89
   3  -4   3 2244.98   63.39
  -3   4  -3 2274.77   65.09
   3   4   3 2215.28   77.89
   3   4   3 2323.37   83.79
   3   4   3 2153.28   77.39
   4  -4   3 1230.88   35.80
   4  -4   3 1205.38   34.20
   4   4   3 1153.78   56.29
  -4   4  -3 1228.78   37.40
   4   4   3 1234.48   53.99
   4   4   3 1172.68   53.39
   5  -4   3    3.00    3.10
   5   4   3   -2.90    2.50
   5   4   3   -3.60    2.80
   5   4   3   -2.30    3.30
   6  -4   3  205.38   15.10
   6   4   3  197.08   22.80
   7  -4   3  252.07   19.10
   7   4   3  311.67   29.90
   7   4   3  252.07   25.40
   7   4   3  188.68   24.10
   8  -4   3  128.99   15.40
   8   4   3  111.19   18.20
   8   4   3  118.49   25.90
   9  -4   3  204.38   20.90
   9   4   3  219.08   26.00
   9   4   3  184.18   26.90
  10  -4   3  166.88   22.50
  10   4   3  163.08   23.50
  10   4   3  129.59   31.60
  11  -4   3   16.40   10.20
  11   4   3   17.20   10.80
  11   4   3   23.80   17.40
  12  -4   3    5.50    8.30
  12   4   3    9.70   11.60
  12   4   3   -3.40    5.70
  12  -5  -3   -3.80    5.10
  12   5  -3    3.00    8.00
  12   5  -3    3.40   10.10
  11  -5  -3   34.00   14.30
  11   5  -3   23.30   15.00
  11   5  -3   80.79   23.30
  10  -5  -3   18.00   10.20
  10   5  -3   18.60   12.80
  10   5  -3    9.30   10.40
   9  -5  -3  206.38   23.70
   9   5  -3  179.68   29.20
  -9   5   3  167.38   19.90
   9   5  -3  154.98   24.00
   8  -5  -3   47.20   14.60
  -8   5   3   62.89   13.90
   8   5  -3   63.29   18.40
   8   5  -3   32.80   13.50
   7  -5  -3   -2.70    3.80
   7   5  -3   -2.00    4.00
  -7   5   3    1.40    4.40
   7   5  -3    6.00    7.90
   6  -5  -3  251.87   21.90
  -6  -5   3  221.38   23.50
   6   5  -3  242.08   27.00
   6   5  -3  222.08   24.40
  -6   5   3  206.88   18.70
   5  -5  -3  253.47   20.50
  -5  -5   3  191.78   21.30
   5   5  -3  229.68   30.40
   5   5  -3  175.18   21.60
  -5   5   3  214.78    8.80
  -5   5   3  240.48   18.90
  -5   5   3  216.58    9.20
   4  -5  -3   90.69   11.90
  -4  -5   3   86.19   13.50
  -4  -5   3   89.29   13.90
  -4   5   3   89.29    7.60
   4   5  -3   87.09   14.40
   4   5  -3   90.69   14.60
  -4   5   3   85.89    8.20
  -4   5   3  103.29   12.20
  -3  -5   3  576.24   33.70
   3  -5  -3  631.04   31.40
  -3  -5   3  703.43   37.40
   3   5  -3  605.44   36.30
  -3   5   3  624.74   31.10
  -3   5   3  619.44   27.70
   3   5  -3  636.34   36.20
   2  -5  -3  175.08   14.90
  -2  -5   3  174.58   17.20
  -2  -5   3  156.08   15.40
   2  -5  -3  170.98   15.20
   2   5  -3  155.68   16.90
  -2   5   3  156.68   14.90
  -2   5   3  156.08   14.30
   2   5  -3  172.08   16.50
   1  -5  -3 1736.93   61.19
  -1  -5   3 1778.52   58.49
  -1  -5   3 1783.22   63.19
   1   5  -3 1733.23   59.19
   1   5  -3 1699.43   63.29
  -1   5   3 1689.13   61.79
  -1   5   3 1760.62   58.59
  -1   5   3 1591.74   60.19
   0  -5   3  108.89   12.30
   0  -5   3  114.39   10.00
   0   5  -3  113.29   10.40
   0   5   3  132.99   14.70
   0   5  -3  113.09   12.70
   0   5   3  105.39   12.10
   0   5   3  110.49   13.20
   1  -5   3   26.40    7.30
   1   5   3   38.30   11.00
   1   5   3    9.70    5.40
  -1   5  -3   22.60    7.00
   1   5   3   27.50    8.30
  -1   5  -3   27.80    5.50
   2  -5   3   27.70    6.80
   2   5   3   35.20   11.00
   2   5   3   28.40    9.20
  -2   5  -3   30.60    7.60
   2   5   3   21.80    7.30
   3  -5   3  194.58   12.50
   3   5   3  182.88   19.10
   3   5   3  186.68   21.10
  -3   5  -3  173.78   12.80
   3   5   3  169.18   18.00
   4  -5   3   23.80    4.80
  -4   5  -3   35.10    6.30
   4   5   3   28.70   10.90
   4   5   3   42.30   12.40
   4   5   3   16.60    7.60
   5  -5   3  210.58    9.40
   5   5   3  198.08   28.10
   5   5   3  225.18   23.60
   5   5   3  199.88   22.20
   6  -5   3   14.10    4.80
   6   5   3   13.70    8.80
   6   5   3   12.10    8.80
   7  -5   3  168.18   14.10
   7   5   3  200.38   25.30
   7   5   3  144.19   20.80
   8  -5   3   -2.40    4.30
   8   5   3   -3.80    3.50
   8   5   3   -1.70    5.10
   9  -5   3   23.90    8.90
   9   5   3   31.10   15.10
   9   5   3   24.80   11.90
  10  -5   3   27.10   10.30
  10   5   3   38.20   16.70
  10   5   3   33.60   14.90
  11  -5   3  156.08   22.90
  11   5   3  121.79   27.60
  11   5   3  161.48   33.20
  12  -5   3   65.09   17.40
  12   5   3   28.40   15.30
  12   5   3   42.50   21.20
  12  -6  -3  196.08   26.50
  12   6  -3  199.28   32.70
  12   6  -3  172.48   37.60
  11  -6  -3    4.10    5.80
  11   6  -3    2.10    8.00
  11   6  -3    3.70    9.40
  10  -6  -3  267.57   28.10
  10   6  -3  330.37   37.00
  10   6  -3  327.37   41.40
 -10   6   3  268.77   25.70
   9   6  -3   19.10   19.60
   9   6  -3    8.50    9.60
   8  -6  -3   72.89   16.40
   8   6  -3   75.89   23.70
   8   6  -3   38.40   16.20
  -8   6   3   57.89   13.40
   7  -6  -3   10.50    7.80
   7   6  -3    7.80    9.60
   7   6  -3   16.40    9.40
  -7   6   3   -0.20    3.80
   6  -6  -3  182.78   18.80
   6   6  -3  167.78   22.40
   6   6  -3  149.39   22.70
  -6   6   3  176.18   16.90
   5  -6  -3   41.10   11.40
  -5  -6   3   23.10   10.10
  -5  -6   3   30.30   11.80
  -5   6   3   47.40   11.20
  -5   6   3   26.50    5.10
  -5   6   3   25.20    3.70
   5   6  -3   23.40   10.30
   5   6  -3   11.00    7.60
  -4  -6   3 2054.19   82.09
  -4  -6   3 1982.90   88.89
   4  -6  -3 1869.01   67.89
  -4   6   3 1834.82   60.09
  -4   6   3 1921.51   57.99
  -4   6   3 1969.90   68.09
   4   6  -3 1965.40   80.09
  -3  -6   3  260.07   23.30
  -3  -6   3  241.68   21.30
   3  -6  -3  227.18   18.40
   3   6  -3  271.27   24.70
  -3   6   3  242.48   17.80
  -3   6   3  244.08   16.00
   3   6  -3  247.28   22.60
  -3   6   3  236.28   18.80
  -2  -6   3  142.89   16.60
  -2  -6   3  129.09   14.30
   2  -6  -3  116.79   13.60
  -2   6   3  125.29   14.00
  -2   6   3  119.29   12.10
  -2   6   3  130.39   14.30
   2   6  -3  106.89   14.10
  -1  -6   3  752.32   34.50
  -1  -6   3  740.33   38.30
  -1   6   3  807.12   38.50
   1   6  -3  796.52   40.20
  -1   6   3  768.12   35.60
  -1   6   3  775.52   39.00
   1   6  -3  715.93   34.90
   0  -6   3  737.73   36.50
   0   6  -3  795.22   38.10
   0   6   3  712.73   36.10
   0   6  -3  761.12   32.10
   0   6   3  764.92   38.90
   0   6   3  686.63   38.80
   1  -6   3   31.60    8.40
  -1   6  -3   25.00    8.40
   1   6   3   33.70   10.90
   1   6   3   23.80    8.50
   1   6   3   38.50   11.40
  -1   6  -3   24.40    5.90
   2  -6   3 1032.30   40.50
   2   6   3  967.20   51.59
  -2   6  -3 1022.00   30.00
  -2   6  -3 1029.50   41.90
   2   6   3 1013.30   48.80
   2   6   3  990.50   46.80
  -2   6  -3 1041.80   31.00
   3  -6   3   13.60    4.50
   3   6   3   23.40    9.60
  -3   6  -3   27.10    7.30
   3   6   3   21.20    9.60
   3   6   3   14.80    8.80
   4  -6   3  124.49    9.40
   4   6   3  115.29   16.70
  -4   6  -3  120.39   10.10
   4   6   3   95.89   15.60
   4   6   3   79.59   19.00
   5   6   3  256.87   28.60
   5   6   3  324.07   28.90
  -5   6  -3  299.67   11.20
   5   6   3  356.76   30.70
   6   6   3   54.19   16.40
   6   6   3   26.70   11.60
   7   6   3  139.89   27.00
   7   6   3  137.19   22.10
   8  -6   3  356.26   20.00
   8   6   3  426.56   39.90
   8   6   3  381.76   36.20
   9  -6   3    6.30    5.20
   9   6   3    5.90    7.30
  10  -6   3  202.68   18.10
  10   6   3  198.68   28.50
  10   6   3  196.38   31.60
  11  -6   3    1.20    4.60
  11   6   3   -1.90    5.10
  11   6   3   -6.50    6.20
  12   6   3   22.80   17.80
  12   6   3    2.40    8.70
  12  -7  -3   56.29   18.00
  12   7  -3   53.49   24.70
  12   7  -3   84.29   28.10
  11  -7  -3   38.80   13.30
  11   7  -3   38.10   22.10
  11   7  -3   18.20   13.30
  10  -7  -3    3.60    6.00
 -10   7   3    4.00    5.90
  10   7  -3  -10.60    4.50
  10   7  -3   -2.70    6.20
   9  -7  -3   88.39   18.90
  -9   7   3   83.09   16.00
   9   7  -3   64.69   19.10
   9   7  -3   58.99   22.20
   8  -7  -3    9.00    6.10
   8   7  -3   -0.80    8.00
  -8   7   3   -0.40    3.60
   8   7  -3    5.40   10.00
   7  -7  -3  149.49   17.80
  -7   7   3  148.99   16.20
   7   7  -3  117.39   23.90
   7   7  -3  172.08   25.70
   6  -7  -3  291.37   23.30
   6   7  -3  351.46   33.90
  -6   7   3  287.07   21.90
   6   7  -3  267.27   30.60
   5  -7  -3   66.59   13.30
  -5   7   3   62.49    6.50
  -5   7   3   68.59   13.50
   5   7  -3   49.40   14.80
  -5   7   3   52.49    6.80
   5   7  -3   58.59   19.30
  -4  -7   3   98.69   16.20
   4  -7  -3   94.29   12.60
  -4  -7   3  106.39   16.00
  -4   7   3  118.59   13.70
   4   7  -3   85.59   19.20
   4   7  -3   70.69   17.10
  -4   7   3   95.89   11.10
  -4   7   3   93.09    9.60
  -3  -7   3  185.78   20.90
   3  -7  -3  168.08   16.70
  -3  -7   3  159.68   18.30
  -3   7   3  168.08   16.10
  -3   7   3  144.09   15.40
   3   7  -3  186.88   21.80
  -3   7   3  190.18   15.10
   3   7  -3  149.39   18.60
  -2  -7   3   12.20    6.20
  -2  -7   3    3.30    5.40
  -2   7   3    7.60    5.50
  -2   7   3   13.70    5.80
  -2   7   3    6.80    5.70
   2   7  -3    7.10    5.90
   2   7  -3   14.50    8.90
  -1  -7   3  181.48   18.60
  -1  -7   3  177.28   16.20
  -1   7   3  166.18   17.30
  -1   7   3  190.68   19.30
   1   7  -3  158.88   18.40
  -1   7   3  154.98   16.00
   1   7  -3  195.18   17.60
   0  -7   3    0.10    4.00
   0   7   3   -1.40    2.90
   0   7  -3    7.30    4.60
   0   7   3    2.30    4.00
   0   7  -3    0.50    3.80
   0   7   3    2.30    4.10
   1  -7   3  476.15   28.00
   1   7   3  476.25   31.80
   1   7   3  490.35   33.20
   1   7   3  462.15   33.90
  -1   7  -3  438.56   27.80
   2  -7   3   39.90    9.30
  -2   7  -3   25.60    8.30
  -2   7  -3   31.00    4.70
   2   7   3   34.20   12.10
   2   7   3   37.50   12.50
   2   7   3   56.09   13.70
  -2   7  -3   38.10    5.30
   3  -7   3   -3.20    2.00
   3   7   3    3.20    4.50
   3   7   3    6.10    6.80
   3   7   3    7.00    5.40
  -3   7  -3   10.20    5.50
   4  -7   3   46.90    7.10
   4   7   3   47.40   14.00
  -4   7  -3   63.79    8.80
   4   7   3   71.69   19.40
   4   7   3   45.00   13.00
   5   7   3  825.62   50.19
   5   7   3  758.92   48.40
  -5   7  -3  784.72   27.20
   6   7   3    1.00    4.70
   6   7   3    2.40    5.50
   7   7   3  360.46   35.10
   7   7   3  324.87   34.50
   8   7   3   40.60   17.20
   8   7   3   28.70   14.00
   9   7   3   96.29   24.50
   9   7   3  104.29   24.20
  10  -7   3   10.30    3.90
  10   7   3    6.60   12.30
  10   7   3   12.00    9.90
  11   7   3   27.80   16.20
  11   7   3   15.40   14.80
  12   7   3    3.30   10.80
  12   7   3   -3.60    8.00
  11  -8  -3    5.30    7.00
  11   8  -3   11.30   14.40
  11   8  -3   -0.30    7.90
  10  -8  -3   57.89   15.10
  10   8  -3   93.39   25.40
  10   8  -3   58.19   23.00
   9  -8  -3    6.20    7.00
   9   8  -3   -2.20    8.20
   9   8  -3   -3.00    6.40
  -9   8   3    6.40    6.20
   8  -8  -3    7.80    6.50
   8   8  -3   -6.00    4.70
   8   8  -3   -4.40    7.20
  -8   8   3   -2.60    3.50
   7  -8  -3   24.70    9.80
   7   8  -3   24.20   12.60
  -7   8   3   19.10    8.10
   7   8  -3   56.29   19.90
   6  -8  -3  753.22   38.40
   6   8  -3  778.42   53.19
   6   8  -3  736.43   52.19
  -6   8   3  685.83   35.80
   5  -8  -3  831.02   40.60
  -5   8   3  814.72   31.00
   5   8  -3  866.71   54.89
  -5   8   3  787.22   32.90
  -5   8   3  837.72   39.60
   5   8  -3  879.81   54.39
  -4  -8   3  329.97   28.80
   4  -8  -3  291.47   22.30
  -4   8   3  259.07   21.00
  -4   8   3  270.37   18.50
   4   8  -3  345.97   32.20
  -4   8   3  297.27   21.20
   4   8  -3  296.97   28.90
  -3  -8   3  159.98   20.70
  -3  -8   3  113.59   16.60
  -3   8   3  133.89   13.90
   3   8  -3   76.49   16.70
  -3   8   3  124.49   14.90
   3   8  -3  113.79   17.20
  -3   8   3  114.69   14.50
  -2  -8   3  106.79   16.40
  -2   8   3  127.59   16.10
  -2   8   3  110.79   13.90
   2   8  -3  107.29   15.50
  -2   8   3  109.69   14.40
   2   8  -3  120.29   18.00
  -1  -8   3  534.75   34.60
  -1   8   3  470.25   30.50
   1   8  -3  475.15   29.90
  -1   8   3  469.15   31.70
   1   8  -3  534.25   36.90
  -1   8   3  497.75   34.10
   0  -8   3  302.37   24.60
   0   8   3  285.17   25.50
   0   8   3  321.37   28.30
   0   8  -3  326.97   26.50
   0   8  -3  328.17   22.00
   0   8   3  284.37   24.40
   1  -8   3  194.58   18.60
   1   8   3  159.78   18.00
   1   8   3  204.88   24.10
  -1   8  -3  171.78   14.00
   1   8   3  237.78   23.70
  -1   8  -3  173.78   18.30
   2  -8   3  900.61   42.30
   2   8   3  998.90   56.49
  -2   8  -3  882.61   42.80
   2   8   3  861.91   49.70
   2   8   3  855.61   48.40
  -2   8  -3  969.10   34.70
  -2   8  -3  981.50   33.20
   3  -8   3   17.40    6.80
  -3   8  -3   30.10    8.80
   3   8   3   28.60   10.00
   3   8   3   30.50   13.70
   3   8   3   30.40   12.30
   4  -8   3  109.89   11.00
   4   8   3  163.38   22.10
  -4   8  -3   77.39   10.80
   4   8   3  122.49   19.10
   5   8   3   68.09   17.30
   5   8   3   81.29   19.40
  -5   8  -3   94.79    9.50
  -5   8  -3   99.09    9.70
   6   8   3   32.60   13.80
   6   8   3   16.70   11.70
   7   8   3   18.10   11.50
   7   8   3    7.50    7.60
   8   8   3  289.67   35.20
   8   8   3  354.36   37.50
   9   8   3   70.89   25.20
   9   8   3   55.59   19.90
  10   8   3  135.39   32.20
  10   8   3   87.49   27.20
  11   8   3    3.40   11.40
  11   8   3   25.70   16.70
  11   9  -3   -5.00    7.40
  11   9  -3   17.20   17.00
  10  -9  -3   16.90    8.40
  10   9  -3   17.40   16.90
  10   9  -3   16.60   13.70
   9  -9  -3   49.60   13.10
   9   9  -3  119.19   34.50
  -9   9   3   29.30    9.70
   9   9  -3   29.90   15.70
   8  -9  -3   88.69   16.20
  -8   9   3   80.09   12.00
   8   9  -3  126.79   30.80
   8   9  -3   94.99   25.50
   7  -9  -3  125.89   15.60
   7   9  -3  107.49   26.90
   7   9  -3  170.38   34.50
  -7   9   3  119.69   14.10
   6  -9  -3    9.80    6.50
   6   9  -3    0.10    7.40
   6   9  -3    6.60    9.70
  -6   9   3    5.40    5.40
   5  -9  -3  301.17   22.80
  -5   9   3  295.77   22.30
   5   9  -3  289.87   32.60
  -5   9   3  267.87   17.40
   5   9  -3  225.68   28.80
   4   9  -3  123.79   25.70
   4   9  -3  160.48   30.40
  -4   9   3  132.29   15.50
  -4   9   3  123.49   15.40
  -4   9   3  116.89   13.20
   3   9  -3    6.70    6.80
  -3   9   3   14.40    7.40
  -3   9   3   14.90    6.80
   3   9  -3   -1.30    5.00
  -3   9   3   15.60    8.20
  -2  -9   3  135.19   19.70
  -2   9   3  155.58   17.40
   2   9  -3  178.48   22.80
  -2   9   3  183.88   19.30
   2   9  -3  146.89   22.60
  -2   9   3  148.79   19.10
  -1  -9   3  146.09   19.40
  -1   9   3  148.09   18.50
  -1   9   3  142.69   19.30
   1   9  -3  175.38   21.10
  -1   9   3  155.08   18.20
   1   9  -3  195.58   19.50
   0   9   3   10.50    7.60
   0   9  -3   38.50   11.80
   0   9  -3   46.20   11.00
   0   9   3   39.70   11.70
   0   9   3   31.80   11.20
   1  -9   3  307.27   25.00
  -1   9  -3  277.17   24.50
  -1   9  -3  276.67   19.20
   1   9   3  314.97   27.90
   1   9   3  202.68   25.30
  -1   9  -3  279.47   20.50
   1   9   3  246.88   24.30
   2  -9   3    2.40    3.90
  -2   9  -3    1.30    2.50
   2   9   3   -1.80    2.80
  -2   9  -3   -3.50    2.60
   2   9   3   16.10    9.00
   2   9   3   -5.40    2.50
  -2   9  -3   -3.10    1.90
   2   9   3   -3.20    3.50
   3  -9   3  190.08   17.40
  -3   9  -3  180.68   18.20
  -3   9  -3  170.08    8.20
   3   9   3  184.78   23.60
   3   9   3  177.68   22.10
  -3   9  -3  189.88    8.90
   4   9   3   52.89   16.70
  -4   9  -3   43.00   11.50
   4   9   3   26.30   11.90
   5   9   3   78.59   19.60
  -5   9  -3   92.69   10.90
  -5   9  -3   85.39   10.40
   5   9   3  112.49   23.80
   6   9   3  235.58   29.80
   6   9   3  211.38   28.50
   7   9   3  293.07   34.60
   7   9   3  344.17   47.70
   8   9   3   64.59   21.20
   8   9   3   64.99   20.50
   9   9   3   -4.20    4.60
   9   9   3   -2.10    7.20
  10   9   3   32.90   17.60
  10   9   3   -2.70    7.00
  11   9   3  102.19   30.80
  11   9   3  100.99   32.60
  10 -10  -3   -2.00    4.10
  10  10  -3   -3.50    7.20
  10  10  -3    3.20   10.40
   9 -10  -3   15.90    6.90
   9  10  -3   -6.00    5.20
   9  10  -3    2.10   12.10
   8 -10  -3   15.00    7.00
  -8  10   3    9.20    5.10
   8  10  -3   16.50   12.60
   8  10  -3   -3.20    5.70
   7 -10  -3   68.09   13.20
   7  10  -3   88.09   25.30
  -7  10   3   59.89   12.00
   7  10  -3   83.69   27.00
  -6  10   3   98.39   13.10
   6  10  -3   98.19   26.40
  -6  10   3   84.39    9.00
  -6  10   3   81.89    7.90
   6  10  -3  105.19   25.90
   5  10  -3   96.59   22.70
  -5  10   3  134.39   13.70
  -5  10   3  115.29   13.90
   5  10  -3  201.48   27.40
  -5  10   3  149.19   16.20
  -4  10   3  536.95   33.10
   4  10  -3  540.75   42.70
   4  10  -3  596.94   47.00
  -4  10   3  519.65   30.60
  -4  10   3  489.55   32.50
   3  10  -3  137.29   22.70
  -3  10   3  134.49   16.30
  -3  10   3  113.99   16.10
   3  10  -3  139.49   20.50
  -3  10   3  109.19   16.70
   2  10  -3   -5.10    3.60
   2  10  -3   -2.50    4.30
  -2  10   3   -4.60    2.60
  -2  10   3    0.80    3.80
  -2  10   3   -2.70    3.50
  -1  10   3    0.50    4.70
   1  10  -3   -0.30    5.00
  -1  10   3    1.30    4.60
   1  10  -3    7.10    5.40
  -1  10   3    3.60    6.30
   0 -10   3  359.16   30.20
   0  10   3  360.56   33.50
   0  10   3  393.16   31.90
   0  10  -3  322.17   24.80
   0  10   3  331.67   27.50
   0  10  -3  377.36   31.80
   1 -10   3  230.98   22.90
   1  10   3  176.08   22.90
   1  10   3  163.18   20.40
  -1  10  -3  211.98   18.90
  -1  10  -3  195.88   17.10
  -1  10  -3  205.08   22.40
   1  10   3  178.88   23.00
   2 -10   3  447.96   31.00
  -2  10  -3  470.35   23.70
   2  10   3  472.15   36.10
   2  10   3  416.16   36.00
  -2  10  -3  434.46   32.20
   3 -10   3  173.18   17.70
  -3  10  -3  168.18   19.20
  -3  10  -3  179.68   10.60
   3  10   3  163.68   22.90
   3  10   3  182.58   24.80
   4  10   3    6.90    7.90
  -4  10  -3    8.90    6.80
   4  10   3   24.90   12.80
  -4  10  -3   39.00   11.40
  -5  10  -3   23.20    7.50
   5  10   3   47.80   17.80
  -5  10  -3   29.40    8.00
   5  10   3   15.60   10.70
   6  10   3   13.60   10.90
   6  10   3   12.10    9.10
   7  10   3   31.90   18.60
   8  10   3  114.99   31.10
   8  10   3  115.49   31.20
   9  10   3  144.39   35.30
   9  10   3   71.79   24.50
  10  10   3   98.99   30.10
  10  11  -3   46.80   21.20
  10  11  -3  101.29   32.00
   9  11  -3   16.10   16.70
   9  11  -3   15.30   14.30
   8  11  -3  235.18   35.50
   8  11  -3  289.97   39.30
  -8  11   3  223.78   17.40
   7  11  -3   12.60   11.80
   7  11  -3   -1.00    9.30
  -7  11   3    7.30    5.50
   6  11  -3   28.70   27.20
   6  11  -3   26.50   14.70
  -6  11   3   25.20    6.60
  -6  11   3   23.00    7.90
  -6  11   3   14.90    5.90
   5  11  -3   60.89   21.40
   5  11  -3   77.29   23.10
  -5  11   3   74.99   11.30
  -5  11   3   65.79   14.90
  -5  11   3   73.59   15.00
   4  11  -3   -1.40    7.30
  -4  11   3   12.60    7.60
   4  11  -3   22.10   12.70
  -4  11   3    4.80    5.30
  -4  11   3    8.90    6.90
   3  11  -3    4.70    7.90
   3  11  -3   25.00   13.20
  -3  11   3    3.80    7.00
  -3  11   3   26.00   11.10
  -3  11   3   14.40    8.00
   2  11  -3  469.05   40.60
  -2  11   3  474.35   37.90
  -2  11   3  474.95   34.90
  -2  11   3  464.65   34.20
   2  11  -3  511.05   37.80
  -1  11   3    6.00    6.40
  -1  11   3    1.40    4.60
  -1  11   3    0.20    6.20
   1  11  -3   21.60   11.00
   1  11  -3   13.70    7.10
  -1  11   3    3.20    6.30
   0  11   3   39.90   15.40
   0  11   3   44.50   13.80
   0  11  -3   53.59   13.30
   0  11  -3   59.59   16.40
   0  11  -3   31.40   11.20
   0  11   3   46.30   13.40
   1 -11   3    2.50    5.30
  -1  11  -3   -2.00    3.60
   1  11   3    8.30    7.10
   1  11   3    0.40    5.30
  -1  11  -3   -0.80    3.50
  -1  11  -3    7.10    7.50
   2 -11   3   44.20   13.40
   2  11   3   50.99   17.40
   2  11   3   38.40   15.00
  -2  11  -3   49.10   15.30
  -2  11  -3   41.60    9.90
  -2  11  -3   45.80   10.70
  -3  11  -3   24.30   11.30
  -3  11  -3    7.00    3.60
   3  11   3    1.60    7.30
   3  11   3    9.90    8.90
  -3  11  -3    6.50    7.30
  -3  11  -3    4.60    3.40
  -4  11  -3  230.08   21.80
   4  11   3  262.77   30.90
  -4  11  -3  249.78   23.70
   4  11   3  267.47   32.30
  -5  11  -3    7.00    5.40
   5  11   3   -2.60    7.30
   5  11   3    8.00    8.90
  -5  11  -3   16.70    7.40
   6  11   3  360.26   40.10
  -6  11  -3  269.87   17.40
  -6  11  -3  291.37   14.90
   6  11   3  291.37   35.70
   7  11   3   65.99   22.60
   7  11   3   72.19   24.10
   8  11   3   23.60   15.00
   8  11   3   57.19   22.70
   9  11   3    0.10    6.80
   9  11   3    4.40   10.30
  10  11   3   -3.70   11.30
  10  11   3    8.10   15.10
   9  12  -3   93.69   32.00
   9  12  -3   46.10   22.60
   8  12  -3   12.30   10.50
   8  12  -3    2.20   11.80
   7  12  -3   12.80   13.30
   7  12  -3   32.70   15.60
  -7  12   3   33.10    9.10
  -6  12   3   26.10    8.80
   6  12  -3   30.20   17.40
  -6  12   3   22.60    7.00
   6  12  -3   56.49   21.80
  -5  12   3  250.87   23.40
   5  12  -3  307.27   36.10
  -5  12   3  289.97   22.90
  -5  12   3  246.88   22.00
   5  12  -3  289.97   37.00
  -4  12   3   30.40   13.00
  -4  12   3   36.70   12.40
  -4  12   3   40.20   13.50
   4  12  -3   33.20   13.80
  -3  12   3  187.28   19.10
   3  12  -3  230.38   28.00
  -3  12   3  190.28   21.80
  -3  12   3  210.08   25.30
  -3  12   3  201.68   22.50
   3  12  -3  183.78   28.20
  -2  12   3   -0.70    3.40
  -2  12   3    1.70    6.70
   2  12  -3    8.40    8.40
   2  12  -3    1.80    7.00
  -2  12   3    7.80    7.60
  -1  12   3    4.90    5.10
   1  12  -3   -3.70    3.40
   1  12  -3   10.30    9.40
  -1  12   3   -3.70    3.80
  -1  12   3   -1.70    3.40
   0  12  -3  120.69   24.60
   0  12  -3   79.99   22.80
   0  12   3   86.59   21.00
   0  12   3  101.59   21.40
   0  12  -3  100.79   16.50
  -1  12  -3  168.38   23.40
   1  12   3  179.98   22.80
  -1  12  -3  143.39   18.10
  -1  12  -3  140.29   16.70
   1  12   3  140.39   28.40
  -2  12  -3    0.20    3.80
  -2  12  -3   10.20    5.30
  -2  12  -3    3.00    5.80
   2  12   3    1.00    6.10
   2  12   3   -8.80    3.60
  -2  12  -3   18.10    9.80
  -3  12  -3  372.36   19.00
   3  12   3  390.56   36.90
  -3  12  -3  394.86   18.60
  -3  12  -3  356.86   31.00
  -3  12  -3  393.36   33.90
   3  12   3  398.76   39.80
   4  12   3   -2.20    6.40
  -4  12  -3   14.50    9.50
  -4  12  -3   -1.00    4.20
   4  12   3    0.70    7.90
   5  12   3    4.20    8.50
  -5  12  -3    8.00    6.10
  -5  12  -3   14.10    7.90
   5  12   3   14.80   11.80
  -6  12  -3   69.99    8.90
   6  12   3   71.19   23.50
   6  12   3   77.59   22.80
  -6  12  -3   58.79    8.50
   7  12   3   -0.30    8.40
   7  12   3    2.60    8.90
   8  12   3   25.60   18.00
   8  12   3   28.10   16.80
   9  12   3   37.40   22.20
   9  12   3   53.89   24.50
   8  13  -3  130.49   32.10
   8  13  -3  116.79   32.80
  -7  13   3    3.50    4.40
   7  13  -3  -10.30    5.50
   7  13  -3    0.20    8.00
  -6  13   3   -0.50    6.90
  -6  13   3    7.30    4.70
   6  13  -3   10.70   12.00
  -6  13   3   10.00    8.40
  -6  13   3    0.00    4.00
   6  13  -3    8.80   10.60
  -5  13   3    7.60    6.90
   5  13  -3   29.10   17.20
  -5  13   3   25.10    9.30
   5  13  -3   -1.70    7.20
  -5  13   3   19.00    9.10
  -5  13   3   22.20    8.20
   4  13  -3   17.00   14.10
  -4  13   3    6.80    7.20
  -4  13   3   10.60    7.90
  -4  13   3   17.20    8.60
  -4  13   3   24.70   11.30
   4  13  -3   31.30   15.30
  -3  13   3    9.10    6.80
   3  13  -3   -5.10    4.40
   3  13  -3   -4.20    4.90
  -3  13   3   -1.30    4.00
  -2  13   3  244.58   27.20
   2  13  -3  201.38   29.80
  -2  13   3  232.48   26.20
   2  13  -3  236.38   27.80
  -2  13   3  239.38   23.40
  -1  13   3   28.80   13.30
  -1  13   3   30.00   12.00
   1  13  -3   13.00    9.10
   1  13  -3    5.10    7.70
   0  13  -3  114.19   24.80
   0  13  -3   90.09   19.90
   0  13   3  142.79   22.80
   0  13  -3  127.39   18.30
   0  13   3  123.89   19.50
   1  13   3    7.90    6.70
  -1  13  -3    1.20    4.10
   1  13   3   -0.70    6.10
  -1  13  -3   13.40    7.80
  -1  13  -3   -5.90    5.20
   2  13   3   94.79   25.40
   2  13   3   66.99   18.80
  -2  13  -3   36.30   14.10
  -2  13  -3   83.69   12.20
  -2  13  -3   83.79   12.80
  -3  13  -3   19.50    5.70
   3  13   3   11.20   11.40
  -3  13  -3   25.50    6.40
   3  13   3   12.00   10.80
  -3  13  -3   18.10   10.40
  -4  13  -3   74.49   18.00
   4  13   3   44.70   18.60
  -4  13  -3   42.50   14.20
   4  13   3   39.90   16.80
   5  13   3    5.50    8.70
   5  13   3   -1.10    7.20
  -5  13  -3    2.00    5.50
  -5  13  -3   -3.20    4.70
   6  13   3  114.49   31.00
  -6  13  -3  148.79   13.80
   6  13   3  146.79   32.40
   7  13   3    5.70   11.00
   7  13   3   -7.20    5.60
   8  13   3   60.19   30.10
   8  13   3   65.29   28.30
   7  14  -3   48.30   37.80
   7  14  -3   13.70   13.30
  -6  14   3   69.89    9.40
   6  14  -3   73.79   27.30
   6  14  -3   60.99   22.50
  -6  14   3   78.59   12.10
  -5  14   3  442.06   26.90
   5  14  -3  454.85   49.60
   5  14  -3  375.76   42.80
  -5  14   3  457.55   32.70
  -4  14   3   11.20    8.10
   4  14  -3   -4.80    8.00
  -4  14   3    9.50    8.20
   4  14  -3   25.50   16.80
  -4  14   3   11.40    8.60
  -3  14   3  117.59   19.50
   3  14  -3  150.38   30.60
   3  14  -3   98.09   28.60
  -3  14   3   91.89   14.90
  -3  14   3  128.49   19.80
  -2  14   3   -0.10    7.00
  -2  14   3   12.60    9.30
   2  14  -3    5.90    7.20
   2  14  -3    7.20   10.60
  -1  14   3   10.90    8.60
  -1  14   3   -4.50    4.00
   1  14  -3   -4.40    5.60
   0  14   3   -2.40    5.30
   0  14   3   -3.70    3.50
   0  14  -3   -2.20    4.70
   0  14  -3   -1.10    4.80
   0  14  -3    8.70    9.40
  -1  14  -3  392.46   38.50
   1  14   3  388.16   43.30
  -1  14  -3  322.37   29.20
   1  14   3  398.06   36.40
   2  14   3   -6.70    4.90
  -2  14  -3   -6.40    4.90
   2  14   3   17.30   11.60
  -2  14  -3    5.20    5.60
  -2  14  -3    0.70    5.30
  -3  14  -3  238.28   14.50
  -3  14  -3  255.57   15.50
   3  14   3  235.08   31.40
  -3  14  -3  267.47   29.60
   3  14   3  263.07   35.20
  -4  14  -3    8.50    7.90
   4  14   3   -0.50    6.50
   4  14   3   -7.20    5.00
   5  14   3   -1.70    6.50
   5  14   3    7.30   11.80
   6  14   3    0.80    6.20
  -6  14  -3    1.10    4.20
   6  14   3   -6.60    5.60
   7  14   3   26.50   14.80
   7  14   3   15.50   21.50
   6  15  -3   -6.80    7.60
   6  15  -3    6.80   13.10
   5  15  -3   -0.20    8.70
   5  15  -3   -2.80    7.30
  -5  15   3    5.70    4.50
  -5  15   3   -7.30    4.50
   4  15  -3   -5.00    5.80
   4  15  -3    1.00   11.20
  -4  15   3    8.90    8.50
  -4  15   3    0.70    5.50
  -3  15   3   31.70   13.80
  -3  15   3   11.60    7.00
   3  15  -3    9.00   10.20
   3  15  -3   38.50   17.80
   2  15  -3   40.10   16.70
  -2  15   3   37.70   13.00
   2  15  -3   28.90   16.40
  -2  15   3   17.60   11.20
  -1  15   3   75.69   19.30
   1  15  -3   73.49   20.20
   1  15  -3   42.70   18.00
  -1  15   3   81.59   29.80
   0  15   3   81.79   23.70
   0  15  -3   57.29   20.30
   0  15   3   56.69   17.90
   0  15  -3   91.59   20.80
  -1  15  -3   -6.10    6.20
   1  15   3   -4.40    4.80
  -1  15  -3    4.80    9.20
  -1  15  -3   12.70    7.80
   1  15   3   13.40   11.40
  -2  15  -3   -2.90    4.00
  -2  15  -3   -6.40    5.30
   2  15   3   -1.50    6.80
   2  15   3    2.00    8.30
   3  15   3   20.70   13.00
  -3  15  -3   27.20    7.00
  -3  15  -3    6.50    7.90
   3  15   3   13.30   13.40
  -4  15  -3    1.10    7.50
   4  15   3   25.60   14.90
   4  15   3    2.00    8.10
   5  15   3   33.80   17.40
   5  15   3   79.79   28.00
  -5  15  -3   52.79   15.70
   6  15   3   54.49   21.40
   6  15   3   60.89   23.40
   5  16  -3  108.59   35.00
   5  16  -3  111.99   30.80
  -5  16   3   86.89   22.70
  -4  16   3   91.39   21.30
   4  16  -3   59.99   23.30
   4  16  -3   55.49   24.70
  -4  16   3   61.69   14.80
  -3  16   3    4.10    6.80
   3  16  -3    8.60    9.60
   3  16  -3   10.30   12.40
  -3  16   3   18.50   13.30
  -2  16   3   59.39   20.20
  -2  16   3   89.49   21.00
   2  16  -3   89.69   28.30
   2  16  -3   94.09   37.60
  -1  16   3    1.90    7.50
   1  16  -3   -4.60    7.20
  -1  16   3   14.60    9.60
   1  16  -3    0.70    8.60
   0  16  -3   13.50   14.40
   0  16  -3   -1.60    6.10
   0  16   3    0.70    7.10
   0  16   3   25.70   15.90
  -1  16  -3   26.50   11.10
  -1  16  -3   55.19   21.00
   1  16   3   31.70   16.20
   1  16   3   22.90   13.90
   2  16   3   20.50   13.70
  -2  16  -3    1.60    5.60
   2  16   3    0.50    6.40
  -2  16  -3    4.10    9.20
   3  16   3  241.18   36.90
   3  16   3  212.68   32.00
  -3  16  -3  230.68   31.10
  -4  16  -3    1.60    6.90
   4  16   3   -9.20    8.10
   4  16   3   14.00   11.30
  -2  17   3    6.10   10.20
   2  17  -3   -7.40    7.00
   2  17  -3    1.50    7.10
  -2  17   3   -0.10    5.10
  -1  17   3    9.50   11.40
  -1  17   3   21.50   11.50
   1  17  -3   16.10   13.60
   1  17  -3   38.90   19.50
   0  17  -3   80.99   26.30
   0  17   3   58.49   18.90
   0  17   3   30.70   15.80
   0  17  -3   22.60   12.30
  -1  17  -3   28.60   12.50
  -1  17  -3   33.90   19.80
   1  17   3   24.70   14.40
   1  17   3   16.00   13.90
  -2  17  -3   82.89   24.50
   2  17   3  100.59   27.70
   2  17   3   54.49   21.60
  13   0  -4   -1.10    9.20
  12   0  -4   66.29   15.90
  12   0  -4   52.79   22.90
  11   0  -4   -1.70    4.30
  11   0  -4   -2.80    4.20
  11   0  -4   -7.80    5.00
  10   0  -4   88.09   17.80
  10   0  -4   98.09   26.50
  10   0  -4   86.79   18.10
   9   0  -4    3.00    8.40
   9   0  -4    2.70    6.50
  -9   0   4    4.90    4.70
   8   0  -4   96.69   14.40
  -8   0   4   96.69   12.90
   8   0  -4  116.39   25.10
  -7   0   4    7.30    6.70
   7   0  -4   -6.80    3.20
   7   0  -4   -4.30    3.70
  -7   0   4    0.10    2.40
  -6   0   4  641.64   31.90
   6   0  -4  632.44   33.30
  -6   0   4  702.13   39.80
   6   0  -4  671.53   41.10
   5   0  -4   -4.40    3.10
  -5   0   4    4.80    3.90
  -5   0   4    0.80    3.30
   5   0  -4    7.50    6.80
   4   0  -4  412.36   23.90
  -4   0   4  414.86   26.50
  -4   0   4  432.86   26.60
   4   0  -4  489.25   29.70
   3   0  -4   -2.30    2.60
  -3   0   4   -1.80    2.90
  -3   0   4    2.50    3.50
   3   0  -4    1.00    3.20
   2   0  -4  629.34   29.70
  -2   0   4  608.64   28.70
   2   0  -4  621.34   27.70
  -2   0   4  618.24   26.80
  -1   0   4   -2.70    2.80
  -1   0   4    2.40    4.00
   1   0  -4    0.20    3.10
   1   0  -4    3.80    4.50
   0   0   4 1262.07   42.50
   0   0  -4 1216.98   42.20
   0   0  -4 1214.38   41.50
   0   0   4 1216.98   41.20
  -1   0  -4   -3.40    2.40
  -1   0  -4    0.40    2.90
   1   0   4   -2.10    2.50
   1   0   4    0.40    2.90
   2   0   4  109.09   10.70
   2   0   4  142.39   12.50
  -2   0  -4  143.59   12.50
  -3   0  -4    3.80    3.70
   3   0   4   -1.10    2.70
   3   0   4   -3.00    2.10
   4   0   4 3731.73  106.59
  -4   0  -4 3572.74  107.69
   5   0   4    3.10    4.10
   5   0   4   -1.00    2.50
   5   0   4   -1.30    2.00
   6   0   4    5.00    4.90
   6   0   4   20.00    7.00
   6   0   4   21.20    8.80
   7   0   4    7.50    4.90
   7   0   4   -0.30    4.20
   7   0   4   -1.10    2.80
   8   0   4   19.10    8.60
   8   0   4   17.60    9.00
   8   0   4   30.50    9.10
   9   0   4    4.60    7.80
   9   0   4   -0.20    5.10
   9   0   4    3.00    4.90
  10   0   4  293.37   31.50
  10   0   4  311.07   24.70
  10   0   4  291.47   26.30
  11   0   4    9.10    7.60
  11   0   4    8.60    7.80
  11   0   4    0.10    7.20
  12   0   4  159.58   18.60
  13   0   4   -2.80    7.10
  13  -1  -4   79.19   27.70
  13   1  -4   75.59   26.90
  13   1  -4   67.19   17.10
  12  -1  -4    5.10    4.70
  12  -1  -4   -3.20    7.40
  12   1  -4   11.70   11.70
  12   1  -4    0.60    6.20
  11  -1  -4   12.50    7.30
  11  -1  -4   13.50    6.90
  11  -1  -4   23.60   13.70
  11   1  -4   22.10   11.30
  11   1  -4    1.60   11.70
  11   1  -4    6.70    8.60
  10  -1  -4   10.50    6.20
  10  -1  -4   24.40    9.20
  10  -1  -4   31.10   15.00
  10   1  -4   17.60   10.70
  10   1  -4   -1.60    5.70
  10   1  -4   50.79   18.80
   9  -1  -4  377.26   35.90
   9  -1  -4  410.96   26.90
  -9  -1   4  353.36   27.20
   9   1  -4  312.97   27.90
   9   1  -4  377.26   37.50
   8  -1  -4  509.55   29.60
  -8  -1   4  590.54   34.40
   8  -1  -4  502.85   39.70
   8   1  -4  535.35   42.30
  -8   1   4  509.45   27.60
  -8   1   4  481.85   35.90
   8   1  -4  537.95   34.80
   7  -1  -4 1021.30   43.20
  -7  -1   4 1038.30   47.00
   7  -1  -4  975.90   55.29
  -7  -1   4 1031.10   53.79
  -7   1   4 1036.80   61.69
  -7   1   4  985.50   40.80
   7   1  -4 1032.80   48.60
   7   1  -4  964.60   55.49
   6  -1  -4   13.40    7.80
  -6  -1   4   15.80    6.50
   6  -1  -4   24.30    7.50
  -6  -1   4   13.40    7.30
  -6   1   4    6.00    5.40
   6   1  -4   19.20    9.90
  -6   1   4   22.80    6.70
   6   1  -4   15.60    8.10
   5  -1  -4  203.08   20.60
  -5  -1   4  233.48   18.40
  -5  -1   4  253.27   22.30
   5  -1  -4  252.97   17.60
   5   1  -4  258.77   20.40
  -5   1   4  255.17   16.50
   5   1  -4  239.68   22.80
  -5   1   4  258.27   21.40
  -4  -1   4    5.80    4.30
  -4  -1   4   -2.60    3.10
   4  -1  -4   -1.50    3.00
   4  -1  -4    6.50    6.50
  -4   1   4    0.70    3.90
   4   1  -4   -4.20    2.30
   4   1  -4   -2.90    4.00
  -4   1   4    2.50    3.40
  -3  -1   4  579.44   39.00
   3  -1  -4  574.54   30.30
  -3  -1   4  588.94   30.30
   3  -1  -4  598.24   26.40
   3   1  -4  568.24   28.40
  -3   1   4  579.84   29.50
  -3   1   4  568.24   25.10
   3   1  -4  568.04   30.80
  -2  -1   4  240.58   17.50
   2  -1  -4  216.08   16.40
  -2  -1   4  203.88   15.10
   2  -1  -4  220.28   14.80
   2   1  -4  204.28   15.60
   2   1  -4  187.18   15.70
  -2   1   4  214.58   14.30
  -2   1   4  240.08   16.80
   1  -1  -4  370.06   19.80
   1  -1  -4  383.56   20.90
  -1  -1   4  354.56   19.60
  -1  -1   4  404.66   20.50
  -1   1   4  351.76   19.30
  -1   1   4  377.26   20.50
   1   1  -4  398.46   20.60
   1   1  -4  405.36   21.10
   0  -1   4 4022.30  126.09
   0  -1  -4 3891.21  128.09
   0   1  -4 3911.11  123.19
   0   1   4 4158.48  130.79
  -1  -1  -4  865.71   34.70
  -1  -1  -4  837.82   35.20
   1  -1   4  902.31   30.70
   1  -1   4  873.91   33.20
  -1   1  -4  895.01   33.70
   1   1   4  897.01   34.70
  -1   1  -4  887.21   30.80
   1   1   4  885.41   35.50
   2  -1   4 1487.35   46.10
  -2  -1  -4 1547.85   53.39
   2  -1   4 1450.35   48.50
   2   1   4 1417.06   51.89
   2   1   4 1442.46   51.49
  -2   1  -4 1454.85   48.70
   3  -1   4   43.20    8.70
  -3  -1  -4   38.70    8.90
   3  -1   4   40.50    6.10
   3   1   4   40.00    9.00
  -3   1  -4   38.60    8.30
   3   1   4   44.00    9.70
  -4  -1  -4    6.10    5.50
   4  -1   4   25.40    7.40
   4  -1   4    9.20    5.10
  -4   1  -4   15.90    6.00
   4   1   4   13.00    5.80
   4   1   4   10.30    6.00
   5  -1   4  750.82   33.40
   5  -1   4  699.83   33.10
   5   1   4  725.53   34.80
  -5   1  -4  710.43   33.00
   5   1   4  721.83   37.80
   5   1   4  722.53   37.10
   6  -1   4  115.29   11.40
   6  -1   4  104.59   13.10
   6  -1   4   93.99   11.80
   6   1   4  126.39   14.20
   6   1   4   97.59   14.10
   6   1   4  103.79   15.00
   7  -1   4  164.78   16.00
   7  -1   4  135.89   16.80
   7  -1   4  167.28   14.40
   7   1   4  181.38   19.80
   7   1   4  139.69   16.20
   7   1   4  175.18   21.00
   8  -1   4   34.80   12.60
   8  -1   4   19.50    7.50
   8  -1   4   20.40    7.40
   8   1   4   41.30   13.30
   8   1   4   40.80   12.00
   8   1   4   52.69   15.80
   9  -1   4    1.60    3.80
   9  -1   4   23.40   11.30
   9  -1   4    0.60    4.10
   9   1   4    0.70    4.70
   9   1   4   14.50    9.30
   9   1   4   -2.10    3.50
  10  -1   4   21.30   11.50
  10  -1   4    5.40    5.20
  10  -1   4   16.00    6.90
  10   1   4   10.00    8.50
  10   1   4    7.90    6.70
  10   1   4   -6.30    3.60
  11  -1   4   10.40    6.30
  11  -1   4   -2.40    3.40
  11  -1   4   12.90    9.80
  11   1   4    5.70    9.60
  11   1   4    8.00    8.20
  11   1   4   -0.40    4.10
  12  -1   4    5.00    4.70
  12  -1   4   -5.00    6.20
  12   1   4   10.60   11.90
  12   1   4   16.20    9.70
  13  -1   4  184.98   29.70
  13   1   4  145.19   32.70
  13   1   4  168.88   21.90
  13  -2  -4   11.00   13.40
  13   2  -4   31.90   14.70
  13   2  -4   20.60   15.10
  12  -2  -4   98.09   26.20
  12   2  -4   67.39   25.90
  12   2  -4  158.78   23.60
  11  -2  -4  106.49   10.20
  11  -2  -4  104.99   10.30
  11  -2  -4   81.09   23.90
  11   2  -4  105.49   21.30
  11   2  -4   98.89   25.60
  10  -2  -4   27.70    7.70
  10  -2  -4   45.80   16.80
  10   2  -4   43.70   15.40
  10   2  -4   25.20   12.30
  10   2  -4    5.10   10.70
   9  -2  -4   21.40   12.10
   9  -2  -4   37.20    9.10
  -9  -2   4   26.70   10.20
   9  -2  -4   30.80    9.70
   9   2  -4   29.50   16.20
   9   2  -4    9.80    8.50
   8  -2  -4   12.20    5.50
  -8  -2   4   16.70    9.30
   8  -2  -4   19.70   10.70
   8   2  -4    9.00    9.70
   8   2  -4   12.80    8.20
  -8   2   4   25.90   11.30
   7  -2  -4  163.38   14.00
  -7  -2   4  120.39   15.60
   7  -2  -4  119.89   23.20
  -7  -2   4  184.78   22.00
   7   2  -4  129.49   17.70
  -7   2   4  136.19   11.80
   7   2  -4  138.89   21.30
  -7   2   4  140.89   17.80
   6  -2  -4   54.99   10.00
  -6  -2   4   65.99   16.10
   6  -2  -4   50.19   14.50
  -6  -2   4   57.19   12.90
  -6   2   4   40.70   11.20
   6   2  -4   82.79   19.10
  -6   2   4   51.19    7.10
   6   2  -4   57.29   13.50
   5  -2  -4   48.20    9.40
  -5  -2   4   54.19   12.70
   5  -2  -4   22.20    9.40
  -5  -2   4   31.90    8.60
  -5   2   4   37.00    7.30
  -5   2   4   39.60   10.50
   5   2  -4   40.80   11.00
   5   2  -4   51.89   13.00
  -4  -2   4 3093.99   95.19
  -4  -2   4 3016.40   98.59
   4  -2  -4 3006.40   96.79
   4  -2  -4 2886.91   86.19
  -4   2   4 3050.09   84.99
   4   2  -4 2977.60  100.19
  -4   2   4 2967.00   94.49
   4   2  -4 3077.39   96.59
  -3  -2   4    5.60    4.70
   3  -2  -4    1.30    3.10
  -3  -2   4   -3.70    2.00
   3  -2  -4    0.70    4.10
  -3   2   4    0.40    2.70
   3   2  -4    5.20    4.60
  -3   2   4    5.40    4.50
   3   2  -4    4.00    4.40
   2  -2  -4   56.09    9.00
  -2  -2   4   65.79   12.30
  -2  -2   4   60.69    9.20
   2  -2  -4   48.20    7.40
   2   2  -4   63.19    9.70
  -2   2   4   64.79   11.80
   2   2  -4   38.40    8.30
  -2   2   4   53.59    7.80
  -1  -2   4  624.84   27.90
   1  -2  -4  696.33   29.50
  -1  -2   4  684.63   30.00
  -1   2   4  678.13   29.10
   1   2  -4  699.03   30.80
  -1   2   4  680.83   30.50
   1   2  -4  677.13   29.20
   0  -2   4  858.21   33.00
   0  -2  -4  821.82   34.30
   0  -2  -4  783.42   33.70
   0  -2   4  853.11   29.80
   0   2  -4  863.21   33.70
   0   2   4  828.72   34.50
   0   2   4  781.52   33.70
   0   2  -4  774.52   29.50
   1  -2   4  547.25   24.30
  -1  -2  -4  533.85   27.80
  -1  -2  -4  540.05   27.20
   1  -2   4  550.64   20.20
   1   2   4  569.44   28.00
  -1   2  -4  547.25   20.70
  -1   2  -4  581.04   25.40
   1   2   4  515.55   27.60
   2  -2   4 8057.99  256.27
   2   2   4 8186.38  246.78
  -2   2  -4 8198.58  253.67
   3  -2   4    1.20    2.30
   3  -2   4    3.50    3.20
   3  -2   4    2.30    2.30
  -3  -2  -4    4.70    4.90
  -3   2  -4    3.20    3.50
   3   2   4    4.50    4.70
   3   2   4    6.50    4.60
  -4  -2  -4 1837.82   69.89
   4  -2   4 1827.42   57.79
   4  -2   4 1803.62   56.19
  -4   2  -4 1904.11   58.59
   4   2   4 1860.71   70.09
   4   2   4 1886.61   65.79
   4   2   4 1746.33   65.69
   5  -2   4  572.24   26.10
   5  -2   4  569.34   27.20
  -5   2  -4  566.34   26.20
   5   2   4  548.85   33.40
   5   2   4  635.74   36.80
   5   2   4  545.95   31.60
   6  -2   4   -2.00    2.30
   6  -2   4   10.80    6.00
   6  -2   4    5.90    3.80
   6   2   4    1.30    4.10
   6   2   4    8.70    5.50
   6   2   4    2.30    3.70
   7  -2   4    8.10    4.20
   7  -2   4    9.50    6.70
   7  -2   4   10.10    5.30
   7   2   4    4.20    5.00
   7   2   4   -2.80    3.00
   7   2   4   -2.10    4.20
   8  -2   4   43.40    8.30
   8  -2   4   24.20   10.10
   8  -2   4   21.90    9.30
   8   2   4   16.40   11.20
   8   2   4   60.89   19.50
   9  -2   4   -3.70    4.10
   9  -2   4    4.30    4.30
   9   2   4    7.90    6.90
   9   2   4    5.40    6.90
   9   2   4    1.40    6.30
  10  -2   4  337.17   31.30
  10  -2   4  408.06   24.30
  10  -2   4  346.87   19.40
  10   2   4  429.86   33.40
  10   2   4  332.37   35.90
  10   2   4  386.36   42.50
  11  -2   4  100.79    8.50
  11  -2   4   74.49   20.20
  11   2   4   98.99   21.00
  11   2   4   91.99   35.50
  12  -2   4   61.19   20.10
  12   2   4   29.70   16.70
  12   2   4   62.59   18.00
  13  -2   4   19.30   17.50
  13   2   4   29.90   14.00
  13   2   4   43.30   22.90
  13  -3  -4   69.79   23.70
  13   3  -4   80.49   21.50
  13   3  -4   68.39   26.20
  12  -3  -4   31.20   16.00
  12   3  -4   15.20   15.20
  12   3  -4    7.80    9.40
  11  -3  -4  112.69   26.80
  11   3  -4   90.09   25.90
  11   3  -4  130.29   26.70
  10  -3  -4   28.90   14.20
  10   3  -4   55.69   18.00
  10   3  -4   10.00   11.70
   9  -3  -4  269.07   14.90
   9  -3  -4  248.18   28.30
   9  -3  -4  232.68   11.70
   9   3  -4  263.67   33.20
   9   3  -4  237.88   27.20
   8  -3  -4  107.29    9.40
  -8  -3   4  105.99   16.50
   8  -3  -4  137.19   20.60
   8  -3  -4  100.69    8.80
   8   3  -4  112.99   18.40
  -8   3   4  103.39   16.30
   8   3  -4  129.49   26.70
   7  -3  -4  366.16   18.50
   7  -3  -4  368.06   30.40
  -7  -3   4  329.57   35.00
  -7   3   4  365.36   28.50
  -7   3   4  367.26   17.10
   7   3  -4  382.86   34.50
   6  -3  -4  483.25   33.00
  -6  -3   4  484.95   35.00
   6  -3  -4  456.05   21.70
  -6  -3   4  487.55   32.00
  -6   3   4  492.75   20.60
   6   3  -4  509.85   37.80
   6   3  -4  502.15   34.00
  -6   3   4  527.95   32.20
   5  -3  -4  401.76   27.80
  -5  -3   4  370.46   26.70
   5  -3  -4  408.56   19.80
  -5  -3   4  379.96   28.80
  -5   3   4  391.26   18.20
  -5   3   4  389.66   26.20
   5   3  -4  387.16   30.60
   5   3  -4  345.27   26.80
  -4  -3   4  944.41   43.20
   4  -3  -4  910.41   33.80
   4  -3  -4  917.51   42.20
  -4  -3   4  894.51   43.60
  -4   3   4  871.01   32.40
  -4   3   4  876.61   40.40
   4   3  -4  918.01   44.10
   4   3  -4  902.11   45.70
  -3  -3   4   19.00    7.20
  -3  -3   4   18.90    7.50
   3  -3  -4    9.20    4.60
   3  -3  -4    9.30    5.10
   3   3  -4    9.90    5.90
  -3   3   4    4.10    3.60
   3   3  -4    4.70    5.10
  -3   3   4   17.10    6.40
  -2  -3   4  286.87   20.30
   2  -3  -4  267.87   19.30
   2  -3  -4  288.37   18.00
  -2  -3   4  298.87   19.90
  -2   3   4  317.17   23.90
  -2   3   4  316.97   18.40
   2   3  -4  322.67   21.70
   2   3  -4  306.87   20.90
  -1  -3   4   21.40    6.30
   1  -3  -4   21.10    6.40
   1  -3  -4   16.40    6.60
  -1  -3   4   23.30    6.90
   1   3  -4   23.20    6.30
   1   3  -4   36.70    9.30
  -1   3   4   24.00    7.60
  -1   3   4    6.50    4.70
   0  -3   4 1277.87   41.40
   0  -3  -4 1218.68   48.10
   0  -3  -4 1258.67   48.70
   0  -3   4 1311.17   46.70
   0   3   4 1338.87   55.69
   0   3  -4 1330.57   47.40
   0   3   4 1266.07   49.00
   0   3  -4 1318.97   42.50
   1  -3   4    3.10    3.60
   1  -3   4    3.60    2.50
  -1  -3  -4    4.50    4.70
   1   3   4    0.70    3.60
  -1   3  -4    2.30    2.60
  -1   3  -4    3.70    3.90
   1   3   4    5.60    4.90
  -2  -3  -4   11.70    6.70
   2  -3   4   17.50    5.30
   2  -3   4   19.30    2.80
   2   3   4   21.90    7.30
  -2   3  -4   25.20    6.90
   2   3   4   18.30    7.10
   3  -3   4  725.73   22.60
   3  -3   4  734.63   23.70
   3  -3   4  743.73   28.80
  -3  -3  -4  747.53   39.90
   3   3   4  775.32   40.10
  -3   3  -4  743.23   29.70
   3   3   4  756.72   36.40
   4  -3   4  742.13   28.00
   4  -3   4  744.73   27.30
   4  -3   4  738.43   26.30
   4   3   4  742.73   38.40
  -4   3  -4  718.63   28.70
   4   3   4  730.73   37.70
   4   3   4  755.42   41.60
   5  -3   4    6.80    3.90
   5  -3   4    7.80    4.10
   5   3   4   11.30    7.00
   5   3   4   13.10    6.90
   5   3   4   -2.80    3.10
  -5   3  -4    5.60    3.30
   6  -3   4   39.50    7.10
   6  -3   4   27.70    5.30
   6  -3   4   26.00    7.60
   6   3   4   28.00   10.40
   6   3   4   26.40   10.00
   6   3   4   31.30   12.10
   7  -3   4  241.48   19.50
   7  -3   4  251.97   13.00
   7  -3   4  254.77   14.00
   7   3   4  254.37   26.60
   7   3   4  221.98   29.40
   7   3   4  268.17   25.40
   8  -3   4   54.49    6.20
   8  -3   4   50.79   12.60
   8   3   4   68.59   19.50
   8   3   4   58.69   17.10
   8   3   4   43.30   13.10
   9  -3   4   84.89   17.90
   9   3   4   86.19   22.10
   9   3   4   82.69   20.20
  10  -3   4   44.50   13.70
  10   3   4   17.30   11.20
  10   3   4   68.39   18.20
  11  -3   4    2.50    7.60
  11   3   4    3.60    6.50
  11   3   4   -9.80    4.40
  12  -3   4   24.00   12.40
  12   3   4    9.90   10.60
  12   3   4   12.60   11.70
  12  -4  -4   28.40   15.10
  12   4  -4   18.50   15.60
  12   4  -4   42.30   17.50
  11  -4  -4  162.18   31.10
  11   4  -4  112.19   24.80
  11   4  -4  155.38   33.20
  10  -4  -4   52.89   19.10
  10   4  -4   90.79   27.80
  10   4  -4   36.60   15.50
   9  -4  -4    0.50    5.60
  -9   4   4   -1.00    3.40
   9   4  -4   11.10   11.70
   9   4  -4   -1.50    5.20
   8  -4  -4    0.30    5.90
   8   4  -4   -1.50    5.60
   8   4  -4   -0.10    6.50
  -8   4   4   -1.20    3.20
   7  -4  -4    1.90    7.10
  -7  -4   4    7.80    6.70
  -7   4   4    4.50    5.60
   7   4  -4    1.00    7.00
   7   4  -4   -4.30    7.20
  -6  -4   4   83.59   22.40
   6  -4  -4   50.79   13.00
   6  -4  -4   38.40    5.00
  -6  -4   4   51.19   14.90
  -6   4   4   54.39    5.20
  -6   4   4   46.10   12.30
   6   4  -4   47.40   15.40
   6   4  -4   53.79   14.20
   5  -4  -4  474.55   30.10
  -5  -4   4  420.86   30.00
   5  -4  -4  431.26   19.50
   5   4  -4  515.05   37.10
  -5   4   4  423.36   18.50
   5   4  -4  367.26   29.10
  -5   4   4  455.65   28.10
  -4  -4   4    2.90    4.40
   4  -4  -4    4.90    4.20
   4  -4  -4   19.10    7.30
  -4  -4   4    4.80    5.20
   4   4  -4    7.00    6.40
  -4   4   4   11.50    5.70
   4   4  -4   12.00    7.40
  -4   4   4    1.20    2.90
   3  -4  -4  408.16   25.40
  -3  -4   4  375.16   25.70
  -3  -4   4  398.16   26.70
   3  -4  -4  412.36   21.60
  -3   4   4  377.26   20.80
   3   4  -4  425.86   28.00
   3   4  -4  415.76   27.90
  -3   4   4  420.46   25.20
  -2  -4   4  381.46   23.70
   2  -4  -4  399.06   24.40
   2  -4  -4  413.26   22.90
  -2  -4   4  375.26   24.90
  -2   4   4  372.56   23.60
   2   4  -4  428.86   25.70
  -2   4   4  393.96   22.40
   2   4  -4  448.36   27.40
   1  -4  -4    3.10    4.20
  -1  -4   4    2.90    3.90
   1  -4  -4    1.30    3.30
   1   4  -4    3.00    4.20
  -1   4   4    6.20    4.10
   1   4  -4   -0.20    3.30
   0  -4  -4  220.28   17.90
   0  -4   4  207.78   16.20
   0  -4  -4  178.48   16.80
   0  -4   4  197.78   12.70
   0   4   4  185.08   17.10
   0   4  -4  170.68   15.60
   0   4   4  171.98   16.20
   0   4  -4  215.88   13.90
   1  -4   4  539.85   19.10
  -1  -4  -4  554.54   31.70
   1  -4   4  555.84   26.80
   1   4   4  509.85   30.70
  -1   4  -4  501.65   26.00
   1   4   4  452.95   28.60
  -1   4  -4  506.95   19.90
  -2  -4  -4   97.29   14.60
   2  -4   4  157.68   12.50
   2   4   4  184.08   17.90
  -2   4  -4  165.08   13.30
   2   4   4  169.58   18.00
   3  -4   4  842.32   32.40
   3   4   4  942.91   47.30
  -3   4  -4  890.31   34.30
   3   4   4  904.61   42.70
   3   4   4  891.51   42.50
   4  -4   4 2517.85   63.39
   4  -4   4 2511.05   63.09
   4  -4   4 2474.65   69.79
  -4   4  -4 2456.95   71.69
   4   4   4 2445.66   87.59
   4   4   4 2573.94   88.59
   4   4   4 2307.37   91.09
   5  -4   4  688.43   24.30
   5  -4   4  692.23   25.70
   5   4   4  814.92   43.10
   5   4   4  636.94   42.10
  -5   4  -4  711.93   29.40
   5   4   4  669.73   47.10
   6  -4   4   -2.20    3.00
   6  -4   4    2.80    1.60
   6  -4   4    2.30    1.90
   6   4   4    3.10    4.90
   6   4   4   -3.60    2.80
   6   4   4    0.70    5.10
   7  -4   4  215.28   17.50
   7   4   4  224.38   24.10
   7   4   4  217.68   25.50
   7   4   4  195.48   24.70
   8  -4   4  242.68   20.40
   8   4   4  274.47   28.00
   8   4   4  315.47   32.00
   9  -4   4  367.26   27.50
   9   4   4  383.16   34.30
   9   4   4  403.06   39.00
  10  -4   4   59.59   15.20
  10   4   4   53.09   16.80
  11  -4   4  194.18   23.00
  11   4   4  203.78   32.00
  11   4   4  244.28   29.50
  12  -4   4   23.80   10.70
  12   4   4   25.00   15.40
  12   4   4   40.20   15.80
  12  -5  -4    4.10    8.50
  12   5  -4   19.00   13.30
  12   5  -4    6.20   12.90
  11  -5  -4   54.09   17.20
  11   5  -4   71.99   25.90
  11   5  -4   44.70   19.50
  10  -5  -4   84.89   21.00
  10   5  -4   43.70   17.70
  10   5  -4   63.29   20.80
   9  -5  -4   99.99   22.60
   9   5  -4   90.79   23.10
  -9   5   4  107.69   21.50
   9   5  -4   52.49   19.50
   8   5  -4  479.45   40.20
   8   5  -4  516.45   45.20
   7  -5  -4   41.20   12.80
  -7   5   4   40.10   11.70
   7   5  -4   40.80   14.60
   7   5  -4   23.30   11.40
  -6  -5   4  160.18   20.30
   6  -5  -4  162.88   19.00
   6   5  -4  208.08   25.30
   6   5  -4  195.98   23.10
  -6   5   4  206.28   19.50
  -5  -5   4  154.38   19.50
  -5  -5   4  183.78   20.60
   5  -5  -4  184.88   11.70
   5  -5  -4  197.78   19.30
   5   5  -4  162.88   20.50
  -5   5   4  186.38   11.40
   5   5  -4  154.28   20.80
  -5   5   4  182.58   17.70
   4  -5  -4  308.97   18.00
  -4  -5   4  325.17   26.40
  -4  -5   4  349.96   27.20
   4  -5  -4  327.67   23.70
   4   5  -4  375.26   29.10
   4   5  -4  333.97   27.40
  -4   5   4  293.07   17.80
  -4   5   4  320.87   23.10
   3  -5  -4  764.42   33.20
   3  -5  -4  772.02   37.30
  -3  -5   4  729.13   39.80
  -3  -5   4  767.32   39.50
   3   5  -4  691.03   39.90
  -3   5   4  784.72   37.30
   3   5  -4  722.33   39.80
  -3   5   4  757.82   33.30
  -2  -5   4  726.03   36.20
   2  -5  -4  781.22   37.20
  -2  -5   4  780.92   39.60
   2  -5  -4  783.62   35.80
   2   5  -4  794.62   40.30
  -2   5   4  756.72   37.00
   2   5  -4  745.73   37.50
  -2   5   4  782.92   36.80
  -1  -5   4  260.77   18.10
  -1  -5   4  242.68   20.10
   1  -5  -4  268.17   20.80
   1  -5  -4  268.67   20.70
  -1   5   4  303.17   21.80
   1   5  -4  250.87   18.40
   1   5  -4  284.87   22.10
  -1   5   4  292.17   21.40
   0  -5   4  177.08   15.90
   0  -5  -4  181.38   18.20
   0  -5   4  182.78   13.10
   0   5   4  168.98   17.40
   0   5  -4  166.68   16.40
   0   5   4  225.18   19.10
   0   5  -4  189.98   13.90
  -1  -5  -4  290.47   24.00
   1  -5   4  253.87   12.70
   1  -5   4  239.08   17.80
   1   5   4  216.88   21.00
   1   5   4  259.97   20.50
   1   5   4  240.18   21.40
  -1   5  -4  271.87   13.90
  -1   5  -4  251.17   18.80
  -2   5  -4   18.20    6.60
   2   5   4    6.90    4.90
   2   5   4   21.80    9.10
   2   5   4    1.80    4.90
   3  -5   4  502.65   23.20
  -3   5  -4  428.96   23.20
   3   5   4  479.05   31.40
   3   5   4  481.35   30.90
   3   5   4  424.46   32.50
   4  -5   4   32.70    5.50
   4   5   4   19.20    8.60
  -4   5  -4   24.90    6.20
   4   5   4   21.30   10.40
   4   5   4   33.10   11.70
   5  -5   4   82.79    6.40
   5   5   4   71.39   15.30
   5   5   4   92.69   15.40
   5   5   4   76.49   17.60
   6  -5   4  548.45   21.30
   6   5   4  583.34   41.00
   6   5   4  530.25   38.40
   6   5   4  535.85   41.40
   7  -5   4   39.00    8.30
   7   5   4   31.90   13.40
   7   5   4   32.40   13.50
   8  -5   4    9.10    5.60
   8   5   4   21.40   11.40
   8   5   4   27.40   12.30
   9  -5   4  132.59   15.30
   9   5   4  159.48   31.40
   9   5   4  178.78   25.00
  10  -5   4   58.89   13.80
  10   5   4   27.70   15.10
  10   5   4   50.59   18.00
  11  -5   4    2.90    5.60
  11   5   4   -5.90    5.20
  11   5   4   27.30   14.90
  12  -5   4  141.49   19.30
  12   5   4  154.88   32.30
  12   5   4  129.89   31.90
  12  -6  -4    9.30    8.80
  12   6  -4    7.60   10.60
  12   6  -4    4.90   12.40
  11  -6  -4   66.79   19.60
  11   6  -4   50.59   20.20
  11   6  -4   74.39   27.20
  10  -6  -4    2.30    7.30
  10   6  -4   -2.70    6.70
  10   6  -4   21.50   17.10
   9  -6  -4  218.08   25.40
  -9   6   4  250.37   24.20
   9   6  -4  301.07   34.10
   9   6  -4  365.86   41.00
   8  -6  -4   37.50   13.10
   8   6  -4   30.80   16.30
  -8   6   4   45.40   13.50
   8   6  -4   52.79   17.60
   7  -6  -4   -1.30    4.20
   7   6  -4    0.50    5.80
   7   6  -4    1.20    6.30
  -7   6   4   -4.60    2.90
   6  -6  -4   31.40   11.00
  -6   6   4   36.70   10.90
   6   6  -4   32.70   14.40
   6   6  -4   34.20   13.80
  -5  -6   4   34.20   11.90
  -5  -6   4   65.89   16.20
   5  -6  -4   36.60   11.40
  -5   6   4   40.70    5.50
  -5   6   4   35.50    6.80
  -5   6   4   34.00   10.20
   5   6  -4   53.49   16.00
   5   6  -4   19.60    8.90
  -4  -6   4   53.99   15.10
   4  -6  -4   67.69   14.60
  -4  -6   4   77.79   21.90
  -4   6   4   47.60    9.30
  -4   6   4   52.49    7.30
   4   6  -4   57.09   16.20
  -4   6   4   75.49   11.80
   4   6  -4   55.79   14.80
  -3  -6   4 1039.40   51.59
   3  -6  -4 1097.09   47.20
  -3  -6   4 1077.69   49.80
  -3   6   4 1041.80   40.40
  -3   6   4 1049.49   43.80
  -3   6   4 1080.79   47.00
   3   6  -4 1040.50   50.89
   3   6  -4 1025.50   52.49
   2  -6  -4   76.39   15.10
  -2  -6   4   58.29   14.20
  -2  -6   4   80.39   11.80
  -2   6   4   63.89    9.50
   2   6  -4   56.89   13.50
   2   6  -4   94.89   17.50
  -2   6   4   78.29   14.90
  -2   6   4   67.29   14.00
  -1  -6   4  277.07   22.40
  -1  -6   4  278.27   19.50
   1  -6  -4  246.38   20.90
  -1   6   4  293.87   20.80
  -1   6   4  264.47   22.30
   1   6  -4  256.17   19.60
   1   6  -4  269.67   22.70
  -1   6   4  244.58   21.10
   0  -6   4  233.58   19.90
   0   6  -4  258.27   21.60
   0   6   4  282.57   24.10
   0   6   4  260.47   20.70
   0   6   4  303.37   23.70
   0   6  -4  280.67   18.00
   1  -6   4 1110.89   45.30
   1   6   4 1044.40   51.09
  -1   6  -4  999.70   45.40
  -1   6  -4 1061.79   36.90
   1   6   4 1036.60   48.40
   1   6   4 1220.38   55.69
   2  -6   4  152.38   14.00
   2   6   4  153.38   18.90
  -2   6  -4  159.18    7.90
  -2   6  -4  143.19   14.60
   2   6   4  160.68   18.00
  -2   6  -4  151.18    7.60
   2   6   4  127.39   17.90
   3   6   4 2521.85   92.09
  -3   6  -4 2425.66   77.89
   3   6   4 2529.55   90.49
   3   6   4 2528.05   97.99
   4  -6   4   43.90    6.50
   4   6   4   33.50   11.30
   4   6   4   51.89   14.90
   4   6   4   26.50   11.50
  -4   6  -4   38.60    8.20
   5  -6   4 1018.00   32.10
   5   6   4 1048.80   55.69
  -5   6  -4  994.00   34.50
   5   6   4 1106.49   61.59
   5   6   4 1053.19   56.09
   6   6   4   38.60   14.90
   6   6   4   21.90   12.00
   7   6   4   -2.60    4.30
   7   6   4   13.60    8.50
   8  -6   4   11.00    4.30
   8  -6   4    8.70    3.90
   8   6   4   20.00   11.30
   8   6   4   14.80   11.30
   9  -6   4  326.67   19.40
   9  -6   4  322.77   19.80
   9   6   4  257.77   40.50
   9   6   4  380.36   37.10
  10  -6   4   14.90    6.50
  10  -6   4   12.10    5.40
  10   6   4   11.70   12.10
  10   6   4    5.90    9.30
  11  -6   4  218.18   18.60
  11   6   4  212.08   33.90
  11   6   4  226.38   31.30
  12   6   4    4.40   12.50
  12   6   4   -0.30    8.40
  12  -7  -4   11.50    9.80
  12   7  -4   12.70   16.00
  12   7  -4    0.20    8.10
  11  -7  -4   32.40   14.10
  11   7  -4   43.60   19.30
  11   7  -4   12.40   13.00
  10  -7  -4   32.40   13.10
  10   7  -4   48.80   19.60
  10   7  -4   39.40   19.80
 -10   7   4   42.20   13.50
   9  -7  -4   12.20    9.20
   9   7  -4    5.10    8.60
  -9   7   4   13.80    8.00
   9   7  -4   13.20   13.20
   8  -7  -4  400.66   31.90
   8   7  -4  404.16   39.40
  -8   7   4  358.26   27.80
   8   7  -4  395.26   41.70
   7  -7  -4  106.49   16.10
  -7   7   4   91.79   17.00
   7   7  -4   74.69   19.80
   7   7  -4   67.29   19.40
   6  -7  -4  884.61   45.50
   6   7  -4  867.31   56.09
  -6   7   4  883.31   43.40
   6   7  -4  878.01   55.49
   5  -7  -4   97.69   17.70
  -5   7   4   79.99    8.30
  -5   7   4   81.09   12.60
   5   7  -4   86.29   20.30
  -5   7   4   78.99    9.10
   5   7  -4  109.89   22.70
   4  -7  -4    4.80    5.50
  -4  -7   4    7.50    7.10
  -4  -7   4    9.80    7.40
  -4   7   4    9.00    6.20
   4   7  -4   -0.30    5.70
   4   7  -4    3.40    5.90
  -4   7   4   -3.00    2.50
  -4   7   4    4.80    4.10
   3  -7  -4  126.89   15.40
  -3  -7   4  130.29   16.70
  -3  -7   4  109.09   16.30
   3   7  -4  133.89   17.80
  -3   7   4  129.19   13.00
  -3   7   4  135.79   15.80
  -3   7   4  121.69   14.40
   3   7  -4  140.49   19.20
  -2  -7   4  843.12   41.30
   2  -7  -4  834.42   41.70
  -2  -7   4  778.42   44.00
  -2   7   4  833.32   38.60
  -2   7   4  863.21   42.80
   2   7  -4  801.72   42.00
  -2   7   4  894.01   43.30
   2   7  -4  743.73   44.30
  -1  -7   4  137.29   14.10
  -1  -7   4   86.79   13.80
  -1   7   4  101.39   13.10
  -1   7   4   96.99   14.60
   1   7  -4  129.89   14.60
  -1   7   4  122.09   15.50
   1   7  -4  100.39   15.00
   0  -7   4  167.78   17.70
   0   7  -4  193.98   15.60
   0   7   4  145.89   17.40
   0   7   4  146.89   18.50
   0   7  -4  164.38   18.20
   0   7   4  155.28   17.10
   1  -7   4   56.69   12.30
   1   7   4   49.90   14.00
  -1   7  -4   69.59   14.40
   1   7   4   62.09   15.80
  -1   7  -4   49.00    7.30
   1   7   4   47.80   11.90
   2  -7   4  394.76   24.80
  -2   7  -4  416.66   19.10
   2   7   4  409.96   29.40
  -2   7  -4  393.96   16.80
   2   7   4  399.76   31.90
  -2   7  -4  425.26   26.70
   2   7   4  414.26   34.20
   3  -7   4  281.87   19.10
   3   7   4  310.97   28.00
   3   7   4  298.17   29.80
  -3   7  -4  288.67   20.90
   3   7   4  336.07   27.70
   4  -7   4  172.88   13.80
   4   7   4  183.68   22.30
  -4   7  -4  180.08   15.10
   4   7   4  196.18   23.10
   4   7   4  209.48   26.00
   5  -7   4   23.80    5.30
   5   7   4   12.90    9.50
   5   7   4    6.30    7.10
  -5   7  -4   14.80    5.20
   6   7   4   14.00    9.20
   6   7   4    2.30    6.00
   7   7   4   58.59   17.40
   7   7   4   41.30   16.60
   8   7   4  104.29   23.70
   8   7   4  107.49   26.20
   9   7   4    9.60   11.50
   9   7   4    3.90    6.90
  10   7   4    3.20    6.80
  10   7   4    2.40   10.60
  11   7   4    1.30    8.50
  11   7   4    5.70    8.00
  11  -8  -4    5.70    7.70
  11   8  -4   -7.70    6.30
  11   8  -4   25.70   20.50
  10  -8  -4   25.90   12.20
  10   8  -4    9.60   14.10
  10   8  -4   32.30   20.30
   9  -8  -4   66.89   18.10
   9   8  -4   10.50   10.60
   9   8  -4   46.80   19.60
  -9   8   4   84.99   25.40
   8  -8  -4    2.60    5.30
  -8   8   4    2.30    4.20
   8   8  -4    5.30    9.70
   8   8  -4   -4.80    5.40
   7  -8  -4   26.00   10.20
   7   8  -4   61.89   20.70
  -7   8   4   54.79   13.50
   7   8  -4   10.90   10.00
   6  -8  -4   82.09   17.00
  -6   8   4   86.99   13.50
   6   8  -4  111.69   25.80
  -6   8   4   85.69    6.20
  -6   8   4   85.99    6.40
   6   8  -4   85.89   20.90
   5  -8  -4  976.70   47.70
   5   8  -4  967.10   59.69
  -5   8   4 1008.60   47.10
  -5   8   4 1007.10   38.10
   5   8  -4 1137.19   62.39
  -5   8   4 1046.80   41.00
   4  -8  -4  286.97   23.60
  -4  -8   4  280.37   26.70
  -4   8   4  276.27   19.40
   4   8  -4  316.07   30.00
   4   8  -4  246.28   28.00
  -4   8   4  257.47   20.70
  -4   8   4  269.67   22.70
  -3  -8   4  126.89   19.00
  -3  -8   4  107.79   16.10
   3  -8  -4  142.09   16.60
  -3   8   4  128.59   16.00
  -3   8   4  116.69   13.60
   3   8  -4  124.29   19.50
   3   8  -4  133.39   18.70
  -3   8   4  153.58   17.00
  -2  -8   4  148.39   19.50
  -2  -8   4  185.98   18.60
  -2   8   4  141.19   17.50
  -2   8   4  151.38   17.70
   2   8  -4  106.99   15.60
   2   8  -4  139.29   19.60
  -2   8   4  150.28   16.40
  -1  -8   4   34.00   15.30
  -1   8   4   30.60   11.20
   1   8  -4   48.90   12.00
   1   8  -4   27.70   12.30
  -1   8   4   35.70   11.20
  -1   8   4   44.20   13.00
   0  -8   4    0.40    3.10
   0   8  -4    6.60    6.00
   0   8   4    3.10    4.60
   0   8   4   -3.00    2.90
   0   8   4   -1.00    2.30
   0   8  -4    4.60    4.50
   1  -8   4    4.20    4.70
   1   8   4    2.90    6.30
  -1   8  -4    5.00    3.80
  -1   8  -4    9.30    6.20
   1   8   4   13.40    8.30
   1   8   4    1.40    4.80
   2  -8   4  227.98   19.60
   2   8   4  308.47   28.80
   2   8   4  232.58   23.30
   2   8   4  212.78   25.70
  -2   8  -4  268.77   22.50
   2   8   4  241.68   25.00
  -2   8  -4  230.88   13.10
  -2   8  -4  224.28   13.70
   3  -8   4 1299.07   50.09
   3   8   4 1191.28   63.39
  -3   8  -4 1218.68   51.09
   3   8   4 1111.39   66.49
   3   8   4 1255.67   60.89
   3   8   4 1267.27   62.99
   4  -8   4    1.00    2.90
   4   8   4    3.80    5.80
  -4   8  -4    3.10    4.20
   4   8   4    0.10    5.10
  -5   8  -4  128.29   12.20
   5   8   4  150.28   29.20
   5   8   4  143.09   22.00
   6   8   4   -1.40    4.70
   6   8   4    3.40    6.60
   7   8   4    4.80    8.70
   7   8   4   -8.10    3.60
   8   8   4  112.19   25.70
   8   8   4   84.09   20.60
   9   8   4  326.47   39.90
   9   8   4  367.76   40.10
  10   8   4   88.19   26.60
  10   8   4   86.99   25.70
  11   8   4  143.99   35.90
  11   8   4   86.89   25.30
  11  -9  -4    9.00    8.10
  11   9  -4    4.70   11.10
  11   9  -4   27.30   22.70
  10  -9  -4   14.90   12.20
  10   9  -4    4.20    9.90
  10   9  -4   21.30   15.90
   9  -9  -4   86.89   18.20
  -9   9   4   83.19   13.50
   9   9  -4  163.48   36.70
   9   9  -4  153.68   37.40
   8  -9  -4  228.38   22.50
   8   9  -4  256.57   34.50
  -8   9   4  246.08   21.80
   8   9  -4  299.87   37.90
   7  -9  -4   73.79   16.20
   7   9  -4   79.69   25.90
  -7   9   4   95.79   17.00
   7   9  -4   70.69   20.90
   6  -9  -4   69.69   15.00
   6   9  -4   43.90   17.20
  -6   9   4   41.30   11.60
  -6   9   4   32.80    6.30
   6   9  -4   44.50   17.70
  -6   9   4   35.10    6.00
   5  -9  -4  239.88   22.20
   5   9  -4  235.48   29.10
  -5   9   4  243.98   18.90
   5   9  -4  281.27   32.60
  -5   9   4  220.38   16.50
  -5   9   4  208.48   20.80
   4  -9  -4    9.00    6.60
   4   9  -4    2.10    7.50
  -4   9   4    6.80    4.40
  -4   9   4    5.60    5.20
  -4   9   4   -0.20    3.40
   4   9  -4    2.00    5.50
  -3  -9   4   56.49   14.30
  -3   9   4   79.89   16.50
  -3   9   4   71.09   16.30
   3   9  -4   54.09   18.70
  -3   9   4   74.19   15.30
   3   9  -4   81.29   18.40
  -2   9   4  995.10   50.19
   2   9  -4  923.91   54.39
   2   9  -4  870.71   56.39
  -2   9   4  990.10   52.09
  -2   9   4  949.40   46.90
  -1  -9   4  150.08   19.90
  -1   9   4  184.88   21.00
  -1   9   4  165.78   21.30
   1   9  -4  171.08   18.60
  -1   9   4  150.18   18.30
   1   9  -4  152.48   20.80
   0  -9   4  158.28   19.20
   0   9  -4  113.99   17.20
   0   9   4   67.09   16.90
   0   9   4   89.69   21.40
   0   9   4  123.39   17.40
   0   9  -4   97.39   13.10
   1  -9   4   83.29   13.50
  -1   9  -4   77.49   10.50
   1   9   4   71.29   16.10
   1   9   4   75.99   18.90
  -1   9  -4  110.69   16.60
   1   9   4  101.89   20.40
   1   9   4   63.59   15.80
   2  -9   4   60.09   13.40
  -2   9  -4   66.39    8.20
   2   9   4   60.39   15.70
   2   9   4   30.20   12.40
  -2   9  -4   49.60   14.30
  -2   9  -4   58.89    7.50
   2   9   4  103.19   23.40
   3  -9   4    4.60    4.90
   3   9   4   12.10    9.20
   3   9   4   -0.90    4.50
  -3   9  -4   10.90    6.80
   4  -9   4   63.19    9.90
   4   9   4   55.69   17.80
  -4   9  -4   85.19   15.70
   4   9   4   49.90   14.40
  -5   9  -4   18.70    7.00
   5   9   4   30.10   13.20
   5   9   4   23.30   12.00
   6   9   4  298.47   33.90
   6   9   4  288.67   33.50
   7   9   4   12.40   14.20
   7   9   4   17.50   11.30
   8   9   4   55.89   20.10
   8   9   4  124.09   31.60
   9   9   4  112.09   27.40
   9   9   4  107.49   30.30
  10   9   4   -6.10    5.70
  10   9   4   -1.10    8.10
  11   9   4   32.60   18.00
  11   9   4    5.40   11.90
  10 -10  -4   82.69   16.40
  10  10  -4   18.70   15.30
  10  10  -4   58.59   24.70
   9 -10  -4   56.79   13.00
   9  10  -4  112.09   32.60
   9  10  -4   58.19   23.30
   8 -10  -4   31.30    9.80
   8  10  -4    8.30    9.60
  -8  10   4   15.70    7.10
   8  10  -4   56.49   23.90
   7 -10  -4   53.09   13.20
   7  10  -4   52.09   21.30
   7  10  -4   49.20   18.00
  -7  10   4   37.60   10.90
   6 -10  -4  185.88   19.40
  -6  10   4  200.58   13.00
   6  10  -4  192.28   29.00
   6  10  -4  198.08   30.70
  -6  10   4  178.28   18.90
  -6  10   4  215.68   14.60
   5  10  -4   13.90   11.60
  -5  10   4   28.10    8.50
  -5  10   4   37.60   11.50
   5  10  -4   21.50   12.80
  -5  10   4   24.10    9.40
  -4  10   4  102.89   15.30
   4  10  -4   88.79   22.50
  -4  10   4  119.79   16.40
   4  10  -4   77.79   24.50
  -4  10   4   56.79   12.70
   3  10  -4  976.80   60.69
  -3  10   4  986.00   52.89
  -3  10   4 1032.70   48.90
  -3  10   4  970.90   51.09
   3  10  -4 1078.49   58.19
  -2  10   4  457.75   36.30
   2  10  -4  331.47   29.60
   2  10  -4  426.86   37.30
  -2  10   4  375.96   30.60
  -1  10   4  113.69   18.70
  -1  10   4  159.38   20.80
   1  10  -4  169.78   19.30
  -1  10   4  148.39   19.30
   1  10  -4  128.89   20.30
   0 -10   4   17.60    8.30
   0  10   4   23.20   12.00
   0  10   4   38.30   13.70
   0  10   4   58.79   17.20
   0  10  -4   55.89   16.20
   0  10  -4   31.60    9.90
   1 -10   4   13.90    7.50
  -1  10  -4    4.40    5.10
   1  10   4   -1.70    3.60
   1  10   4    7.70    6.70
  -1  10  -4   12.20    6.70
  -1  10  -4    5.80    7.70
   1  10   4    7.50    6.90
   2 -10   4  226.88   22.20
  -2  10  -4  216.88   15.20
   2  10   4  204.08   25.20
  -2  10  -4  214.38   15.80
  -2  10  -4  266.67   25.10
   2  10   4  199.88   23.80
   3 -10   4  139.79   16.60
   3  10   4  159.48   23.30
  -3  10  -4  183.98   20.00
   3  10   4  138.39   21.20
   4 -10   4   11.60    6.30
   4  10   4    3.40    7.10
  -4  10  -4   18.80    8.70
   4  10   4    8.90    8.20
  -5  10  -4  107.29   13.20
  -5  10  -4  114.89   13.50
   5  10   4  100.99   23.50
   5  10   4  156.38   32.20
  -6  10  -4   83.29    7.20
   6  10   4  104.99   26.50
   6  10   4   82.59   22.40
   7  10   4    4.30    8.20
   7  10   4   -4.00    5.80
   8  10   4   19.50   10.00
   8  10   4   79.89   24.30
   9  10   4  102.89   31.30
   9  10   4   72.59   23.20
  10  10   4   28.80   18.30
  10  10   4   57.09   22.70
  10  11  -4   53.89   24.90
  10  11  -4   94.69   32.40
   9  11  -4   56.29   24.60
   9  11  -4   72.59   25.10
   8  11  -4   67.49   23.40
   8  11  -4   94.99   27.10
   7  11  -4  221.18   33.90
   7  11  -4  260.77   36.20
  -7  11   4  242.98   21.00
   6  11  -4   34.80   16.20
  -6  11   4   28.30   10.50
   6  11  -4   51.29   23.50
  -6  11   4   26.60    7.00
  -5  11   4   42.30   12.60
  -5  11   4   38.10   10.50
   5  11  -4   61.09   23.80
  -5  11   4   23.80    8.60
   5  11  -4   62.19   20.40
   4  11  -4   -2.80    4.40
   4  11  -4   -4.20    4.60
  -4  11   4   -0.70    3.70
  -4  11   4   -0.10    4.00
  -4  11   4    9.00    7.00
   3  11  -4   89.39   23.70
  -3  11   4   60.59   14.60
   3  11  -4  100.99   23.60
  -3  11   4   93.09   19.30
  -2  11   4   88.69   18.70
   2  11  -4   80.89   19.70
  -2  11   4  114.19   24.40
   2  11  -4   69.69   21.50
  -1  11   4  477.15   37.50
   1  11  -4  440.26   33.00
  -1  11   4  517.75   37.70
   1  11  -4  490.45   40.00
   0  11   4    8.40    7.60
   0  11  -4   -0.40    5.60
   0  11   4   -3.60    2.90
   0  11   4    3.90    7.30
   0  11  -4    5.60    6.10
   1 -11   4   69.99   17.00
   1  11   4   83.19   21.00
   1  11   4   61.39   16.30
  -1  11  -4   73.89   15.50
  -1  11  -4   61.89   13.20
  -1  11  -4   60.99   16.30
   2 -11   4    1.40    4.80
   2  11   4    5.70    7.70
  -2  11  -4    8.70    6.80
   2  11   4   -2.70    6.40
  -2  11  -4   -1.90    3.20
  -2  11  -4    2.50    5.50
   3 -11   4   -0.20    4.50
   3  11   4   14.10   10.30
   3  11   4   -1.30    4.30
   4  11   4   -0.60    6.70
  -4  11  -4   21.70   10.20
  -4  11  -4    5.40    6.00
   4  11   4   14.80   10.10
  -5  11  -4  409.06   27.40
  -5  11  -4  438.56   28.60
   5  11   4  473.15   43.30
  -6  11  -4   13.50    5.00
   6  11   4    4.60    9.20
   6  11   4    9.40   11.60
  -6  11  -4   12.80    4.60
   7  11   4  155.38   33.80
   7  11   4  205.28   32.20
   8  11   4   -1.40    5.90
   8  11   4   12.80   11.10
   9  11   4    2.00    8.40
   9  11   4   10.00   12.40
  10  11   4   -0.60   13.90
  10  11   4   -6.80    6.90
   9  12  -4    5.70   11.00
   9  12  -4   16.50   34.90
   8  12  -4   57.49   23.70
   8  12  -4   55.29   24.30
   7  12  -4    3.20    9.50
   7  12  -4   32.80   16.30
   6  12  -4  121.99   33.00
   6  12  -4   66.99   22.30
  -6  12   4   84.89   11.90
  -6  12   4   90.19   17.00
  -6  12   4   82.49   11.00
  -5  12   4  142.59   18.20
  -5  12   4  158.08   19.10
   5  12  -4  123.69   26.50
   5  12  -4  191.18   37.70
  -5  12   4  157.98   17.50
   4  12  -4   54.29   20.80
  -4  12   4   81.79   16.90
  -4  12   4   65.99   16.10
   4  12  -4   72.39   22.50
   3  12  -4   26.00   14.20
  -3  12   4   10.00    7.90
  -3  12   4    9.00    8.70
   3  12  -4   13.10   10.90
  -2  12   4   35.50   13.40
   2  12  -4   56.09   19.40
   2  12  -4   50.79   16.70
  -2  12   4   36.00   13.00
   1  12  -4   11.10    7.30
  -1  12   4   13.30   10.00
  -1  12   4   29.80   12.30
  -1  12   4    6.50    7.50
   1  12  -4    8.40    8.70
   0  12  -4    3.10    7.10
   0  12   4    0.90    6.00
   0  12   4    0.40    4.20
   0  12  -4    0.40    4.10
   0  12  -4    5.00    5.90
   1  12   4   28.60   12.40
   1  12   4   10.10   10.10
  -1  12  -4   22.70   11.90
  -1  12  -4   26.30    9.10
  -1  12  -4    9.50    6.50
  -2  12  -4  327.57   31.20
   2  12   4  311.57   34.50
  -2  12  -4  254.77   19.80
   2  12   4  234.88   28.20
  -2  12  -4  260.97   18.90
  -3  12  -4  258.27   26.50
   3  12   4  213.08   27.80
   3  12   4  212.88   29.80
  -3  12  -4  214.78   25.40
   4  12   4  134.49   30.30
  -4  12  -4  158.08   20.50
   4  12   4  143.39   29.00
  -4  12  -4  174.88   35.90
  -5  12  -4  100.59   14.80
  -5  12  -4  109.99   15.60
   5  12   4   90.49   26.00
   5  12   4   97.49   24.60
   6  12   4   72.19   25.50
  -6  12  -4   26.40    7.40
  -6  12  -4   32.60    9.20
   6  12   4   48.00   20.70
   7  12   4    6.40   11.30
   7  12   4    3.70   10.20
   8  12   4  112.59   30.00
   8  12   4  136.29   31.20
   9  12   4    6.10   11.60
   8  13  -4    1.30   10.30
   8  13  -4   -7.70    8.20
   7  13  -4  161.28   37.20
   7  13  -4  196.18   41.40
   6  13  -4   66.09   24.20
  -6  13   4   21.00    7.70
   6  13  -4   24.80   13.90
   5  13  -4    6.70   10.20
  -5  13   4   13.00    8.40
   5  13  -4    8.50    9.80
  -5  13   4   -0.90    4.80
  -5  13   4   11.60    8.20
  -4  13   4  131.59   25.90
   4  13  -4   64.89   22.00
   4  13  -4  108.59   26.80
  -4  13   4  113.89   17.40
  -3  13   4  138.59   20.10
  -3  13   4  118.59   19.50
   3  13  -4  118.69   26.40
   3  13  -4  160.58   34.20
  -3  13   4  120.99   17.00
  -2  13   4   -5.80    3.10
  -2  13   4    3.20    5.70
   2  13  -4   -1.00    6.00
  -2  13   4   -1.30    3.00
   2  13  -4   -8.20    3.80
  -1  13   4  119.09   18.40
  -1  13   4  132.99   21.30
   1  13  -4  163.48   26.50
   1  13  -4  117.59   23.20
   0  13   4   25.00   11.50
   0  13  -4   15.80   13.20
   0  13  -4   41.40   12.80
   0  13  -4   26.50   12.00
   0  13   4   24.10   11.40
   1  13   4  263.87   31.60
   1  13   4  223.18   27.10
  -1  13  -4  208.68   20.50
  -1  13  -4  219.68   28.20
  -1  13  -4  220.08   22.20
  -2  13  -4  131.69   14.80
   2  13   4  137.79   22.70
   2  13   4  120.99   31.60
  -2  13  -4  115.99   13.40
  -2  13  -4  145.49   22.70
   3  13   4   13.60    9.70
   3  13   4    5.90    8.50
  -3  13  -4    4.40    7.90
   4  13   4    9.50   11.50
   4  13   4    9.50    9.60
  -4  13  -4   13.60    9.90
  -4  13  -4   21.30   10.60
   5  13   4   88.89   26.20
  -5  13  -4  113.19   21.30
  -5  13  -4   96.49   18.80
   5  13   4   46.50   18.60
   6  13   4    5.90   11.50
  -6  13  -4    8.40    4.80
   6  13   4   20.70   14.30
   7  13   4   49.20   24.90
   7  13   4   58.49   23.00
   8  13   4   -5.20    9.00
   7  14  -4   -2.30    7.80
   7  14  -4   -9.40    7.70
  -6  14   4    6.00    5.30
   6  14  -4    6.70   11.10
  -6  14   4   -0.20    5.20
   6  14  -4    2.20    9.20
   5  14  -4   36.80   19.90
  -5  14   4   13.40    9.00
   5  14  -4    2.90    7.50
  -5  14   4    9.60    7.90
  -4  14   4   79.29   18.40
  -4  14   4   93.39   18.50
   4  14  -4   51.79   19.90
  -4  14   4  130.39   19.60
   4  14  -4   98.59   27.20
   3  14  -4    5.30   10.20
  -3  14   4    2.10    4.80
   3  14  -4    1.10    9.70
  -3  14   4   -1.70    4.70
  -3  14   4   -1.10    5.70
   2  14  -4  170.88   25.50
  -2  14   4  196.68   23.00
   2  14  -4  295.07   37.20
  -2  14   4  249.18   28.80
   1  14  -4   13.80   10.20
   1  14  -4   -3.40    5.60
  -1  14   4   -2.20    4.50
  -1  14   4   14.80   10.00
   0  14   4   26.00   11.70
   0  14  -4    6.50    7.70
   0  14  -4    0.00    5.20
   0  14  -4   10.70   10.60
   0  14   4    1.80    6.80
  -1  14  -4   53.99   19.90
   1  14   4   11.30    8.80
  -1  14  -4    5.80    6.20
  -1  14  -4    5.00    6.20
   1  14   4   18.70   12.00
  -2  14  -4  227.78   18.70
   2  14   4  244.08   30.50
  -2  14  -4  171.38   17.70
  -2  14  -4  202.88   27.70
   2  14   4  178.18   29.00
   3  14   4   -0.70    6.80
  -3  14  -4   21.70   12.20
   3  14   4   46.80   19.30
  -4  14  -4  233.58   26.70
   4  14   4  204.58   31.00
   4  14   4  296.97   38.90
  -5  14  -4   12.40    7.80
   5  14   4    1.80    8.90
   5  14   4   11.70   13.40
  -6  14  -4   10.60    6.90
   6  14   4    7.80   10.60
   6  14   4   17.80   13.20
   7  14   4    6.40   12.90
   7  14   4    1.60   15.00
   6  15  -4    8.40   15.40
   6  15  -4   -0.80    9.60
   5  15  -4    3.00    9.50
   5  15  -4    6.60   12.10
  -5  15   4    3.50    7.90
   4  15  -4   31.10   16.30
   4  15  -4   20.10   15.60
  -4  15   4   27.70   12.60
  -4  15   4   42.50   12.60
   3  15  -4   60.29   26.40
   3  15  -4   62.69   21.20
  -3  15   4   55.49   16.70
  -3  15   4   75.59   18.40
   2  15  -4    6.00    8.30
   2  15  -4    0.10    7.70
  -2  15   4   -0.10    5.20
  -2  15   4   20.40    9.50
   1  15  -4  183.58   24.80
  -1  15   4  208.78   25.30
  -1  15   4  151.58   38.10
   1  15  -4  212.48   32.70
   0  15  -4    1.00    9.70
   0  15   4   36.50   15.60
   0  15   4   14.30   10.80
   0  15  -4    9.80    7.20
   1  15   4   66.29   21.80
  -1  15  -4   41.40   24.90
   1  15   4   14.90   10.90
  -1  15  -4   49.30   13.80
   2  15   4   54.39   19.90
   2  15   4   32.70   15.20
  -2  15  -4   75.09   23.30
  -2  15  -4   26.40    9.40
  -3  15  -4   -1.50    6.20
   3  15   4   -2.10    5.30
   3  15   4    1.80   10.00
  -4  15  -4    3.50    7.20
   4  15   4   -1.20    5.60
   4  15   4    2.50    8.00
  -5  15  -4   45.90   15.50
   5  15   4   72.49   26.90
   5  15   4   76.89   25.20
   6  15   4   -1.40    6.30
   6  15   4   -7.40    6.20
   4  16  -4   55.49   23.90
  -4  16   4   71.59   19.20
   4  16  -4   96.89   37.20
  -4  16   4   75.19   16.00
   3  16  -4   72.99   22.70
  -3  16   4   79.09   22.30
  -3  16   4   82.39   18.30
   3  16  -4   97.59   33.40
  -2  16   4   64.99   21.00
   2  16  -4   64.29   24.80
  -2  16   4   70.39   18.50
  -1  16   4   12.90    8.50
   1  16  -4    9.30   11.60
  -1  16   4    9.30    9.90
   1  16  -4   -0.30    5.60
   0  16  -4    5.20    7.90
   0  16  -4   -7.60    5.30
   0  16   4    4.60    7.50
  -1  16  -4   51.09   21.40
   1  16   4    9.90   10.30
  -1  16  -4   20.80   10.70
   1  16   4   29.00   14.80
  -2  16  -4   10.40    8.10
   2  16   4   14.80   11.10
   2  16   4   21.50   15.90
  -2  16  -4   17.80   13.00
  -3  16  -4   51.29   19.00
   3  16   4    8.50   11.10
   3  16   4   35.10   18.00
   4  16   4  208.58   42.40
  -4  16  -4  125.59   26.90
  -2  17   4   37.00   19.20
  -1  17   4    9.00   10.30
  -1  17   4   50.09   20.30
   1  17  -4   13.90   11.10
   1  17  -4    0.60    8.80
   0  17  -4   63.79   25.70
   0  17   4   16.60   11.70
   0  17  -4   56.39   17.70
   0  17   4   49.70   22.80
   1  17   4   16.70   12.70
   1  17   4    6.40    8.30
  -1  17  -4   -4.90    6.90
  13   0  -5    2.80   10.20
  12   0  -5    6.80   10.10
  11   0  -5   62.69   17.00
  11   0  -5   36.80   12.90
  11   0  -5  112.59   47.60
  10   0  -5   11.50   12.10
  10   0  -5    9.20    9.10
 -10   0   5    0.30    3.60
   9   0  -5   20.20    8.90
   9   0  -5   14.50    9.80
  -9   0   5    6.30    5.60
   8   0  -5   -6.80    3.30
   8   0  -5    9.00   10.20
  -8   0   5    2.70    3.30
   7   0  -5    3.70    6.60
  -7   0   5   -2.30    2.40
   7   0  -5   -5.10    3.10
  -7   0   5   -1.40    3.10
  -6   0   5   -3.10    2.30
   6   0  -5   -0.60    5.20
  -6   0   5    2.90    4.30
   6   0  -5    7.20    4.70
   5   0  -5  677.23   40.10
  -5   0   5  689.63   38.40
  -5   0   5  647.14   32.10
   5   0  -5  680.23   34.40
   4   0  -5    3.40    5.20
  -4   0   5   -3.30    2.00
  -4   0   5    1.20    2.80
   4   0  -5   -3.70    3.00
  -3   0   5 1346.07   52.59
   3   0  -5 1350.06   50.39
   3   0  -5 1348.27   54.29
   2   0  -5    1.00    3.70
  -2   0   5    1.60    3.50
  -2   0   5   -2.30    2.80
   2   0  -5    1.90    4.30
  -1   0   5  692.03   30.70
   1   0  -5  664.43   30.70
  -1   0   5  692.13   30.70
   1   0  -5  721.33   31.50
   0   0   5    0.20    2.90
   0   0  -5   -0.40    3.10
   0   0  -5    3.70    4.30
   0   0   5   -1.10    2.50
   1   0   5 5902.51  188.58
  -1   0  -5 6019.40  187.08
  -2   0  -5    3.60    4.20
   2   0   5    1.40    3.80
   2   0   5   -1.90    2.40
  -3   0  -5   12.10    5.90
   4   0   5    2.20    3.60
   4   0   5    2.20    3.80
  -4   0  -5   -1.40    2.70
   5   0   5  762.82   38.40
   5   0   5  822.22   38.40
  -5   0  -5  789.02   38.90
   6   0   5    0.80    2.80
   6   0   5   -1.00    3.20
   6   0   5   -0.40    3.40
   7   0   5   13.60    7.20
   7   0   5    9.40    6.90
   7   0   5   12.50    7.10
   8   0   5    1.00    3.90
   8   0   5   -2.10    2.80
   8   0   5    2.40    6.00
   9   0   5   12.00    6.50
   9   0   5   18.50   10.10
   9   0   5   12.30    7.70
  10   0   5   -5.10    5.00
  10   0   5    1.60    4.60
  10   0   5   -4.50    2.70
  11   0   5  207.68   21.30
  11   0   5  242.88   30.40
  11   0   5  193.08   22.70
  12   0   5    0.90    8.70
  13   0   5   29.60   16.40
  13  -1  -5    6.00   11.10
  13   1  -5    1.00    6.20
  13   1  -5   20.80   17.00
  12  -1  -5   39.00   17.40
  12  -1  -5   21.30    7.60
  12   1  -5    9.20   12.30
  12   1  -5   18.50    8.70
  11  -1  -5   89.39   13.70
  11  -1  -5  107.49   27.40
  11  -1  -5   82.29   13.70
  11   1  -5  119.99   23.30
  11   1  -5   88.19   25.90
  11   1  -5   68.19   18.40
  10  -1  -5    8.70    6.40
  10  -1  -5    8.40   11.00
  10  -1  -5    2.20    5.30
 -10  -1   5   12.20    7.90
  10   1  -5    8.80   12.10
  10   1  -5    0.10    6.20
   9  -1  -5   91.39   17.00
  -9  -1   5   93.09   14.90
   9  -1  -5   92.19   21.90
   9   1  -5   73.19   18.60
  -9   1   5   80.69   11.70
   9   1  -5  118.19   26.10
  -8  -1   5  345.27   26.20
   8  -1  -5  301.77   31.40
   8  -1  -5  368.86   25.60
   8   1  -5  328.77   33.90
   8   1  -5  300.57   26.90
  -8   1   5  353.06   23.00
  -7  -1   5   33.80   10.40
  -7  -1   5   10.60    7.70
   7  -1  -5   29.30    9.00
   7  -1  -5   26.10   11.70
  -7   1   5   21.30    9.90
  -7   1   5   13.10    5.50
   7   1  -5   17.00    9.60
   7   1  -5   12.60    8.10
  -6  -1   5 1040.10   46.00
   6  -1  -5 1041.90   53.19
   6  -1  -5 1035.70   44.20
  -6   1   5  961.80   40.60
   6   1  -5  968.30   57.29
   6   1  -5  994.70   47.40
  -6   1   5 1047.80   51.09
   5  -1  -5    1.30    4.30
  -5  -1   5    1.50    3.10
   5  -1  -5   10.00    6.80
  -5  -1   5    7.50    5.20
   5   1  -5   -0.10    3.90
  -5   1   5   -2.20    2.10
   5   1  -5   -0.80    4.80
  -5   1   5    1.30    3.80
  -4  -1   5  100.49   14.00
   4  -1  -5  135.69   16.10
  -4  -1   5   93.69   12.00
   4  -1  -5   97.69   11.70
   4   1  -5  113.19   15.70
  -4   1   5   94.59   11.40
  -4   1   5  110.99   14.30
   4   1  -5  140.29   15.20
   3  -1  -5  350.26   20.80
   3  -1  -5  329.47   23.10
  -3  -1   5  308.77   20.60
  -3  -1   5  312.97   22.40
   3   1  -5  316.47   23.30
   3   1  -5  291.97   21.20
  -3   1   5  356.96   23.30
  -3   1   5  315.37   19.50
  -2  -1   5   12.60    6.40
   2  -1  -5    0.90    3.80
  -2  -1   5   11.50    5.10
   2  -1  -5    7.30    4.80
   2   1  -5   11.70    5.50
   2   1  -5   11.10    6.10
  -2   1   5   17.80    6.30
  -2   1   5   21.10    7.90
   1  -1  -5   58.99    9.20
  -1  -1   5   59.39    9.40
   1  -1  -5   79.29   10.30
   1   1  -5   85.99   10.50
  -1   1   5   70.49    9.70
  -1   1   5   88.79   10.60
   0  -1   5 9999.00  272.37
   0  -1  -5 9764.92  275.17
   0   1  -5 9416.26  267.97
  -1  -1  -5   56.39   10.40
  -1  -1  -5   36.50    9.00
   1  -1   5   33.60    7.50
   1  -1   5   45.10    7.10
   1   1   5   59.69   11.40
  -1   1  -5   54.99    8.60
  -1   1  -5   55.19    7.50
   1   1   5   44.30    9.40
   2  -1   5  259.97   15.90
   2  -1   5  281.37   18.30
  -2  -1  -5  245.58   18.90
   2   1   5  278.77   22.40
  -2   1  -5  257.07   15.60
   2   1   5  262.67   19.30
  -2   1  -5  260.27   17.70
   3  -1   5  454.85   23.40
  -3  -1  -5  430.46   27.00
   3  -1   5  500.25   25.60
   3   1   5  467.15   27.30
   3   1   5  451.55   27.50
  -3   1  -5  520.35   26.10
   4  -1   5   51.89    7.80
   4  -1   5   76.99   15.60
  -4  -1  -5   76.89   11.90
   4  -1   5   71.39   10.80
   4   1   5   43.00   10.50
  -4   1  -5   60.39   11.30
   4   1   5   56.89   13.10
   5  -1   5  268.17   19.80
  -5  -1  -5  254.57   22.50
   5  -1   5  289.77   19.90
   5   1   5  280.77   22.10
  -5   1  -5  287.77   20.50
   5   1   5  291.97   23.50
   6  -1   5  847.62   35.80
   6  -1   5  840.92   39.00
   6  -1   5  869.11   40.00
   6   1   5  803.12   42.90
   6   1   5  729.43   38.20
   6   1   5  718.03   41.50
   7  -1   5  106.49   15.20
   7  -1   5   97.29   12.10
   7  -1   5  110.99   14.10
   7   1   5  164.08   19.60
   7   1   5  124.39   17.10
   7   1   5  141.29   16.30
   8  -1   5  467.35   30.30
   8  -1   5  451.45   34.00
   8  -1   5  567.24   29.60
   8   1   5  469.45   34.80
   8   1   5  586.64   40.30
   8   1   5  537.15   33.50
   9  -1   5   12.10    6.40
   9  -1   5   -0.10    5.60
   9  -1   5   -0.10    4.20
   9   1   5    2.40    6.80
  10  -1   5   63.29   14.70
  10  -1   5   67.69   13.60
  10  -1   5   92.79   21.50
  10   1   5  100.59   19.80
  10   1   5   41.70   14.20
  10   1   5   60.69   19.00
  11  -1   5    6.20    5.70
  11  -1   5    3.50    8.00
  11  -1   5    3.80    5.50
  11   1   5    0.40    8.50
  11   1   5    2.60    7.60
  11   1   5   11.10    8.00
  12  -1   5    3.80    5.30
  12  -1   5   -0.30    6.40
  12   1   5   -4.50    5.30
  12   1   5    3.70    6.70
  13  -2  -5   25.40   18.20
  13   2  -5   31.60   16.00
  13   2  -5   41.70   23.40
  12  -2  -5   31.00   16.90
  12   2  -5   30.20   13.50
  12   2  -5   52.19   23.20
  11  -2  -5  175.88   14.70
  11  -2  -5  206.08   39.70
  11   2  -5  175.48   38.10
  11   2  -5  150.68   23.00
  10  -2  -5  284.47   33.40
  10  -2  -5  223.18   17.90
  10  -2  -5  180.18   16.50
  10   2  -5  243.88   33.70
  10   2  -5  254.37   27.90
   9  -2  -5   26.20   12.70
  -9  -2   5   34.10   12.30
   9  -2  -5   21.50    7.00
   9   2  -5   33.90   13.40
   9   2  -5    6.10    9.50
  -9   2   5   19.40    6.50
   8  -2  -5   49.40   11.20
   8  -2  -5   59.99   18.70
  -8  -2   5   49.60   16.20
  -8   2   5   40.70    9.00
   8   2  -5   36.50   14.00
   8   2  -5   44.80   13.90
  -8   2   5   37.10   12.20
  -7  -2   5   47.20   13.00
   7  -2  -5   56.79   11.20
   7  -2  -5   24.60   10.50
   7   2  -5   34.90   11.60
   7   2  -5   72.09   21.40
  -7   2   5   73.09   16.30
  -7   2   5   48.50    8.00
   6  -2  -5    1.60    4.10
   6  -2  -5   -0.30    4.60
  -6  -2   5   -1.70    2.00
  -6  -2   5    3.10    6.70
  -6   2   5   -2.70    2.90
   6   2  -5   -3.40    3.70
   6   2  -5   -5.70    2.30
  -5  -2   5  330.77   24.50
  -5  -2   5  356.36   27.90
   5  -2  -5  396.16   29.00
   5  -2  -5  344.67   21.30
   5   2  -5  362.96   29.40
  -5   2   5  363.66   20.30
  -5   2   5  317.57   25.10
   5   2  -5  368.56   26.80
  -4  -2   5  144.29   16.80
  -4  -2   5  179.48   17.10
   4  -2  -5  177.48   18.00
   4  -2  -5  120.79   12.40
  -4   2   5  166.98   13.30
  -4   2   5  129.99   15.20
   4   2  -5  108.49   15.70
   4   2  -5  133.69   15.60
   3  -2  -5  483.35   24.80
  -3  -2   5  452.85   26.80
  -3  -2   5  492.95   28.80
   3  -2  -5  463.85   28.00
   3   2  -5  470.55   29.30
   3   2  -5  446.46   27.50
  -3   2   5  494.75   24.50
  -3   2   5  456.75   27.10
  -2  -2   5   48.00    9.40
   2  -2  -5   73.89   10.80
   2  -2  -5   58.39    8.90
  -2  -2   5   65.19    9.90
   2   2  -5   61.89   10.30
  -2   2   5   78.69    9.80
   2   2  -5   40.10    9.10
  -2   2   5   61.99    9.80
  -1  -2   5   94.89   11.50
  -1  -2   5  140.29   12.40
   1  -2  -5   91.69   11.10
   1   2  -5  125.69   12.20
   1   2  -5  100.49   12.20
  -1   2   5  127.29   12.60
   0  -2   5  104.69    9.80
   0  -2  -5  115.19   12.60
   0  -2   5   97.99   11.20
   0   2  -5  101.49   10.00
   0   2  -5  104.09   12.00
   0   2   5  105.89   12.10
   0   2   5   97.79   13.80
  -1  -2  -5   61.39   11.80
  -1  -2  -5   76.29   14.40
   1  -2   5   46.40    6.40
   1  -2   5   49.99    8.20
   1   2   5   47.10   10.40
  -1   2  -5   52.29    6.80
   1   2   5   41.90    8.30
  -1   2  -5   52.89    8.60
   2  -2   5    9.70    3.90
  -2  -2  -5    6.40    5.30
   2  -2   5   10.40    5.00
   2   2   5    3.00    4.60
  -2   2  -5   14.00    4.20
   2   2   5    4.90    4.50
  -2   2  -5   15.70    5.70
  -3  -2  -5 1244.78   53.89
   3  -2   5 1220.08   45.90
   3  -2   5 1311.67   43.10
   3   2   5 1402.56   54.89
  -3   2  -5 1350.06   47.80
   3   2   5 1318.97   54.79
   4  -2   5  190.88   13.10
  -4  -2  -5  237.58   21.40
   4  -2   5  157.18   13.10
   4  -2   5  163.38   14.20
   4   2   5  202.68   19.80
  -4   2  -5  185.58   14.90
   4   2   5  182.58   17.50
   5  -2   5   53.39    8.80
   5  -2   5   51.69    8.20
   5   2   5   45.60   12.80
   5   2   5   41.20   10.90
  -5   2  -5   53.89   10.50
   5   2   5   38.00   10.90
   6  -2   5  136.69   14.10
   6   2   5  117.19   16.90
   6   2   5  120.29   17.10
  -6   2  -5  131.69   13.20
   6   2   5  117.19   15.10
   7  -2   5   89.49   10.40
   7  -2   5   82.49   12.80
   7  -2   5   76.29   10.80
   7   2   5   92.49   14.70
   7   2   5  114.49   21.40
   7   2   5  100.69   16.60
   8  -2   5    2.20    4.70
   8  -2   5    9.90    8.20
   8  -2   5   21.20    7.10
   8   2   5   39.20   15.20
   8   2   5   10.30    7.00
   8   2   5    1.90    7.00
   9  -2   5   38.00   13.30
   9  -2   5   26.00    7.20
   9  -2   5   27.20    8.20
   9   2   5   27.60   11.60
   9   2   5   23.70   12.00
   9   2   5   15.30   11.30
  10  -2   5   81.19    9.90
  10  -2   5   66.89   10.20
  10  -2   5   80.49   20.60
  10   2   5   76.09   18.40
  10   2   5   73.99   20.30
  11  -2   5  203.68   14.30
  11  -2   5  266.07   29.00
  11  -2   5  196.68   13.70
  11   2   5  218.78   25.30
  12  -2   5    9.70   11.50
  12   2   5    2.20    7.60
  12   2   5   -0.80    7.20
  13  -3  -5   21.30   15.30
  13   3  -5   56.39   20.50
  13   3  -5   41.50   22.10
  12  -3  -5   29.30   15.00
  12   3  -5   43.40   20.40
  12   3  -5   75.29   21.20
  11  -3  -5   -1.90    6.50
  11   3  -5    2.90    9.70
  11   3  -5   21.00   14.30
  10  -3  -5   14.30   12.10
  10  -3  -5   26.80    4.40
  10   3  -5   40.40   16.30
   9  -3  -5   51.89   17.50
   9  -3  -5   75.79    8.50
   9  -3  -5   56.09    7.80
   9   3  -5   58.99   17.10
   9   3  -5   71.79   21.50
   8  -3  -5  124.59   11.70
  -8  -3   5   86.39   18.40
   8  -3  -5  116.39   22.70
  -8   3   5  125.99   10.50
  -8   3   5  107.69   20.20
   8   3  -5  128.89   25.50
   8   3  -5   72.09   22.30
   7  -3  -5  557.44   26.60
  -7  -3   5  459.75   33.70
   7  -3  -5  637.14   63.29
   7   3  -5  576.54   43.90
   7   3  -5  594.84   40.10
  -7   3   5  598.74   42.20
  -7   3   5  539.75   24.40
   6  -3  -5  409.66   31.00
  -6  -3   5  408.56   29.60
   6  -3  -5  415.86   22.20
  -6  -3   5  377.36   31.00
  -6   3   5  376.36   19.70
   6   3  -5  303.77   27.70
  -6   3   5  437.56   30.20
   6   3  -5  379.16   32.90
  -5  -3   5 1022.00   48.70
   5  -3  -5  945.11   38.80
   5  -3  -5 1065.29   50.59
  -5  -3   5 1082.89   52.29
  -5   3   5 1028.20   47.80
   5   3  -5 1049.00   51.09
  -5   3   5 1041.30   38.30
   5   3  -5 1024.30   53.49
   4  -3  -5   47.00    9.40
  -4  -3   5   34.80   10.60
   4  -3  -5   33.90    9.90
  -4  -3   5   51.79   13.20
   4   3  -5   50.79   13.90
   4   3  -5   48.50   13.40
  -4   3   5   46.40   11.50
  -4   3   5   54.49   10.10
   3  -3  -5  102.29   13.40
  -3  -3   5   83.49   12.30
   3  -3  -5   59.09    8.80
  -3  -3   5   71.89   14.20
   3   3  -5   84.09   16.20
  -3   3   5   64.89    9.00
  -3   3   5   61.79   13.30
   3   3  -5   76.79   15.50
   2  -3  -5    1.30    3.50
  -2  -3   5    2.90    3.70
  -2  -3   5   -0.30    3.60
   2  -3  -5    0.90    3.10
   2   3  -5   -1.70    2.80
   2   3  -5    1.10    3.80
  -2   3   5    3.20    4.40
  -2   3   5   -2.60    2.00
  -1  -3   5  811.42   37.00
  -1  -3   5  814.52   35.20
   1  -3  -5  874.71   37.70
   1  -3  -5  837.02   38.30
  -1   3   5  897.01   43.10
   1   3  -5  821.82   35.40
  -1   3   5  812.02   37.90
   1   3  -5  807.92   37.50
   0  -3   5  612.54   26.00
   0  -3   5  652.43   30.80
   0  -3  -5  641.44   32.60
   0  -3  -5  544.95   30.70
   0   3   5  663.13   32.90
   0   3  -5  613.64   26.70
   0   3  -5  616.04   30.70
   0   3   5  602.64   32.00
  -1  -3  -5 1801.62   66.69
   1  -3   5 1792.22   53.09
  -1  -3  -5 1831.32   65.79
   1  -3   5 1896.31   61.09
   1   3   5 1806.92   65.89
  -1   3  -5 1846.42   62.09
  -1   3  -5 1816.32   53.79
   1   3   5 1792.12   66.89
   2  -3   5  532.85   25.90
  -2  -3  -5  537.05   32.20
   2  -3   5  512.45   19.10
  -2   3  -5  525.85   19.70
   2   3   5  538.85   32.20
  -2   3  -5  532.45   26.50
   2   3   5  500.85   30.60
   3  -3   5    7.50    4.50
   3  -3   5   12.90    3.70
  -3  -3  -5    6.90    6.00
   3  -3   5   12.90    3.50
   3   3   5   11.60    7.00
  -3   3  -5   20.40    6.50
   3   3   5   22.20    7.90
   4  -3   5  360.56   17.70
   4  -3   5  346.37   16.30
   4  -3   5  345.07   19.50
  -4  -3  -5  363.66   28.80
   4   3   5  409.26   27.30
  -4   3  -5  368.16   20.80
   4   3   5  358.06   28.40
   5  -3   5  814.62   33.30
   5  -3   5  848.52   32.60
   5  -3   5  847.12   34.10
   5   3   5  813.22   44.20
   5   3   5  925.41   45.20
   5   3   5  831.02   47.20
  -5   3  -5  866.51   34.70
   6  -3   5  125.19   11.40
   6  -3   5  155.38   13.80
   6   3   5  137.69   17.60
   6   3   5  135.99   19.30
  -6   3  -5  158.68   12.90
   6   3   5  154.48   19.40
   7  -3   5  235.38   15.40
   7  -3   5  219.28   13.80
   7  -3   5  206.28   17.90
   7   3   5  202.38   21.90
   7   3   5  236.18   25.70
   7   3   5  234.68   26.10
   8  -3   5   45.20   12.10
   8  -3   5   47.60    6.60
   8  -3   5   44.70    7.10
   8   3   5   19.90   10.80
   8   3   5   76.89   19.70
   8   3   5   45.20   14.20
   9  -3   5   24.40    6.90
   9  -3   5   17.90   10.20
   9  -3   5   26.80    5.50
   9   3   5   12.70    9.00
   9   3   5   47.90   16.80
  10  -3   5   33.00   11.50
  10   3   5   38.90   14.30
  10   3   5   54.59   18.20
  11  -3   5  134.59   24.70
  11   3   5  143.19   30.10
  11   3   5   80.39   20.60
  12  -3   5   59.59   16.80
  12   3   5   79.59   25.00
  12   3   5   46.30   16.80
  12  -4  -5  196.98   30.70
  12   4  -5  150.48   37.00
  12   4  -5  170.88   27.80
  11  -4  -5  129.49   28.40
  11   4  -5  191.88   35.50
  11   4  -5  105.39   30.60
  10  -4  -5  223.28   28.90
  10   4  -5  260.37   31.10
  10   4  -5  261.57   36.40
   9  -4  -5  101.69   22.40
   9   4  -5  126.29   26.70
   9   4  -5   96.79   25.20
   8  -4  -5  119.79   19.60
   8   4  -5  112.49   26.80
   8   4  -5  107.19   22.80
  -8   4   5  112.89   17.20
   7  -4  -5  126.39   10.20
   7  -4  -5  123.59   18.50
  -7  -4   5  105.09   17.10
   7   4  -5  128.79   19.90
  -7   4   5  134.09   17.60
   7   4  -5  122.89   27.20
  -7   4   5  125.99    9.00
  -6  -4   5  127.39   18.60
   6  -4  -5  132.59   11.10
   6  -4  -5   94.49   15.50
  -6  -4   5  135.19   17.80
   6   4  -5  115.09   19.10
   6   4  -5  107.79   17.40
  -6   4   5  121.69   16.00
  -6   4   5  118.69    9.70
  -5  -4   5  157.58   19.60
   5  -4  -5  167.38   13.30
   5  -4  -5  174.18   19.10
  -5  -4   5  153.68   18.50
  -5   4   5  168.28   17.90
  -5   4   5  186.78   13.20
   5   4  -5  178.68   20.80
   5   4  -5  136.59   19.80
   4  -4  -5 1048.60   49.00
  -4  -4   5 1067.19   50.39
   4  -4  -5 1030.10   40.90
  -4  -4   5 1094.99   51.39
   4   4  -5 1078.69   52.19
   4   4  -5 1042.40   52.49
  -4   4   5 1145.39   41.60
  -4   4   5 1133.29   53.69
  -3  -4   5 1335.17   55.29
   3  -4  -5 1356.26   54.99
  -3  -4   5 1315.57   55.69
   3  -4  -5 1369.26   49.60
  -3   4   5 1296.97   48.50
  -3   4   5 1304.57   53.19
   3   4  -5 1305.17   56.39
   3   4  -5 1284.17   56.49
  -2  -4   5  281.87   20.70
   2  -4  -5  280.87   19.90
  -2  -4   5  293.97   22.40
   2  -4  -5  274.07   21.20
  -2   4   5  263.87   20.70
   2   4  -5  260.57   20.70
   2   4  -5  248.98   21.60
  -1  -4   5    9.30    4.90
   1  -4  -5    8.00    5.50
   1  -4  -5   15.80    7.30
  -1  -4   5    6.30    4.50
  -1   4   5    3.30    4.50
   1   4  -5    8.00    5.10
   1   4  -5   -3.90    2.70
  -1   4   5    0.50    3.40
   0  -4   5   35.40    7.40
   0  -4   5   21.90    6.70
   0  -4  -5   24.80    7.70
   0  -4  -5   30.80    8.20
   0   4   5   41.50   11.10
   0   4  -5   21.10    6.10
   0   4   5   47.30   11.70
   0   4  -5   22.60    7.70
  -1  -4  -5  131.19   16.00
   1  -4   5  150.88   14.10
   1  -4   5  167.08   10.30
   1   4   5  146.89   16.50
   1   4   5  150.38   16.80
  -1   4  -5  159.58   15.00
  -1   4  -5  145.39   10.20
   2  -4   5  385.06   13.40
  -2  -4  -5  395.86   28.90
   2  -4   5  400.16   26.30
  -2   4  -5  393.96   23.20
  -2   4  -5  377.66   14.10
   2   4   5  412.76   29.30
   2   4   5  381.16   27.70
  -3  -4  -5   52.49   12.50
   3  -4   5   46.80    8.70
  -3   4  -5   48.00    9.80
   3   4   5   64.19   16.50
   3   4   5   34.00   10.00
   4  -4   5   47.60    4.10
   4  -4   5   52.09    7.60
   4  -4   5   49.30    4.30
   4   4   5   49.50   14.50
  -4   4  -5   45.50    9.10
   4   4   5   36.90   10.10
   4   4   5   40.70   11.10
   5  -4   5    6.90    3.30
   5  -4   5   11.40    4.50
   5  -4   5    9.20    3.40
  -5   4  -5   15.00    5.60
   5   4   5    8.00    6.00
   5   4   5   -5.00    2.40
   5   4   5    5.10    6.00
   6  -4   5  125.29   11.50
   6  -4   5  148.19   10.20
   6  -4   5  143.69   11.90
   6   4   5  155.18   19.70
   6   4   5  149.39   20.20
  -6   4  -5  127.79   10.40
   6   4   5  134.09   20.10
   7  -4   5  170.58   14.90
   7  -4   5  158.98    9.00
   7  -4   5  152.98    8.90
   7   4   5  131.29   20.40
   7   4   5  164.08   21.30
   7   4   5  147.69   22.20
   8  -4   5   10.80    6.50
   8   4   5   37.70   13.50
   8   4   5   34.20   14.10
   9  -4   5    5.30    6.60
   9   4   5    6.10    7.70
   9   4   5   -1.60    4.90
  10  -4   5  186.58   20.80
  10   4   5  247.28   28.50
  10   4   5  199.68   54.89
  11  -4   5   21.40   10.90
  11  -4   5    8.10    7.60
  11   4   5   24.40   12.80
  11   4   5   16.60   14.20
  12  -4   5  170.48   22.50
  12   4   5  182.78   27.50
  12   4   5  148.19   32.60
  12  -5  -5    5.90    8.60
  12   5  -5   -2.00    8.20
  12   5  -5    7.70   11.10
  11  -5  -5   67.79   20.10
  11   5  -5   55.99   22.70
  11   5  -5   45.20   18.00
  10  -5  -5    4.60    8.90
  10   5  -5    2.00    6.70
  10   5  -5   -4.80    5.70
   9  -5  -5  220.08   26.20
   9   5  -5  149.59   25.10
   9   5  -5  220.58   44.10
   8  -5  -5   72.49   18.80
   8   5  -5   42.30   16.80
   8   5  -5   60.29   18.90
  -8   5   5   83.39   17.50
   7  -5  -5  825.92   47.30
   7   5  -5  735.73   52.49
  -7   5   5  772.92   43.20
   7   5  -5  715.63   48.60
   6  -5  -5  111.59    9.30
  -6  -5   5  106.69   20.40
   6  -5  -5   97.09   15.80
   6   5  -5   80.39   18.40
  -6   5   5  116.29    8.90
   6   5  -5  118.19   24.80
  -6   5   5   92.09   14.50
  -5  -5   5  579.14   38.80
   5  -5  -5  662.23   28.70
   5  -5  -5  657.13   38.40
  -5  -5   5  653.43   41.80
   5   5  -5  717.93   45.30
   5   5  -5  683.63   43.30
  -5   5   5  628.84   36.50
  -5   5   5  712.53   28.80
  -4  -5   5   34.60   11.10
   4  -5  -5   70.09    9.20
   4  -5  -5   43.80   11.10
  -4  -5   5   32.40    9.70
   4   5  -5   62.89   15.50
   4   5  -5   50.59   14.20
  -4   5   5   59.19   13.10
  -4   5   5   58.69    8.80
   3  -5  -5   23.60    9.10
  -3  -5   5   22.80    8.90
   3  -5  -5   22.60    7.10
  -3  -5   5    9.50    6.20
   3   5  -5   19.20    9.30
   3   5  -5    9.80    6.60
  -3   5   5   13.60    6.00
  -3   5   5   25.70    9.50
   2  -5  -5   30.10    9.70
  -2  -5   5   10.00    6.20
  -2  -5   5   33.40    9.70
   2  -5  -5   25.90    9.00
  -2   5   5   33.60   11.10
  -2   5   5   27.30    8.40
   2   5  -5   42.00   12.00
   2   5  -5   15.70    7.80
   1  -5  -5 1486.05   58.79
   1  -5  -5 1392.96   58.29
  -1  -5   5 1469.15   52.99
  -1  -5   5 1405.36   57.59
   1   5  -5 1516.15   54.89
   1   5  -5 1357.46   58.49
  -1   5   5 1448.06   58.29
  -1   5   5 1591.74   60.29
   0  -5   5  324.47   23.10
   0  -5  -5  336.37   25.60
   0  -5  -5  328.07   24.70
   0  -5   5  335.57   18.90
   0   5  -5  351.56   20.20
   0   5   5  366.16   26.60
   0   5   5  367.46   26.40
   0   5  -5  341.87   24.10
  -1  -5  -5 1999.60   77.19
   1  -5   5 1958.40   57.29
   1  -5   5 1973.10   67.79
  -1   5  -5 1956.60   58.39
   1   5   5 2082.59   76.99
   1   5   5 2085.49   78.39
  -1   5  -5 1927.21   68.99
   2  -5   5   54.79    8.90
  -2  -5  -5   33.90   10.50
  -2   5  -5   52.89    4.20
  -2   5  -5   68.19   13.10
   2   5   5   51.49   13.20
   2   5   5   41.90   11.00
   3  -5   5  187.48   17.70
   3   5   5  256.77   22.60
   3   5   5  209.28   22.00
   3   5   5  198.58   22.40
  -3   5  -5  230.08   17.20
   4  -5   5  177.58   13.00
   4   5   5  176.58   22.00
   4   5   5  141.19   18.50
   4   5   5  191.58   21.50
  -4   5  -5  169.38   14.10
   5  -5   5   97.29    8.80
   5   5   5  128.69   24.50
  -5   5  -5   94.39    9.60
   5   5   5  125.69   23.70
   5   5   5  122.09   17.40
   6  -5   5  237.28   11.40
   6  -5   5  232.98   11.40
   6  -5   5  227.88   10.90
   6   5   5  200.38   23.80
   6   5   5  241.88   26.80
   6   5   5  251.27   28.40
   7  -5   5  805.62   31.50
   7  -5   5  797.22   31.30
   7   5   5  821.22   50.79
   7   5   5  947.11   56.19
   8  -5   5  134.29   13.20
   8   5   5  126.79   25.80
   8   5   5  149.19   23.50
   9  -5   5  102.79   13.20
   9  -5   5   86.19   12.00
   9   5   5  148.99   22.80
   9   5   5  121.39   28.70
  10  -5   5    2.10    4.80
  10  -5   5   -0.90    3.70
  10   5   5    1.20    8.80
  10   5   5   -1.30    4.80
  11  -5   5    4.30    4.70
  11   5   5   13.40   15.00
  11   5   5    4.20    9.10
  12   5   5   21.50   15.80
  12   5   5    8.60   10.70
  12  -6  -5   37.00   15.90
  12   6  -5   76.89   28.50
  12   6  -5   71.19   24.60
  11  -6  -5   22.30   12.10
  11   6  -5    8.40   11.70
  11   6  -5    7.50    9.90
  10  -6  -5  210.08   26.70
  10   6  -5  168.68   34.60
  10   6  -5  254.97   33.80
   9  -6  -5    4.00    5.80
   9   6  -5   14.60   13.20
   9   6  -5    7.30    9.00
  -9   6   5    1.60    5.20
   8  -6  -5  120.59   23.70
   8   6  -5  108.29   23.10
  -8   6   5  103.39   16.30
   8   6  -5   87.89   22.90
   7  -6  -5  115.19   17.70
   7   6  -5   97.29   24.50
  -7   6   5   96.79   15.30
   7   6  -5  135.59   29.10
   6  -6  -5  116.39   17.30
   6   6  -5  118.29   25.60
  -6   6   5  106.09   15.50
  -6   6   5  148.59    9.80
  -6   6   5  143.39    9.40
   6   6  -5  151.18   22.20
  -5  -6   5    5.10    5.20
   5  -6  -5    0.10    4.20
   5  -6  -5    1.60    3.50
  -5  -6   5   -0.70    2.80
   5   6  -5    9.40    7.80
   5   6  -5   13.50    9.60
  -5   6   5   -1.70    1.90
  -5   6   5    1.30    3.80
   4  -6  -5   96.09   11.70
   4  -6  -5   83.09   13.30
  -4  -6   5  119.49   17.10
  -4  -6   5   96.69   15.10
  -4   6   5   99.09   22.10
   4   6  -5  104.29   20.80
  -4   6   5   79.39   13.00
   4   6  -5   85.19   18.80
   3  -6  -5   20.60    7.80
  -3  -6   5   15.90    8.20
  -3  -6   5   21.70    9.20
   3  -6  -5   25.30    8.80
  -3   6   5   17.10    7.20
   3   6  -5   10.20    7.70
   3   6  -5   10.30    6.90
  -3   6   5    9.70    5.90
  -2  -6   5  162.78   18.50
  -2  -6   5  199.48   18.40
   2  -6  -5  179.18   18.60
   2  -6  -5  174.78   17.50
   2   6  -5  147.89   17.00
   2   6  -5  196.28   21.00
  -2   6   5  196.08   19.70
  -2   6   5  181.28   17.90
   1  -6  -5    3.40    4.70
  -1  -6   5   -1.20    2.50
   1  -6  -5    7.40    5.80
  -1  -6   5   -2.30    2.10
   1   6  -5    4.00    5.50
  -1   6   5    7.90    6.70
   1   6  -5   18.00    6.70
  -1   6   5   29.30   10.30
   0  -6   5    7.10    4.50
   0  -6  -5    4.30    5.90
   0  -6   5   14.20    6.00
   0   6   5   16.70    8.10
   0   6  -5    2.60    4.50
   0   6   5    4.00    5.90
   0   6  -5   13.50    6.60
   1  -6   5  426.56   19.00
  -1  -6  -5  401.56   31.20
   1  -6   5  390.86   25.30
   1   6   5  395.96   30.90
   1   6   5  441.76   31.60
   1   6   5  417.96   28.80
  -1   6  -5  359.56   25.60
  -1   6  -5  412.86   20.10
   2  -6   5  315.47   21.40
  -2   6  -5  324.27   12.50
   2   6   5  293.87   24.90
   2   6   5  329.57   28.40
  -2   6  -5  316.27   22.90
   2   6   5  332.17   29.20
   3  -6   5   92.19   10.90
   3   6   5   91.39   27.50
   3   6   5   96.19   21.20
  -3   6  -5   83.49   11.50
   4  -6   5  315.47   18.50
   4   6   5  298.27   27.50
   4   6   5  320.17   28.20
  -4   6  -5  334.97   20.70
   4   6   5  255.67   28.10
   5  -6   5  334.37   17.10
   5   6   5  303.67   29.40
  -5   6  -5  366.96   19.60
   5   6   5  358.06   31.60
   5   6   5  357.86   34.10
   6  -6   5    2.70    1.80
  -6   6  -5    0.80    1.90
   6   6   5   -1.60    5.10
   6   6   5   -1.20    4.00
   7   6   5   74.89   18.60
   7   6   5   74.79   21.30
   8   6   5   16.60   10.60
   8   6   5   16.90   11.90
   9  -6   5    0.10    2.60
   9  -6   5    9.60    4.00
   9   6   5   -1.10    5.40
   9   6   5    6.50    9.80
  10  -6   5   93.89   18.50
  10  -6   5   97.79   10.60
  10   6   5  104.89   28.50
  10   6   5  122.79   31.20
  11  -6   5    6.00    4.90
  11   6   5   -4.00    7.70
  11   6   5   -4.70    4.30
  12   6   5   33.50   18.60
  12   6   5    6.80    8.60
  12  -7  -5    5.50    8.20
  12   7  -5    7.30   11.30
  12   7  -5   30.80   18.30
  11  -7  -5    1.80    6.20
  11   7  -5   -1.30    8.60
  11   7  -5   -4.30    6.60
  10  -7  -5   -1.10    5.60
  10   7  -5   -9.40    5.40
  10   7  -5   -4.40    5.80
   9  -7  -5   -4.70    3.50
   9   7  -5    7.70    9.20
   9   7  -5   -2.60    5.40
  -9   7   5   -0.30    5.20
   8  -7  -5    1.50    5.30
  -8   7   5    2.00    5.30
   8   7  -5    4.40    9.90
   8   7  -5   14.40   11.70
   7  -7  -5  386.36   31.00
   7   7  -5  348.17   37.50
   7   7  -5  325.07   35.30
  -7   7   5  326.27   27.20
   6  -7  -5   59.79   15.10
   6   7  -5   82.49   21.60
  -6   7   5   44.70    6.50
  -6   7   5   46.00   12.50
  -6   7   5   51.19    5.80
   6   7  -5   46.00   15.30
   5  -7  -5  656.13   38.60
  -5   7   5  612.04   26.80
   5   7  -5  571.44   42.90
   5   7  -5  535.05   41.60
  -5   7   5  574.14   28.60
  -5   7   5  576.44   35.20
   4  -7  -5    2.30    4.70
  -4  -7   5   -0.30    3.80
  -4  -7   5    5.30    6.90
   4   7  -5    5.60    8.00
  -4   7   5   -3.10    2.30
  -4   7   5    0.20    3.20
  -4   7   5    3.60    3.90
   4   7  -5    0.70    5.60
  -3  -7   5   37.80   11.80
  -3  -7   5   80.39   16.30
   3  -7  -5   62.29   15.00
  -3   7   5   88.69   17.40
   3   7  -5   68.49   17.60
  -3   7   5   59.89   10.00
   3   7  -5   61.99   16.00
  -3   7   5   78.69   15.50
   2  -7  -5   10.00    6.30
  -2  -7   5    3.30    3.70
  -2   7   5    9.50    6.40
   2   7  -5   -0.70    4.50
  -2   7   5    9.90    6.60
  -2   7   5    7.50    5.80
   2   7  -5   15.30    8.00
  -1  -7   5  276.37   24.10
  -1  -7   5  257.67   20.00
  -1   7   5  281.47   24.30
   1   7  -5  264.27   24.70
   1   7  -5  237.38   20.50
  -1   7   5  257.47   21.20
  -1   7   5  250.27   23.50
   0  -7   5   11.60    5.10
   0  -7   5    3.70    5.90
   0   7   5   -0.20    2.90
   0   7   5    8.00    7.30
   0   7  -5   -3.20    2.30
   0   7   5    1.40    4.90
   0   7  -5   -5.50    2.10
   1  -7   5  862.01   42.10
  -1   7  -5  830.72   42.70
   1   7   5  862.81   49.90
   1   7   5  906.41   49.50
   1   7   5  858.11   45.60
  -1   7  -5  870.71   33.90
   2  -7   5    5.00    4.00
   2   7   5   12.70    7.90
   2   7   5    0.40    4.90
  -2   7  -5    7.70    3.00
  -2   7  -5    5.60    5.20
   2   7   5   12.20    8.90
   3  -7   5  747.63   35.30
   3   7   5  801.02   49.30
   3   7   5  751.42   49.50
  -3   7  -5  786.42   38.00
   3   7   5  749.33   44.40
   3   7   5  829.42   47.60
   4  -7   5   78.99    9.80
   4   7   5   51.69   14.00
   4   7   5   56.09   14.90
   4   7   5   73.49   27.40
  -4   7  -5   92.09   11.70
   5  -7   5  563.84   24.20
   5   7   5  518.55   39.90
   5   7   5  544.05   40.60
  -5   7  -5  556.44   26.60
   6   7   5    5.70    8.40
  -6   7  -5    5.50    2.20
   6   7   5    9.40    8.30
   7   7   5  332.37   34.10
   7   7   5  307.37   34.00
   8   7   5   13.00   11.80
   8   7   5   -5.00    4.90
   9   7   5  146.39   31.50
   9   7   5  124.59   30.10
  10   7   5    5.20    8.80
  10   7   5   20.10   13.60
  11   7   5   -0.20    7.80
  11   7   5    4.10    8.70
  11  -8  -5   22.90   12.50
  11   8  -5   41.20   23.30
  11   8  -5    8.40   12.70
  10  -8  -5   46.60   15.00
  10   8  -5   81.79   29.80
  10   8  -5   28.70   14.60
   9  -8  -5   33.60   13.40
   9   8  -5   40.50   19.10
  -9   8   5    4.70    6.70
   9   8  -5   22.00   14.00
   8   8  -5   84.79   23.10
   8   8  -5   73.69   23.40
   7  -8  -5   -0.90    4.60
   7   8  -5    2.90    7.40
  -7   8   5    6.70    5.30
   7   8  -5   -7.10    4.00
   6  -8  -5  162.68   19.90
   6   8  -5  175.18   26.40
  -6   8   5  152.98   18.50
  -6   8   5  150.18   10.60
   6   8  -5  120.49   27.00
  -6   8   5  164.78   11.90
   5  -8  -5  262.77   24.10
   5   8  -5  289.17   31.20
  -5   8   5  283.17   18.20
   5   8  -5  254.27   29.80
  -5   8   5  243.78   23.10
  -5   8   5  301.07   20.90
  -4  -8   5  486.45   37.70
   4  -8  -5  422.86   31.40
   4   8  -5  624.44   42.50
   4   8  -5  557.14   41.90
  -4   8   5  463.75   29.70
  -4   8   5  517.65   33.90
  -4   8   5  506.05   27.90
  -3  -8   5  778.12   43.50
  -3  -8   5  725.23   58.99
   3  -8  -5  751.82   41.80
   3   8  -5  695.23   46.10
  -3   8   5  710.53   41.00
  -3   8   5  715.03   40.20
   3   8  -5  657.83   42.50
  -3   8   5  703.73   36.00
   2  -8  -5  342.87   26.80
  -2  -8   5  231.38   24.40
  -2  -8   5  322.57   24.80
   2   8  -5  278.67   24.70
  -2   8   5  258.67   24.40
  -2   8   5  326.77   27.20
   2   8  -5  232.08   25.40
  -2   8   5  256.57   22.00
  -1  -8   5  374.06   29.90
  -1  -8   5  386.16   25.70
   1   8  -5  390.36   27.20
  -1   8   5  412.66   31.10
  -1   8   5  451.55   33.50
  -1   8   5  340.47   26.60
   1   8  -5  361.76   30.80
   0  -8   5  162.68   18.80
   0   8  -5  139.89   14.70
   0   8   5  149.29   19.30
   0   8  -5  137.19   18.30
   0   8   5  124.79   18.70
   0   8   5  146.89   18.00
   1  -8   5   85.19   13.50
   1   8   5  117.49   16.90
   1   8   5  120.89   27.80
   1   8   5  100.79   22.00
  -1   8  -5   96.39   10.70
  -1   8  -5  113.19   16.60
   2  -8   5    2.20    4.70
   2   8   5    1.20    5.30
   2   8   5    3.70    5.80
  -2   8  -5    0.10    2.30
  -2   8  -5   -3.20    3.40
   2   8   5    2.40    6.00
  -2   8  -5    3.40    3.00
   3  -8   5  146.19   15.30
  -3   8  -5  166.18   17.60
   3   8   5  219.58   25.10
   3   8   5  202.88   25.50
   3   8   5  182.68   21.90
   4  -8   5  585.44   29.80
   4   8   5  627.94   44.10
  -4   8  -5  630.34   33.00
   4   8   5  517.85   39.70
   5  -8   5   89.19   11.10
   5   8   5   88.29   22.50
  -5   8  -5  102.29   11.80
   5   8   5   66.99   17.50
  -6   8  -5  566.34   20.10
   6   8   5  584.14   45.60
   6   8   5  469.75   41.40
  -6   8  -5  551.44   24.10
   7   8   5   -5.00    3.70
   7   8   5    8.70    8.90
   8   8   5   15.90   13.10
   8   8   5    2.70    7.40
   9   8   5   77.19   25.10
   9   8   5  117.39   26.60
  10   8   5   58.39   19.50
  10   8   5   69.89   23.30
  11   8   5   30.10   17.50
  11   8   5   23.80   15.30
  11  -9  -5   16.90   10.00
  11   9  -5   23.30   17.80
  11   9  -5   52.59   23.70
  10  -9  -5   13.10    8.10
  10   9  -5   -1.90    7.60
  10   9  -5   -5.50    6.90
   9  -9  -5   20.70    9.70
  -9   9   5    0.50    5.70
   9   9  -5    7.40   10.60
   9   9  -5   32.00   17.00
   8  -9  -5  109.89   17.40
  -8   9   5   79.89   17.70
   8   9  -5   95.59   27.90
   8   9  -5   79.69   25.90
   7  -9  -5  516.25   35.30
   7   9  -5  487.95   48.30
   7   9  -5  450.35   44.50
  -7   9   5  483.05   33.20
   6  -9  -5   54.69   14.50
  -6   9   5   47.80   13.30
  -6   9   5   31.90    7.80
   6   9  -5   22.60   14.10
   6   9  -5   28.80   14.10
  -6   9   5   27.00    6.40
   5  -9  -5  140.29   18.30
  -5   9   5  125.29   14.40
   5   9  -5  106.79   23.40
   5   9  -5  142.39   23.50
  -5   9   5  136.89   13.60
  -5   9   5  114.59   16.60
   4  -9  -5   30.20   11.30
   4   9  -5   22.10   11.50
  -4   9   5   21.00    9.20
  -4   9   5   27.30   10.60
  -4   9   5   27.10    9.00
   4   9  -5   14.80   10.50
  -3  -9   5    3.70    4.60
   3   9  -5   -5.30    3.50
  -3   9   5    3.60    4.30
   3   9  -5    3.90    7.20
  -3   9   5   -3.10    2.70
  -3   9   5    6.70    5.20
  -2  -9   5   12.80    8.70
  -2   9   5   14.90    8.50
  -2   9   5   16.30    8.30
   2   9  -5   20.00   10.90
  -2   9   5    7.50    7.00
  -1  -9   5  522.95   37.40
   1   9  -5  465.25   37.40
  -1   9   5  632.24   45.30
   1   9  -5  593.84   35.40
  -1   9   5  505.35   44.70
  -1   9   5  667.23   41.70
   0  -9   5  248.68   24.10
   0   9   5  256.77   27.50
   0   9   5  214.58   23.00
   0   9   5  183.08   27.20
   0   9  -5  201.88   18.60
   0   9  -5  213.38   23.80
   1  -9   5  764.92   43.60
   1   9   5  769.52   50.29
  -1   9  -5  930.91   37.80
  -1   9  -5  852.71   49.60
   1   9   5  913.01   55.89
   1   9   5  872.81   50.39
   2  -9   5   61.29   13.70
  -2   9  -5   39.90    6.60
   2   9   5   50.89   13.50
  -2   9  -5   41.20   13.00
  -2   9  -5   39.30    6.40
   2   9   5   24.40   10.70
   2   9   5   54.29   15.80
   3  -9   5   34.10   10.50
   3   9   5   45.10   15.40
  -3   9  -5   46.10   13.50
   3   9   5   32.10   12.90
   4  -9   5   79.39   11.50
   4   9   5   77.49   19.40
  -4   9  -5   92.59   17.10
   4   9   5   86.19   21.60
   5  -9   5  149.59   13.30
   5   9   5  160.98   24.10
   5   9   5  159.58   24.20
  -5   9  -5  152.18   15.50
   6   9   5   19.90   12.80
  -6   9  -5    9.20    3.50
   6   9   5   17.30   10.30
  -6   9  -5   33.50    7.10
   7   9   5  218.68   46.40
   7   9   5  231.78   31.70
   8   9   5   86.49   26.00
   8   9   5  127.69   28.50
   9   9   5   47.20   20.80
   9   9   5    9.50   10.70
  10   9   5   -3.90    6.70
  10   9   5   17.00   14.60
  11   9   5   34.80   19.60
  11   9   5   18.60   12.70
  10 -10  -5   12.40    9.40
  10  10  -5   -2.50    9.50
  10  10  -5    9.20   13.60
   9 -10  -5  167.78   39.00
   9  10  -5  105.69   29.90
   9  10  -5  101.49   30.90
   8 -10  -5   -2.40    3.80
   8  10  -5   -6.90    5.50
  -8  10   5    2.90    6.30
   8  10  -5   16.70   12.50
   7 -10  -5   -2.10    3.50
  -7  10   5   -3.30    3.90
   7  10  -5   -1.40    5.80
   7  10  -5    7.40   10.10
   6 -10  -5  200.88   21.70
  -6  10   5  165.28   19.90
  -6  10   5  213.58   24.80
   6  10  -5  174.98   28.60
   6  10  -5  224.18   32.70
  -6  10   5  192.88   14.40
   5 -10  -5   -4.30    3.30
  -5  10   5    1.10    4.20
   5  10  -5    5.10    7.80
  -5  10   5   -3.20    3.00
  -5  10   5    4.40    5.20
   5  10  -5   -6.10    4.00
  -4  10   5   33.70   11.60
  -4  10   5   39.70   10.80
   4  10  -5   -4.50    5.10
   4  10  -5   11.00    9.90
  -4  10   5   15.10    8.40
  -3  10   5   -1.40    3.80
   3  10  -5   -0.70    6.60
  -3  10   5    6.00    6.40
  -3  10   5   -3.20    3.10
   3  10  -5   10.40   10.50
  -2  10   5  198.28   24.70
  -2  10   5  223.78   24.40
   2  10  -5  220.28   24.30
   2  10  -5  207.98   26.90
  -2  10   5  210.18   22.30
  -1  10   5   28.70   11.60
   1  10  -5   35.20   13.30
  -1  10   5   51.09   14.70
   1  10  -5   47.70   13.80
  -1  10   5   34.40   13.20
   0 -10   5   54.59   15.70
   0  10  -5   77.29   18.00
   0  10   5   46.60   14.60
   0  10   5   64.19   17.60
   0  10  -5   47.90   12.70
   0  10   5   49.99   19.00
   1 -10   5   96.59   20.20
  -1  10  -5  125.09   14.00
   1  10   5  153.28   20.30
   1  10   5  181.68   36.40
   1  10   5  147.59   20.90
  -1  10  -5  110.19   18.40
  -2  10  -5    1.80    6.10
   2  10   5    8.70    8.50
  -2  10  -5   20.00    5.80
   2  10   5   24.10    9.70
  -2  10  -5   36.70    7.60
   3 -10   5   85.39   13.70
   3  10   5  163.58   23.60
  -3  10  -5   92.19   19.30
   3  10   5  121.19   25.90
   4 -10   5   84.89   12.60
   4  10   5  120.99   27.40
  -4  10  -5  106.79   15.20
   4  10   5   88.79   23.10
   5  10   5   79.29   23.50
  -5  10  -5   74.29   11.70
   5  10   5   94.09   26.00
  -6  10  -5  144.19   11.50
   6  10   5   70.89   24.80
  -6  10  -5  109.49   10.50
   7  10   5   -5.40    4.80
   7  10   5    5.70    8.10
   8  10   5   18.40   13.70
   8  10   5   -4.90    4.60
   9  10   5  115.39   28.40
   9  10   5  164.08   34.00
  10  10   5    4.50    9.40
  10  11  -5   85.99   32.40
   9 -11  -5   10.40    7.80
   9  11  -5   11.40   14.10
   9  11  -5   26.50   19.70
   8 -11  -5  156.98   18.80
   8  11  -5  234.28   36.40
   8  11  -5  192.88   39.30
   7  11  -5  108.59   30.80
  -7  11   5  104.69   19.60
   7  11  -5  133.89   33.20
   6  11  -5  374.86   41.00
  -6  11   5  284.97   25.90
   6  11  -5  338.47   40.10
  -6  11   5  273.07   20.60
  -6  11   5  295.37   19.40
  -5  11   5   -2.90    3.30
   5  11  -5    4.60    8.80
  -5  11   5    4.10    5.80
  -5  11   5   -1.40    3.00
   4  11  -5  359.76   38.40
  -4  11   5  336.07   29.50
  -4  11   5  325.77   29.20
   4  11  -5  364.16   36.40
  -4  11   5  397.86   28.60
   3  11  -5   -3.00    5.50
  -3  11   5   -4.00    3.00
   3  11  -5   -5.70    5.10
  -3  11   5   -0.30    4.10
  -3  11   5    0.60    4.70
  -2  11   5  986.40   52.59
  -2  11   5  895.31   53.79
  -2  11   5 1010.80   58.69
   2  11  -5  990.10   61.79
   2  11  -5  964.10   54.19
  -1  11   5  130.09   19.40
  -1  11   5  145.69   21.40
   1  11  -5  142.79   22.90
   1  11  -5  134.29   18.70
   0  11   5  356.56   32.30
   0  11  -5  311.47   25.10
   0  11  -5  286.77   30.70
  -1  11  -5  159.28   16.80
  -1  11  -5  180.68   17.10
   1  11   5  164.58   23.10
   1  11   5  187.98   23.20
  -1  11  -5  171.18   23.90
   2 -11   5  576.44   38.20
   2  11   5  501.85   40.10
  -2  11  -5  539.05   26.90
   2  11   5  556.54   44.10
  -2  11  -5  541.35   25.90
  -2  11  -5  532.15   38.80
   3 -11   5   65.49   17.80
   3  11   5   29.80   12.90
   3  11   5   42.10   15.70
  -3  11  -5   66.99   16.80
   4 -11   5   82.59   13.00
   4  11   5   76.79   22.00
  -4  11  -5   86.39   18.00
   4  11   5  102.19   25.40
  -5  11  -5   85.39   16.10
   5  11   5  111.99   34.10
  -5  11  -5   56.79   13.30
   5  11   5   63.29   21.90
   6  11   5  391.06   41.70
   6  11   5  355.96   40.40
  -6  11  -5  358.46   20.90
  -6  11  -5  341.97   20.40
   7  11   5   57.89   22.70
   7  11   5   18.50   13.20
   8  11   5   46.00   19.40
   8  11   5   97.19   29.50
   9  11   5   12.80   13.00
   9  11   5   20.10   13.90
   9  12  -5  159.58   61.79
   9  12  -5  125.99   50.29
   8  12  -5   16.40   16.70
   8  12  -5   -6.40    6.60
   7  12  -5    3.60   10.50
   7  12  -5   -9.30    5.60
  -6  12   5   43.40   13.70
   6  12  -5   51.89   22.00
  -6  12   5   59.99   11.90
   6  12  -5   81.69   27.50
  -6  12   5   48.30   11.70
   5  12  -5  122.59   31.90
   5  12  -5   84.49   24.40
  -5  12   5   57.39   19.10
  -5  12   5  107.69   14.90
  -5  12   5  123.39   17.80
   4  12  -5  169.78   26.60
  -4  12   5  228.68   23.00
  -4  12   5  224.18   25.40
  -4  12   5  210.28   24.00
   4  12  -5  170.78   35.50
  -3  12   5   77.89   18.10
   3  12  -5   76.19   19.70
  -3  12   5   96.99   22.00
   3  12  -5   96.39   25.40
  -3  12   5   57.59   18.40
   2  12  -5   -2.00    6.40
  -2  12   5   25.40   11.10
   2  12  -5    9.10    9.80
  -2  12   5   23.50   11.90
   1  12  -5   18.30   12.40
  -1  12   5   20.30   10.20
   1  12  -5    3.00    7.10
   0  12   5   -2.40    5.70
   0  12  -5    0.20    5.50
   0  12  -5   -0.90    8.00
   0  12   5    3.00    6.50
  -1  12  -5   48.80   16.70
  -1  12  -5   57.39   13.10
  -1  12  -5   45.60   12.30
   1  12   5   49.40   16.30
   1  12   5   47.40   17.40
  -2  12  -5    6.40    7.20
   2  12   5   -2.20    5.20
  -2  12  -5    7.70    5.10
   2  12   5    5.90    8.90
  -2  12  -5   -9.10    3.80
   3 -12   5   88.59   18.20
  -3  12  -5  103.69   21.70
   3  12   5  101.79   25.20
   3  12   5  124.39   27.80
   4  12   5   11.30    9.30
   4  12   5    1.70    6.40
  -4  12  -5    8.60    7.90
  -5  12  -5   79.59   17.00
  -5  12  -5   93.89   18.40
   5  12   5   85.59   24.30
   5  12   5   89.29   24.10
  -6  12  -5    8.00    5.10
  -6  12  -5    4.10    5.60
   6  12   5    6.50   10.30
   6  12   5   -0.50    7.20
   7  12   5   22.20   14.00
   7  12   5   24.50   16.70
   8  12   5   17.30   13.30
   8  12   5   24.20   13.70
   9  12   5  100.79   31.00
   9  12   5  125.19   35.10
   8  13  -5   45.00   36.50
   8  13  -5   45.10   22.30
   7  13  -5   13.90   13.60
   7  13  -5   -5.30    6.90
  -6  13   5  378.56   24.80
   6  13  -5  421.56   46.20
   6  13  -5  305.67   42.30
   5  13  -5   34.70   18.50
  -5  13   5   55.39   15.10
  -5  13   5   36.70   14.00
   5  13  -5   64.59   23.30
   4  13  -5   99.39   28.90
  -4  13   5   38.80   13.50
  -4  13   5   88.49   21.70
  -4  13   5   80.09   17.90
   4  13  -5  130.29   30.70
  -3  13   5   14.40   10.30
   3  13  -5   20.80   13.60
  -3  13   5   10.90    7.40
   3  13  -5   15.80   10.40
   2  13  -5  194.78   25.40
  -2  13   5  153.08   20.20
   2  13  -5  169.48   38.50
  -2  13   5  132.89   20.60
  -1  13   5    8.70    7.60
   1  13  -5    8.70    7.60
   1  13  -5   -4.50    6.20
  -1  13   5   -5.90    3.10
   0  13   5  136.29   22.90
   0  13  -5  169.18   20.50
   0  13   5  169.78   23.40
   0  13  -5  183.88   22.60
   0  13  -5  122.59   28.00
  -1  13  -5   10.50    6.80
   1  13   5    0.30    6.00
  -1  13  -5   11.30   11.40
  -1  13  -5   16.70    8.00
   1  13   5    8.40   10.10
  -2  13  -5  140.59   13.90
   2  13   5  161.68   24.90
   2  13   5  216.88   51.19
  -2  13  -5  179.58   24.70
  -2  13  -5  132.09   14.00
   3  13   5   34.80   17.40
  -3  13  -5   63.59   19.30
   3  13   5    7.00    8.30
   4  13   5  107.69   27.50
  -4  13  -5   74.79   19.20
   4  13   5   64.09   21.40
  -4  13  -5   85.89   20.70
   5  13   5   38.50   17.80
   5  13   5   14.00   12.10
  -5  13  -5   24.50   10.50
  -5  13  -5   15.30    9.50
  -6  13  -5  129.29   14.50
   6  13   5  154.78   37.80
   6  13   5  134.09   32.30
   7  13   5   55.49   25.10
   7  13   5   71.29   28.10
   8  13   5   92.49   29.90
   8  13   5   55.09   23.90
   7  14  -5    0.20    9.20
   7  14  -5   -0.50   11.30
   6  14  -5   16.60   14.00
  -6  14   5   10.40    6.90
   6  14  -5   -8.60    5.60
  -5  14   5   67.29   16.40
   5  14  -5   84.79   26.30
   5  14  -5   37.20   20.30
  -5  14   5   97.29   18.60
   4  14  -5   15.10   12.90
  -4  14   5   41.50   13.70
   4  14  -5   19.70   13.40
  -4  14   5   29.00   15.80
  -4  14   5   14.70    9.50
   3  14  -5   74.19   22.30
  -3  14   5   64.39   17.40
   3  14  -5   96.29   27.70
  -3  14   5   68.79   18.90
  -2  14   5    6.30    7.30
  -2  14   5   23.00   11.20
   2  14  -5   31.00   15.00
   2  14  -5   35.40   14.30
  -1  14   5  100.19   21.30
   1  14  -5   33.70   15.10
   1  14  -5   51.39   16.80
  -1  14   5   37.50   13.30
   0  14  -5   12.80    8.30
   0  14  -5    7.00    7.80
   0  14   5   -1.50    5.10
   0  14   5   -0.30    5.20
   0  14  -5   30.10   15.50
   1  14   5   45.80   17.20
  -1  14  -5   37.00   11.40
  -1  14  -5    6.70    8.40
  -1  14  -5   40.80   11.80
   1  14   5   21.70   13.50
   2  14   5   11.80   11.70
  -2  14  -5   26.20   14.40
   2  14   5   19.50   18.90
  -2  14  -5   10.30    5.70
  -2  14  -5    9.60    5.60
   3  14   5   84.39   23.30
   3  14   5   92.79   25.30
  -3  14  -5  121.99   26.80
   4  14   5    2.90    9.20
  -4  14  -5    8.00    9.10
   4  14   5   21.10   14.00
  -5  14  -5   31.60   13.00
   5  14   5   68.89   23.00
   5  14   5   55.19   20.70
   6  14   5   36.20   19.50
  -6  14  -5   53.59   15.40
   6  14   5   28.50   16.60
   7  14   5   23.10   20.50
   7  14   5   15.10   16.40
   6  15  -5   -3.90   10.20
   6  15  -5   13.60   15.70
  -5  15   5    5.20    5.70
   5  15  -5    1.80    9.70
   5  15  -5   -3.20    9.40
  -5  15   5    0.10    6.90
  -4  15   5   34.80   12.00
   4  15  -5   31.90   16.00
  -4  15   5   34.00   14.10
   4  15  -5  105.59   31.20
   3  15  -5   -3.80    6.00
  -3  15   5   -0.50    3.90
  -3  15   5   -0.90    4.90
   3  15  -5   -2.30    5.90
  -2  15   5   20.40   10.20
   2  15  -5   -2.90    6.80
  -2  15   5   -1.40    4.40
   2  15  -5   27.20   14.50
   1  15  -5   68.39   18.50
   1  15  -5   34.70   18.70
  -1  15   5   76.09   23.80
  -1  15   5   47.20   16.20
   0  15   5  150.68   23.50
   0  15  -5  214.68   24.20
   0  15  -5  154.58   35.60
   0  15   5  157.48   32.20
   1  15   5   -3.90    4.50
   1  15   5   -5.90    5.10
  -1  15  -5    3.30    7.20
  -1  15  -5   12.50   14.90
  -2  15  -5  117.49   27.10
   2  15   5   88.49   24.40
   2  15   5   81.79   27.90
  -2  15  -5   68.89   10.90
  -3  15  -5   16.20   13.70
   3  15   5   26.30   14.60
   3  15   5   10.00   11.70
  -4  15  -5    4.90    7.70
   4  15   5    8.80   11.80
   4  15   5   15.80   13.50
   5  15   5   24.70   17.00
  -5  15  -5   13.50    8.40
   5  15   5    5.30    9.10
   6  15   5   61.39   23.00
   6  15   5   55.59   30.80
  -4  16   5   -1.80    5.70
  -4  16   5    4.10    6.50
   4  16  -5   23.60   14.60
   3  16  -5   25.50   17.20
  -3  16   5   22.80   11.80
   3  16  -5   -0.80    8.00
   2  16  -5  101.39   33.00
  -2  16   5  139.69   30.80
  -2  16   5  133.09   21.30
   2  16  -5   94.99   26.40
  -1  16   5   17.90   11.60
  -1  16   5   16.20   14.00
   1  16  -5    8.40    9.60
   1  16  -5   -5.60    6.80
   0  16  -5   17.30   11.30
   0  16  -5   16.40   15.10
   0  16   5    8.00    7.50
   0  16   5    3.90    7.10
   1  16   5    5.00    7.90
  -1  16  -5    3.00    7.70
  -1  16  -5   39.90   13.60
   1  16   5   10.90   11.70
  -2  16  -5   57.89   21.60
   2  16   5   16.80   11.00
   2  16   5   35.30   18.70
   3  16   5   29.50   15.40
  -3  16  -5   36.50   18.00
   3  16   5   55.89   24.30
   4  16   5   71.19   27.40
  -4  16  -5   45.60   17.80
   4  16   5   68.89   25.20
   1  17  -5   84.19   23.80
  -1  17   5   40.90   16.70
  -1  17   5   54.19   22.00
   1  17  -5   53.19   25.10
   0  17   5   72.99   22.00
   0  17  -5   34.70   18.10
   0  17   5  117.89   31.00
   0  17  -5   73.39   19.50
   1  17   5   96.09   29.20
  -1  17  -5   33.40   17.10
   1  17   5   49.20   19.60
  13   0  -6   12.00   11.90
  12   0  -6   56.59   23.60
  12   0  -6   14.80    8.30
  11   0  -6    2.00    6.60
  11   0  -6    5.70   10.60
  11   0  -6    8.20    7.00
  10   0  -6  295.87   27.50
  10   0  -6  321.67   37.20
 -10   0   6  318.17   26.00
   9   0  -6   -7.60    4.50
  -9   0   6   -2.90    3.40
   9   0  -6   -4.70    3.40
   8   0  -6   81.29   16.90
  -8   0   6  118.79   15.00
   8   0  -6  103.89   24.80
  -7   0   6    4.30    5.00
   7   0  -6   -3.80    4.30
  -7   0   6    0.50    3.40
   7   0  -6   -0.80    5.50
   6   0  -6  634.24   35.90
  -6   0   6  628.74   33.50
   6   0  -6  668.13   44.40
  -5   0   6    0.60    3.20
   5   0  -6    1.20    4.20
   5   0  -6   -1.80    3.20
  -5   0   6    3.40    4.90
   4   0  -6 1601.14   60.79
   4   0  -6 1552.44   65.49
  -4   0   6 1666.93   58.99
  -4   0   6 1532.45   62.99
   3   0  -6   -4.70    2.40
   3   0  -6   -3.80    2.70
  -3   0   6   -4.10    2.40
  -3   0   6    0.40    3.20
   2   0  -6 1325.27   52.19
   2   0  -6 1346.37   51.19
  -2   0   6 1384.36   50.49
  -2   0   6 1234.78   50.19
  -1   0   6   -0.30    3.40
   1   0  -6    1.90    3.50
  -1   0   6    0.20    4.10
   1   0  -6    4.30    5.00
   0   0  -6   27.20    7.90
   0   0   6   20.00    6.70
   0   0  -6   16.40    6.40
   1   0   6   -1.00    2.80
  -1   0  -6   -0.20    2.80
   1   0   6   -4.50    2.60
  -1   0  -6   -0.60    3.00
   2   0   6    9.80    5.30
  -2   0  -6   13.40    5.70
   2   0   6   26.50    7.60
  -2   0  -6    6.10    4.70
  -3   0  -6    8.00    5.80
   3   0   6    2.30    4.40
   3   0   6   -1.00    2.90
   4   0   6   62.39   13.50
  -4   0  -6   54.59   12.60
   4   0   6   41.90    9.80
   4   0   6   45.50   11.10
   5   0   6   -2.90    2.00
   5   0   6    0.20    3.40
  -5   0  -6   -0.20    4.30
  -6   0  -6  280.67   23.80
   6   0   6  269.37   23.10
   6   0   6  253.57   21.90
   7   0   6   -0.80    3.80
   7   0   6    6.30    5.20
   7   0   6    0.10    3.90
   8   0   6    3.20    5.40
   8   0   6   -4.80    3.70
   8   0   6   -1.40    4.00
   9   0   6    1.90    4.60
   9   0   6   10.50    8.70
   9   0   6   -3.40    3.30
  10   0   6   23.40    9.60
  10   0   6   24.50   13.40
  10   0   6   34.20   12.00
  11   0   6   -3.30    4.70
  11   0   6    3.90    7.40
  11   0   6    2.40    6.00
  12   0   6  179.98   21.50
  13  -1  -6   86.29   29.00
  13   1  -6   55.29   16.60
  13   1  -6   38.70   20.20
  12  -1  -6    3.90    5.20
  12  -1  -6   25.90   16.00
  12   1  -6    4.00    6.50
  12   1  -6    6.90   11.60
  11  -1  -6   93.99   14.70
  11  -1  -6  118.39   38.30
  11  -1  -6   91.49   14.90
  11   1  -6  107.09   21.90
  11   1  -6  196.28   40.40
  10  -1  -6   29.30   14.60
 -10  -1   6   46.50   13.40
  10  -1  -6   36.90   11.30
  10   1  -6   73.39   23.10
 -10   1   6   41.80   11.40
  10   1  -6   49.99   16.00
  -9  -1   6   23.40    9.70
   9  -1  -6    6.80    9.80
   9  -1  -6    4.10    6.50
   9   1  -6    4.30    8.60
  -9   1   6   17.10    7.00
   9   1  -6   14.70   10.00
  -8  -1   6  616.14   37.30
   8  -1  -6  653.83   47.90
   8  -1  -6  628.14   36.50
  -8   1   6  705.73   35.20
   8   1  -6  657.73   41.10
   8   1  -6  678.43   49.70
  -7  -1   6   64.59   15.00
  -7  -1   6   60.59   17.60
   7  -1  -6   40.70   14.20
   7  -1  -6   64.99   14.40
  -7   1   6   67.29   16.60
   7   1  -6   35.50   12.20
   7   1  -6   72.59   20.20
  -7   1   6   31.30    8.80
   6  -1  -6  172.28   22.20
   6  -1  -6  184.78   17.80
  -6  -1   6  144.79   19.30
  -6  -1   6  133.89   15.90
  -6   1   6  174.38   15.80
   6   1  -6  222.38   21.60
  -6   1   6  129.59   17.70
   6   1  -6  150.78   21.30
  -5  -1   6   86.49   16.30
  -5  -1   6  104.39   13.40
   5  -1  -6  107.19   13.50
   5  -1  -6  114.19   16.80
  -5   1   6  117.99   16.10
   5   1  -6  151.88   19.50
   5   1  -6   96.39   14.40
  -5   1   6  117.29   12.80
   4  -1  -6    6.50    4.70
   4  -1  -6    7.30    6.50
  -4  -1   6    4.60    5.60
  -4  -1   6   14.10    6.30
  -4   1   6    8.50    6.50
   4   1  -6    8.20    6.10
  -4   1   6   23.00    7.50
   4   1  -6   10.30    7.50
  -3  -1   6   27.20    8.10
  -3  -1   6   42.90   10.70
   3  -1  -6   40.60   10.30
   3  -1  -6   33.80   11.10
   3   1  -6   25.80    8.80
  -3   1   6   29.60    8.30
   3   1  -6   31.40    9.40
  -3   1   6   38.00   10.70
   2  -1  -6   10.60    5.20
  -2  -1   6   12.30    5.80
   2  -1  -6   15.40    6.30
  -2  -1   6   22.20    7.80
  -2   1   6   12.60    6.10
  -2   1   6    7.50    6.60
   2   1  -6   21.20    8.60
   2   1  -6   16.40    7.60
  -1  -1   6   31.80    9.80
   1  -1  -6    8.30    5.70
   1  -1  -6   13.70    6.50
  -1  -1   6   19.60    6.90
  -1   1   6   14.60    6.80
   1   1  -6    6.10    4.50
   1   1  -6    8.40    6.00
   0  -1   6 3832.12  112.19
   0  -1   6 4140.39  122.49
   0  -1  -6 3920.51  116.49
   0   1  -6 4088.49  113.99
   0   1   6 4135.49  118.49
   0   1  -6 3929.71  116.69
   0   1   6 4030.70  124.29
  -1  -1  -6  170.58   15.80
   1  -1   6  184.58   14.30
  -1   1  -6  184.38   15.90
   1   1   6  179.88   16.50
  -1   1  -6  186.48   14.30
   1   1   6  179.58   15.70
  -2  -1  -6    1.90    3.60
   2  -1   6    8.00    5.60
  -2  -1  -6    5.60    4.90
   2  -1   6    0.10    2.70
   2   1   6    0.10    4.00
   2   1   6    4.90    5.00
  -2   1  -6    5.70    4.30
  -2   1  -6    6.80    5.50
   3  -1   6  228.58   18.00
  -3  -1  -6  226.58   20.00
   3  -1   6  237.78   16.90
  -3   1  -6  242.38   19.00
   3   1   6  232.78   19.80
   3   1   6  234.18   20.20
   4  -1   6  423.66   25.80
  -4  -1  -6  369.06   26.90
   4  -1   6  416.86   22.40
   4  -1   6  341.37   22.90
   4   1   6  417.66   28.00
   4   1   6  392.56   24.90
  -4   1  -6  390.46   25.10
   4   1   6  406.46   28.00
   5  -1   6  172.78   16.80
  -5  -1  -6  166.48   18.60
   5  -1   6  155.08   14.80
   5  -1   6  188.18   17.40
  -5   1  -6  144.09   15.60
   5   1   6  190.58   19.80
   5   1   6  199.98   18.60
   6  -1   6   75.99   14.50
   6  -1   6   75.69   11.60
   6   1   6   74.69   16.40
   6   1   6   73.19   12.20
   6   1   6   63.29   13.50
  -6   1  -6   71.29   11.70
   7  -1   6  314.37   21.80
   7  -1   6  315.57   24.60
   7  -1   6  274.57   23.40
   7   1   6  354.86   29.40
   7   1   6  298.17   26.80
   7   1   6  302.27   24.60
   8  -1   6   41.50   10.30
   8  -1   6   48.70   12.70
   8   1   6   72.09   17.30
   8   1   6   53.29   16.10
   8   1   6   31.50   10.60
   9  -1   6  276.67   27.50
   9  -1   6  309.77   23.00
   9  -1   6  291.27   24.70
   9   1   6  298.07   26.00
   9   1   6  291.57   28.70
   9   1   6  263.67   28.80
  10  -1   6   -1.00    4.60
  10  -1   6    0.50    4.30
  10  -1   6    1.40    3.90
  10   1   6   20.20   11.40
  10   1   6    5.20    6.30
  10   1   6    6.30    7.00
  11  -1   6   53.59   17.80
  11  -1   6   66.19   13.80
  11  -1   6   61.69   13.70
  11   1   6   63.89   19.90
  11   1   6   66.19   16.60
  12  -1   6   -1.30    7.00
  12  -1   6   -0.80    4.50
  12   1   6    1.00    9.50
  12   1   6   -3.40    4.60
  13  -2  -6    0.50    9.50
  13   2  -6   11.50   14.30
  13   2  -6    4.50    8.50
  12  -2  -6   79.59   26.70
  12  -2  -6   79.89    9.30
  12   2  -6  109.49   25.50
  12   2  -6  122.19   31.50
  11  -2  -6   38.40    9.40
  11  -2  -6   49.99   10.30
  11  -2  -6   35.60   16.90
  11   2  -6   98.49   22.90
  11   2  -6   44.50   20.00
  10  -2  -6  366.16   24.90
  10  -2  -6  361.76   38.60
  10   2  -6  312.67   38.70
  10   2  -6  363.36   34.20
  -9  -2   6  362.36   30.60
   9  -2  -6  323.67   35.30
   9  -2  -6  341.17   24.50
  -9   2   6  349.77   22.70
   9   2  -6  412.26   41.20
   9   2  -6  454.25   36.20
   8  -2  -6  386.86   35.60
  -8  -2   6  291.87   26.10
   8  -2  -6  312.27   22.90
  -8   2   6  274.67   19.70
   8   2  -6  319.77   34.80
   8   2  -6  340.07   30.10
   7  -2  -6  177.08   23.40
   7  -2  -6  236.98   19.40
  -7  -2   6  220.88   22.00
  -7   2   6  189.88   16.00
   7   2  -6  234.68   28.30
  -7   2   6  177.38   21.40
   7   2  -6  242.18   24.40
  -6  -2   6   30.90   10.70
   6  -2  -6   30.00    8.80
  -6  -2   6   20.80   10.00
   6  -2  -6   31.10   11.80
   6   2  -6   14.00    8.10
  -6   2   6   32.80    8.40
   6   2  -6    5.60    7.20
  -6   2   6    9.30    6.50
   5  -2  -6   76.39   11.10
  -5  -2   6   97.59   19.10
   5  -2  -6   78.09   16.60
  -5  -2   6   61.39   13.30
   5   2  -6   70.09   14.10
  -5   2   6   63.39    9.60
  -5   2   6   86.39   13.70
   5   2  -6   74.99   17.50
  -4  -2   6 1374.96   59.29
   4  -2  -6 1432.86   53.19
  -4  -2   6 1451.45   57.29
   4  -2  -6 1359.76   59.39
   4   2  -6 1444.46   62.29
   4   2  -6 1376.06   58.39
  -4   2   6 1361.76   57.79
  -4   2   6 1369.46   51.39
  -3  -2   6   37.00    9.20
   3  -2  -6   39.70    9.80
   3  -2  -6   41.50   11.90
  -3  -2   6   53.89   12.50
   3   2  -6   46.40   11.60
   3   2  -6   29.30    9.30
  -3   2   6   68.09   15.10
  -3   2   6   43.50   11.60
  -2  -2   6  880.11   39.80
  -2  -2   6  871.81   39.10
   2  -2  -6  795.42   39.30
   2  -2  -6  813.52   37.30
  -2   2   6  875.71   43.50
  -2   2   6  825.32   39.20
   2   2  -6  827.32   39.80
   2   2  -6  834.72   39.40
  -1  -2   6  203.98   16.20
   1  -2  -6  185.18   16.70
   1  -2  -6  195.98   17.50
  -1   2   6  256.57   18.90
   1   2  -6  213.78   17.20
  -1   2   6  224.78   18.50
   0  -2  -6 2540.75   83.99
   0  -2   6 2539.85   80.99
   0  -2  -6 2582.64   83.89
   0  -2   6 2551.84   76.79
   0   2   6 2521.35   82.89
   0   2  -6 2511.15   82.29
   0   2  -6 2564.54   77.49
   0   2   6 2557.14   83.49
  -1  -2  -6  157.18   15.90
   1  -2   6  135.69   13.80
  -1  -2  -6  131.89   14.40
   1  -2   6  131.59   11.10
  -1   2  -6  132.29   13.70
   1   2   6  127.69   14.30
  -1   2  -6  117.59   11.00
   2  -2   6  110.89   10.00
  -2  -2  -6   88.89   13.10
   2   2   6   93.79   13.20
  -2   2  -6  105.09    9.90
   2   2   6  109.39   13.90
  -2   2  -6  101.89   12.00
   3  -2   6  307.67   17.60
  -3  -2  -6  289.47   23.70
   3   2   6  300.47   23.60
   3   2   6  266.97   22.90
  -3   2  -6  242.28   18.70
   4  -2   6  895.31   34.00
   4  -2   6  920.51   38.90
  -4  -2  -6  859.01   45.30
   4  -2   6  897.11   36.60
   4   2   6  782.82   43.00
  -4   2  -6  873.21   38.80
   4   2   6  844.52   45.00
   4   2   6  890.41   42.10
  -5  -2  -6   -5.20    2.90
   5  -2   6    0.00    3.70
   5  -2   6   -2.60    1.90
   5  -2   6    3.60    4.00
  -5   2  -6   -0.70    3.50
   5   2   6   -0.40    4.10
   5   2   6    0.90    3.60
   6  -2   6    4.60    5.20
   6  -2   6    3.30    3.70
   6  -2   6    2.50    4.50
   6   2   6    6.80    8.10
   6   2   6    5.80    6.00
  -6   2  -6    4.60    4.60
   6   2   6    3.30    5.70
   7  -2   6   22.80    7.20
   7  -2   6   12.70    7.60
   7  -2   6   35.80   10.10
   7   2   6   44.60   15.20
   7   2   6   12.90    8.00
   7   2   6   20.60   10.60
   8  -2   6  104.99   12.00
   8  -2   6   84.69   12.40
   8  -2   6   89.79   14.50
   8   2   6  113.79   23.00
   8   2   6  102.49   21.10
   8   2   6   97.79   15.80
   9  -2   6   24.20    8.70
   9  -2   6   20.50   10.40
   9  -2   6   18.50    6.50
   9   2   6   19.60   10.60
   9   2   6   15.20    8.70
   9   2   6   14.30    8.90
  10  -2   6  180.38   15.40
  10  -2   6  161.58   21.70
  10  -2   6  172.08   16.30
  10   2   6  162.18   21.30
  10   2   6  172.08   26.40
  11  -2   6   60.19   17.80
  11  -2   6   68.89   14.00
  11  -2   6   71.09    9.60
  11   2   6   98.49   29.20
  11   2   6   98.69   21.40
  12  -2   6   17.30   10.90
  12   2   6   32.40   14.30
  12   2   6    7.80   10.00
  12  -3  -6   31.10   18.00
  12   3  -6   37.10   20.00
  12   3  -6   53.89   20.10
  11  -3  -6   16.30   12.20
  11   3  -6    8.90    9.50
  11   3  -6   22.30   15.00
  10  -3  -6   22.10    6.10
  10  -3  -6    1.40    6.00
  10  -3  -6    8.50    4.20
  10   3  -6   13.50   13.50
  10   3  -6    0.60    7.40
   9  -3  -6   38.90   15.00
   9  -3  -6   44.00    9.60
  -9   3   6   51.89   13.90
   9   3  -6   35.30   15.10
   9   3  -6   66.39   18.90
   8  -3  -6  130.79   21.00
   8  -3  -6  106.69   12.30
  -8  -3   6  148.69   19.80
  -8   3   6  122.79   14.90
   8   3  -6  136.69   29.00
   8   3  -6  122.89   24.70
  -8   3   6   82.79   19.00
   7  -3  -6   66.99   17.10
   7  -3  -6   64.49   12.50
  -7  -3   6   74.49   15.90
   7   3  -6   41.50   15.50
   7   3  -6   44.40   14.80
  -7   3   6   50.89   10.30
  -7   3   6   55.39   15.80
  -6  -3   6  327.97   26.80
   6  -3  -6  294.57   20.40
  -6  -3   6  256.87   26.00
   6  -3  -6  305.77   28.10
  -6   3   6  279.67   25.30
   6   3  -6  356.56   32.30
   6   3  -6  317.47   28.10
  -6   3   6  299.37   23.90
   5  -3  -6   10.10    7.20
  -5  -3   6   -2.30    2.10
   5  -3  -6    3.60    4.40
   5   3  -6    1.60    5.60
   5   3  -6    3.80    6.40
  -5   3   6    0.20    3.60
   4  -3  -6   59.09    9.50
   4  -3  -6   56.79   12.90
  -4  -3   6   90.89   14.20
  -4  -3   6   63.39   14.50
  -4   3   6   76.79   12.60
   4   3  -6   49.70   12.60
   4   3  -6   35.30   10.40
   3  -3  -6  133.89   16.00
  -3  -3   6  142.79   16.40
   3  -3  -6  108.09   12.70
  -3  -3   6  122.99   14.80
  -3   3   6  106.39   14.40
   3   3  -6  155.78   17.70
   3   3  -6  117.79   15.70
  -3   3   6  119.99   13.30
   2  -3  -6   -1.30    2.50
   2  -3  -6    8.80    6.30
  -2  -3   6   11.50    6.50
  -2  -3   6    1.40    4.20
  -2   3   6   -0.40    3.20
  -2   3   6    4.60    4.60
   2   3  -6    2.00    4.50
   2   3  -6    1.20    4.00
   1  -3  -6    2.40    3.70
   1  -3  -6    0.00    4.00
  -1  -3   6    0.60    3.30
  -1  -3   6    7.80    4.70
   1   3  -6    1.60    4.40
  -1   3   6   11.30    6.30
  -1   3   6    8.00    4.70
   1   3  -6    7.80    4.90
   0  -3   6  382.96   21.00
   0  -3   6  407.76   24.50
   0  -3  -6  377.76   25.80
   0  -3  -6  386.36   25.90
   0   3   6  412.46   26.40
   0   3   6  409.36   26.30
   0   3  -6  403.66   21.90
   0   3  -6  420.76   25.80
  -1  -3  -6 2031.90   74.59
   1  -3   6 2104.39   68.99
   1  -3   6 2123.29   61.49
  -1   3  -6 1946.31   69.29
   1   3   6 2028.00   74.69
  -1   3  -6 1997.60   61.89
   2  -3   6  104.39    8.70
   2  -3   6  115.79   12.50
  -2  -3  -6   95.99   14.20
   2   3   6  157.98   17.60
  -2   3  -6  103.19    8.90
  -2   3  -6  105.99   12.50
   2   3   6  111.59   14.80
  -3  -3  -6  161.28   19.10
   3  -3   6  191.48   12.10
   3   3   6  190.88   20.00
  -3   3  -6  241.28   18.00
   3   3   6  181.68   19.80
   4  -3   6   21.60    8.30
  -4  -3  -6   29.80   12.70
   4  -3   6   18.30    5.30
   4  -3   6   26.90    5.60
   4   3   6   27.10    9.70
   4   3   6   12.80    6.90
  -4   3  -6   13.80    6.20
   5  -3   6  111.39   14.50
   5  -3   6   92.59   10.40
   5  -3   6   98.99    9.80
   5   3   6   99.79   16.10
   5   3   6   86.59   13.90
  -5   3  -6   67.49   10.00
   5   3   6   85.49   14.20
   6  -3   6  327.77   20.30
   6  -3   6  305.77   21.00
  -6   3  -6  330.07   21.00
   6   3   6  319.87   28.00
   6   3   6  295.37   34.20
   7  -3   6  246.58   16.00
   7  -3   6  230.28   19.70
   7  -3   6  218.58   18.50
   7   3   6  199.58   22.50
   7   3   6  243.88   26.40
   7   3   6  214.18   25.40
   8  -3   6  276.47   23.20
   8  -3   6  275.27   20.30
   8  -3   6  256.07   21.80
   8  -3   6  267.47   16.40
   8   3   6  249.58   26.40
   8   3   6  269.87   29.20
   8   3   6  250.97   29.50
   9  -3   6  426.76   20.90
   9  -3   6  453.85   32.20
   9  -3   6  449.56   31.50
   9  -3   6  458.55   22.60
   9   3   6  474.05   36.80
   9   3   6  459.45   40.10
  10  -3   6   20.00   10.60
  10  -3   6   46.10   14.60
  10  -3   6   25.70    5.10
  10   3   6   13.70   11.20
  10   3   6   36.80   14.30
  11  -3   6   77.69   18.90
  11   3   6   93.59   24.80
  11   3   6  110.79   25.40
  12  -3   6   84.09   20.20
  12   3   6  104.19   27.60
  12   3   6   77.69   20.70
  12  -4  -6    2.50    8.10
  12   4  -6   15.10   20.40
  12   4  -6   -8.80    6.60
  11  -4  -6  214.18   29.90
  11   4  -6  180.98   28.60
  11   4  -6  263.27   38.20
  10  -4  -6  208.98   28.40
  10   4  -6  199.18   32.30
  10   4  -6  222.88   29.20
   9  -4  -6  321.47   33.50
   9   4  -6  312.57   33.10
   9   4  -6  332.97   39.00
   8  -4  -6  323.47   17.60
   8  -4  -6  301.17   30.90
  -8   4   6  309.27   16.10
  -8   4   6  337.07   29.70
   8   4  -6  303.17   31.50
   8   4  -6  279.47   33.40
  -7  -4   6   87.29   19.00
   7  -4  -6   97.09   10.70
   7  -4  -6   99.09   21.20
   7   4  -6   71.39   19.70
  -7   4   6   98.99    9.50
   7   4  -6   99.69   21.40
  -7   4   6   76.89   16.30
  -6  -4   6   13.60    8.90
   6  -4  -6   -1.90    3.40
   6  -4  -6    1.40    3.90
   6   4  -6   -1.70    4.10
   6   4  -6   14.40    9.80
  -6   4   6    8.30    5.20
  -6   4   6   14.40    7.80
  -5  -4   6  449.95   32.50
   5  -4  -6  480.05   33.30
   5  -4  -6  418.26   24.70
  -5  -4   6  451.35   33.40
  -5   4   6  469.95   31.80
  -5   4   6  461.05   24.60
   5   4  -6  460.85   41.50
   5   4  -6  522.55   37.80
   4  -4  -6   23.80    7.80
  -4  -4   6   21.50    9.20
   4  -4  -6   38.20   11.70
  -4  -4   6   28.30   10.00
  -4   4   6   32.90   10.90
  -4   4   6   16.80    8.40
   4   4  -6   15.90    7.40
   4   4  -6   18.90    8.80
  -3  -4   6 1659.73   64.89
  -3  -4   6 1594.54   65.09
   3  -4  -6 1580.04   59.39
   3  -4  -6 1626.84   64.99
  -3   4   6 1607.34   63.59
   3   4  -6 1615.94   65.89
   3   4  -6 1547.95   66.29
  -3   4   6 1678.83   59.99
   2  -4  -6  396.56   27.20
  -2  -4   6  357.36   26.00
  -2  -4   6  378.56   25.40
   2  -4  -6  370.16   24.80
  -2   4   6  409.36   27.50
   2   4  -6  406.06   26.90
  -2   4   6  430.66   26.30
   2   4  -6  387.16   27.80
   1  -4  -6  515.75   30.60
  -1  -4   6  503.75   27.00
   1  -4  -6  477.15   30.00
  -1  -4   6  509.25   29.70
   1   4  -6  465.85   27.10
  -1   4   6  543.95   31.90
  -1   4   6  476.75   29.30
   1   4  -6  480.75   30.20
   0  -4  -6  129.49   15.80
   0  -4   6  120.29   14.10
   0  -4  -6  170.28   17.60
   0  -4   6  139.89   12.30
   0   4   6  137.29   16.00
   0   4  -6  145.79   13.10
   0   4  -6  148.29   16.10
   0   4   6  127.79   15.60
   1  -4   6   46.80   10.70
  -1  -4  -6   54.89   12.80
  -1  -4  -6   48.40   11.80
   1  -4   6   64.29    7.40
   1   4   6  105.69   19.40
  -1   4  -6   39.90    6.60
   1   4   6   53.59   12.60
  -1   4  -6   66.99   13.80
  -2  -4  -6   23.10    8.70
   2  -4   6   29.00    4.70
   2  -4   6   43.50   10.00
  -2   4  -6   46.70   10.70
   2   4   6   41.30   12.60
  -2   4  -6   22.90    7.50
   2   4   6   31.00    9.70
  -3  -4  -6  693.03   41.80
   3  -4   6  658.63   21.10
   3  -4   6  657.23   30.60
   3   4   6  626.34   40.00
  -3   4  -6  641.24   32.20
   3   4   6  557.44   37.40
  -4  -4  -6  197.88   22.90
   4  -4   6  194.88   10.20
   4  -4   6  188.78    9.30
   4  -4   6  187.78   16.90
   4   4   6  195.68   20.50
   4   4   6  168.68   20.30
  -4   4  -6  180.58   15.80
   4   4   6  170.18   21.20
   5  -4   6   47.80    6.30
   5  -4   6   45.10    5.80
   5  -4   6   49.99    9.80
   5   4   6   51.49   14.70
   5   4   6   51.69   13.60
  -5   4  -6   50.59   10.10
   6  -4   6   72.99    9.10
   6  -4   6   49.20    7.50
   6  -4   6   63.39    8.30
  -6   4  -6   49.60    8.20
   6   4   6   68.89   16.10
   6   4   6   78.39   18.10
   6   4   6   49.80   16.00
   7  -4   6   25.60    5.60
   7  -4   6   32.40    8.60
   7  -4   6   21.60    6.10
   7  -4   6   25.60    7.50
   7   4   6   39.50   22.40
   7   4   6   24.30   11.40
   7   4   6    5.70    6.00
   8  -4   6   52.99   12.00
   8  -4   6   60.09    6.20
   8  -4   6   80.99   11.80
   8   4   6   61.99   17.60
   8   4   6   44.80   14.50
   9  -4   6   76.09   14.80
   9  -4   6   58.09   13.80
   9   4   6   31.00   15.20
   9   4   6   59.89   17.10
  10  -4   6   86.39   17.40
  10  -4   6   76.29   16.90
  10   4   6   93.69   22.40
  10   4   6   62.99   20.20
  11  -4   6  210.68   22.70
  11   4   6  164.58   33.90
  11   4   6  173.08   25.70
  12  -4   6   -1.20    5.00
  12   4   6    3.80   10.30
  12   4   6    6.40   10.40
  12  -5  -6   42.00   21.30
  12   5  -6   24.70   16.80
  12   5  -6   57.09   20.80
  11  -5  -6   41.10   16.90
  11   5  -6   19.80   21.10
  11   5  -6   86.19   30.30
  10  -5  -6   39.40   14.50
  10   5  -6   53.49   20.30
  10   5  -6   28.50   18.00
   9  -5  -6    0.30    5.60
   9   5  -6   11.50   10.40
   9   5  -6    7.60   17.60
   8  -5  -6  151.78   22.10
   8   5  -6  155.48   24.40
   8   5  -6  219.28   30.60
  -8   5   6  133.79   19.40
   7  -5  -6   81.09   19.80
   7  -5  -6   90.79    8.80
  -7   5   6   82.79    7.90
   7   5  -6   68.59   18.10
  -7   5   6   61.19   15.30
   7   5  -6   60.49   17.30
   6  -5  -6  112.09   17.70
  -6  -5   6  142.89   19.70
   6  -5  -6  109.39   11.20
  -6   5   6  103.59   10.40
   6   5  -6  120.69   19.60
   6   5  -6  132.19   21.90
  -6   5   6  105.09   15.80
  -5  -5   6   -1.00    3.70
  -5  -5   6   -3.30    2.30
   5  -5  -6    1.10    3.30
   5  -5  -6    4.00    5.70
  -5   5   6    5.30    4.30
   5   5  -6    6.80    7.50
  -5   5   6   -2.30    3.10
   5   5  -6    8.60    7.50
  -4  -5   6  756.92   44.00
  -4  -5   6  733.03   59.29
   4  -5  -6  755.62   35.90
   4  -5  -6  819.32   43.40
   4   5  -6  725.13   62.69
  -4   5   6  812.52   42.70
  -4   5   6  769.92   35.90
  -3  -5   6 1105.29   52.69
   3  -5  -6 1038.80   49.99
  -3  -5   6 1049.40   49.50
   3  -5  -6 1109.29   46.90
  -3   5   6 1120.99   47.10
   3   5  -6 1155.28   55.59
  -3   5   6  998.90   49.00
   3   5  -6 1059.99   51.79
   2  -5  -6  237.28   22.20
  -2  -5   6  300.27   22.40
  -2  -5   6  266.47   23.50
   2  -5  -6  316.47   23.40
  -2   5   6  289.67   24.00
  -2   5   6  267.37   21.70
   2   5  -6  307.67   23.80
   2   5  -6  287.37   25.30
  -1  -5   6   47.30    9.90
   1  -5  -6   45.40   12.80
   1  -5  -6   37.70   10.40
  -1  -5   6   46.20   10.90
   1   5  -6   55.49   11.50
  -1   5   6   45.50   13.10
  -1   5   6   39.20   10.80
   1   5  -6   67.89   15.50
   0  -5  -6  312.57   25.80
   0  -5  -6  367.16   27.30
   0  -5   6  375.66   23.90
   0  -5   6  298.07   23.00
   0   5  -6  322.47   24.70
   0   5  -6  327.27   20.50
   0   5   6  332.47   26.20
   0   5   6  318.07   26.00
  -1  -5  -6    2.30    4.20
   1  -5   6    4.80    3.20
   1  -5   6    1.80    3.80
  -1   5  -6    3.80    3.40
   1   5   6    7.90    7.00
   1   5   6   -0.30    3.30
  -1   5  -6    2.90    4.80
   2  -5   6  908.21   39.40
   2  -5   6  857.11   26.70
  -2  -5  -6  888.21   48.90
   2   5   6  847.32   46.90
  -2   5  -6  843.32   40.40
   2   5   6  936.51   50.19
  -2   5  -6  865.91   28.10
   3  -5   6  377.26   22.80
  -3  -5  -6  346.07   30.90
  -3   5  -6  394.56   24.50
   3   5   6  319.07   28.90
   3   5   6  389.76   32.30
   4  -5   6  256.87   20.50
   4   5   6  240.48   23.60
   4   5   6  241.28   26.70
   4   5   6  315.27   26.70
  -4   5  -6  257.77   18.90
   4   5   6  208.18   23.90
   5  -5   6   24.20    6.80
   5   5   6   15.40    8.50
   5   5   6   31.20   14.00
  -5   5  -6   26.60    7.40
   5   5   6   38.80   13.40
   6  -5   6  201.78    9.70
   6  -5   6  224.98   10.20
   6  -5   6  206.98   13.30
   6   5   6  224.48   25.60
   6   5   6  224.48   25.30
  -6   5  -6  191.58   13.90
   7  -5   6   36.10    4.50
   7  -5   6   24.50    4.00
   7  -5   6   26.00    6.10
   7  -5   6   34.70    6.80
   7   5   6   19.30   11.10
   7   5   6    5.50    7.30
   8  -5   6  337.17   22.10
   8  -5   6  352.46   20.30
   8   5   6  317.57   34.00
   8   5   6  348.97   33.10
   9  -5   6   53.09   11.50
   9  -5   6    7.30    5.50
   9   5   6   25.00   12.60
   9   5   6   22.30   12.50
  10  -5   6  152.68   16.20
  10  -5   6  137.59   16.00
  10   5   6  132.29   28.90
  10   5   6  171.18   32.40
  11  -5   6    6.30    5.70
  11   5   6    8.90   10.50
  11   5   6   10.70   11.30
  12   5   6   -4.90    5.70
  12   5   6   -4.10    7.10
  12  -6  -6    0.70    7.80
  12   6  -6   19.10   31.50
  12   6  -6   -6.60    6.70
  11  -6  -6  278.07   33.10
  11   6  -6  256.67   35.20
  11   6  -6  252.97   39.50
  10  -6  -6   86.59   23.10
  10   6  -6   87.49   29.20
  10   6  -6   61.79   25.20
   9  -6  -6  553.64   43.40
   9   6  -6  677.53   53.09
   8  -6  -6   36.40   15.20
  -8   6   6   37.20   12.90
   8   6  -6   33.50   16.60
   8   6  -6   46.50   19.00
   7  -6  -6   73.29   19.50
   7   6  -6   86.29   23.20
   7   6  -6   54.49   18.90
  -7   6   6   75.89   20.70
  -7   6   6   55.39    5.60
   6  -6  -6   -1.20    2.70
   6  -6  -6   22.50   10.30
   6   6  -6    4.10    9.20
   6   6  -6   -3.30    5.20
  -6   6   6    2.90    5.60
  -6   6   6   -0.40    2.80
  -5  -6   6  672.93   47.10
   5  -6  -6  730.43   41.90
   5  -6  -6  583.14   30.10
  -5   6   6  631.64   38.80
   5   6  -6  679.63   45.70
   5   6  -6  567.44   42.70
  -5   6   6  611.64   37.80
  -4  -6   6  143.69   18.80
   4  -6  -6  141.09   17.80
   4  -6  -6  151.48   15.40
  -4  -6   6  145.09   19.10
  -4   6   6  140.59   14.90
   4   6  -6  127.19   19.20
   4   6  -6  119.89   18.60
  -4   6   6  131.69   17.10
  -3  -6   6  565.74   35.10
  -3  -6   6  541.95   42.70
   3  -6  -6  547.65   35.00
   3  -6  -6  526.25   31.30
  -3   6   6  496.55   30.80
   3   6  -6  571.44   38.60
  -3   6   6  493.95   33.10
   3   6  -6  572.94   36.90
  -2  -6   6    9.60    6.20
   2  -6  -6   14.70    7.60
  -2  -6   6    9.50    6.90
   2  -6  -6    0.80    4.50
  -2   6   6   28.10    9.20
   2   6  -6   13.80    7.30
   2   6  -6   16.40    8.00
  -2   6   6   25.40   10.10
   1  -6  -6  372.86   28.30
   1  -6  -6  390.86   28.70
  -1  -6   6  304.07   25.20
  -1  -6   6  344.67   22.80
   1   6  -6  383.56   29.20
   1   6  -6  296.87   22.70
  -1   6   6  342.57   27.00
  -1   6   6  347.17   27.00
   0  -6   6    2.30    4.30
   0  -6   6   -1.00    2.50
   0  -6  -6    0.70    4.60
   0  -6  -6    0.00    4.60
   0   6   6    4.90    6.10
   0   6  -6    1.60    4.40
   0   6   6    5.70    5.60
   0   6  -6   -3.70    2.70
  -1  -6  -6  243.78   25.00
   1  -6   6  301.97   22.70
   1  -6   6  264.47   15.20
   1   6   6  315.87   28.00
  -1   6  -6  270.47   16.60
   1   6   6  282.17   25.60
  -1   6  -6  244.48   21.80
  -2  -6  -6   43.40   14.60
   2  -6   6   16.30    6.70
  -2   6  -6   11.00    6.40
   2   6   6   23.00   10.80
  -2   6  -6   27.40    5.00
   2   6   6   18.70    8.10
   3  -6   6  641.04   32.50
   3   6   6  619.14   42.90
   3   6   6  702.83   46.40
  -3   6  -6  719.43   36.00
   3   6   6  772.32   43.70
   4  -6   6   -1.80    2.50
   4   6   6   -3.10    2.30
   4   6   6   11.20    8.50
  -4   6  -6    8.60    4.90
   4   6   6    5.30    6.30
   4   6   6   -0.80    3.10
   5  -6   6 1078.89   40.00
   5   6   6 1100.49   58.59
   5   6   6 1015.20   57.09
  -5   6  -6 1135.59   43.50
   6  -6   6  330.17   16.00
  -6   6  -6  319.27   17.50
   6   6   6  299.57   30.50
   6   6   6  305.17   30.90
   7   6   6   -4.50    4.70
   7   6   6    2.00    5.50
   8   6   6   39.50   14.70
   8   6   6   42.60   16.10
   9   6   6   42.50   17.30
   9   6   6   36.90   15.20
  10  -6   6   38.40    5.80
  10   6   6   49.20   19.30
  10   6   6   74.89   24.70
  11  -6   6   43.20   10.40
  11   6   6   73.39   23.70
  11   6   6   54.79   20.00
  12   6   6   15.80   13.50
  12   6   6   -1.40    8.40
  11  -7  -6   -3.40    5.70
  11   7  -6    2.70   10.20
  11   7  -6   -5.80    9.00
  10  -7  -6   -1.70    5.00
  10   7  -6    3.60    9.50
  10   7  -6  -11.60    5.50
   9  -7  -6   55.79   17.10
   9   7  -6    3.70   11.30
   9   7  -6   28.60   16.20
   8  -7  -6    4.90    7.60
   8   7  -6   20.90   14.80
  -8   7   6    4.60    6.70
   8   7  -6   29.00   15.60
   7  -7  -6    1.50    6.00
   7   7  -6   -4.30    4.40
   7   7  -6    6.30    9.90
  -7   7   6   -4.80    4.20
   6  -7  -6  150.28   19.90
   6   7  -6  147.09   30.50
  -6   7   6  150.48   12.90
  -6   7   6  158.68   12.00
  -6   7   6  152.48   19.40
   6   7  -6  174.88   25.90
   5  -7  -6   10.00    7.30
  -5   7   6    4.00    3.70
   5   7  -6    5.20    8.10
   5   7  -6    8.30    8.00
  -5   7   6   14.90    8.60
   4  -7  -6  106.59   13.90
  -4  -7   6   87.79   18.90
   4  -7  -6   86.59   18.90
   4   7  -6   87.49   19.10
  -4   7   6   92.19   13.10
  -4   7   6  105.29   15.90
   4   7  -6   84.79   21.40
  -3  -7   6    3.60    5.30
  -3  -7   6   25.60    9.40
   3  -7  -6    6.30    6.50
   3  -7  -6   17.20    7.70
   3   7  -6    9.60    7.60
  -3   7   6   10.30    6.70
  -3   7   6   17.60    7.80
   2  -7  -6   92.39   18.00
   2  -7  -6  100.39   14.90
  -2  -7   6   78.79   16.50
  -2  -7   6   92.89   13.40
  -2   7   6  121.29   16.30
   2   7  -6   90.29   14.40
   2   7  -6   69.79   15.90
  -2   7   6   94.09   18.10
   1  -7  -6   95.99   15.70
  -1  -7   6  110.39   13.30
   1  -7  -6  129.19   17.30
  -1  -7   6   98.39   15.30
   1   7  -6  131.89   18.80
   1   7  -6  120.59   15.10
  -1   7   6  100.89   20.60
  -1   7   6  117.89   16.90
   0  -7   6  300.87   25.10
   0  -7   6  300.17   19.70
   0  -7  -6  325.97   29.00
   0   7   6  309.37   28.30
   0   7  -6  334.57   21.90
   0   7   6  368.96   30.00
   0   7  -6  300.87   25.90
   1  -7   6   93.89   17.50
   1  -7   6   84.59    8.80
  -1   7  -6   82.49    9.70
   1   7   6  100.69   20.20
   1   7   6   55.79   16.80
   1   7   6  112.39   22.40
  -1   7  -6   71.29   16.20
   2  -7   6 1305.77   53.59
   2   7   6 1279.07   66.29
   2   7   6 1331.67   65.59
  -2   7  -6 1201.18   47.80
   2   7   6 1193.98   59.19
  -2   7  -6 1357.26   56.59
   3  -7   6   17.10    7.40
   3   7   6   10.90    7.70
  -3   7  -6   24.20    8.80
   3   7   6   21.90   10.50
   3   7   6   23.10   10.90
   4  -7   6   94.09   11.40
   4   7   6  112.89   22.70
   4   7   6   70.29   17.50
  -4   7  -6  131.09   14.60
  -5   7  -6   46.50   10.40
   5   7   6   39.60   12.60
   5   7   6   33.60   12.60
   6  -7   6   23.50    5.10
   6   7   6   12.10    9.50
   6   7   6   19.60   10.90
  -6   7  -6    9.80    4.30
   7   7   6  154.88   24.80
   7   7   6  179.58   25.90
   8   7   6  282.37   32.80
   9   7   6    3.60    6.30
   9   7   6    5.70    9.20
  10   7   6   32.30   15.90
  10   7   6   38.90   18.80
  11   7   6    3.50    7.10
  11   7   6   -5.60    5.30
  11  -8  -6   29.10   14.20
  11   8  -6   52.69   22.60
  11   8  -6   34.80   18.10
  10  -8  -6   29.10   12.50
  10   8  -6   37.60   18.50
  10   8  -6   72.29   24.50
   9  -8  -6  357.76   33.00
   9   8  -6  300.67   39.00
   9   8  -6  268.17   38.40
   8  -8  -6   17.70    9.60
   8   8  -6   -1.90    9.80
  -8   8   6    6.60    6.70
   8   8  -6   15.60   12.30
   7  -8  -6  117.29   19.30
   7   8  -6  117.19   30.20
  -7   8   6  106.99   17.50
   7   8  -6  163.98   27.10
   6  -8  -6   34.70   12.70
   6   8  -6   27.40   14.00
  -6   8   6   25.60    6.70
   6   8  -6   20.80   13.10
  -6   8   6   22.20   10.30
  -6   8   6   15.40    6.10
   5  -8  -6   21.10   10.00
   5   8  -6   28.50   13.70
  -5   8   6   45.80   10.20
  -5   8   6   50.99   14.00
   5   8  -6   32.70   14.20
  -5   8   6   54.49   12.40
   4  -8  -6   60.59   15.10
  -4   8   6   28.60    8.60
   4   8  -6   52.59   15.20
  -4   8   6   26.40   10.10
   4   8  -6   73.99   20.60
  -4   8   6   47.10   12.40
  -3  -8   6  829.12   46.40
   3  -8  -6  897.51   48.20
   3   8  -6  814.32   48.40
  -3   8   6  858.31   45.60
  -3   8   6  883.41   41.90
  -3   8   6  822.12   46.70
   3   8  -6  812.22   52.09
  -2  -8   6   93.09   20.00
   2  -8  -6  101.69   19.60
  -2  -8   6  125.29   16.00
  -2   8   6  111.19   16.60
   2   8  -6  114.49   17.00
  -2   8   6  123.99   15.40
  -2   8   6   99.99   16.00
   2   8  -6  131.69   20.00
  -1  -8   6  128.59   14.90
  -1  -8   6  108.19   16.50
   1   8  -6   81.09   13.30
   1   8  -6  142.29   19.90
  -1   8   6  110.39   15.30
  -1   8   6  124.69   18.00
  -1   8   6  111.29   17.00
   0  -8   6   41.40   12.70
   0  -8   6   32.00    8.90
   0   8   6   34.00   11.40
   0   8  -6   42.90   10.80
   0   8   6   45.00   15.40
   0   8  -6   44.40   21.10
   1  -8   6    2.60    4.30
   1   8   6   -0.60    3.60
  -1   8  -6    0.70    3.50
   1   8   6   -0.50    4.80
   1   8   6   -0.10    4.50
  -1   8  -6   -6.00    2.10
   2  -8   6   46.90   11.90
   2   8   6   19.30   10.80
  -2   8  -6   59.89    6.60
   2   8   6   66.69   16.50
   2   8   6   82.49   20.50
  -2   8  -6   90.19   17.40
   3  -8   6  322.27   23.30
   3   8   6  304.07   28.90
   3   8   6  252.77   27.20
  -3   8  -6  287.97   24.00
   4  -8   6    2.80    3.90
   4   8   6    7.30    7.70
  -4   8  -6    8.40    6.10
   4   8   6    9.90    8.00
   5  -8   6   26.60    7.00
  -5   8  -6   11.40    6.50
   5   8   6   -0.10    8.10
   5   8   6   28.30   13.30
   6  -8   6   66.89    7.20
   6   8   6   71.09   21.40
  -6   8  -6   63.49    8.30
   6   8   6   75.59   21.90
   7   8   6   81.89   22.00
   7   8   6  111.09   25.50
   8   8   6   -0.90    5.90
   8   8   6   -5.50    5.20
   9   8   6   64.99   23.50
  10   8   6   73.99   23.10
  10   8   6   37.70   17.60
  11   8   6   24.10   15.80
  11   8   6   -5.50    5.60
  11  -9  -6   19.10   11.20
  11   9  -6   11.70   12.00
  11   9  -6   42.50   22.00
  10  -9  -6    5.70    7.30
  10   9  -6   -7.10    5.50
  10   9  -6   -3.90    6.90
   9  -9  -6   33.80   13.00
   9   9  -6   17.40   13.90
   9   9  -6    3.30    9.00
  -9   9   6    9.90    9.00
   8  -9  -6   90.99   20.60
   8   9  -6   59.39   24.70
  -8   9   6   67.69   16.40
   8   9  -6   50.09   19.60
   7  -9  -6   49.20   14.60
   7   9  -6   90.99   34.40
  -7   9   6   67.59   16.60
   6  -9  -6  154.08   20.60
  -6   9   6  144.69   21.70
   6   9  -6  161.48   26.80
  -6   9   6  142.99   12.70
   6   9  -6  178.38   28.10
  -6   9   6  134.69   18.90
   5  -9  -6  369.86   31.40
  -5   9   6  411.56   24.90
   5   9  -6  418.16   39.40
   5   9  -6  419.16   40.50
  -5   9   6  402.36   27.40
  -5   9   6  388.16   31.50
   4  -9  -6   12.10    8.30
   4   9  -6    8.40    9.20
   4   9  -6   15.00   11.50
  -4   9   6   -5.90    3.10
  -4   9   6    2.60    3.90
  -4   9   6    5.70    5.20
  -3  -9   6  196.58   22.30
   3  -9  -6  176.78   21.20
   3   9  -6  183.38   23.20
  -3   9   6  188.88   19.50
  -3   9   6  214.88   22.90
  -3   9   6  187.58   22.00
   3   9  -6  187.68   26.20
   2   9  -6  123.19   25.40
  -2   9   6  160.28   20.80
  -2   9   6  168.38   18.90
   2   9  -6  151.68   22.70
  -2   9   6  124.79   18.90
  -1  -9   6   72.39   18.30
  -1  -9   6   64.39   14.40
   1   9  -6   49.40   15.20
   1   9  -6   52.79   13.90
  -1   9   6   73.19   18.80
  -1   9   6   38.10   15.90
  -1   9   6   60.29   14.90
   0  -9   6   22.80    9.90
   0   9   6   29.40   12.10
   0   9   6   50.69   14.20
   0   9  -6   43.00   13.00
   0   9   6   45.10   15.10
   0   9  -6   35.70   10.20
   1  -9   6  347.37   33.30
   1   9   6  355.96   50.79
  -1   9  -6  349.77   30.20
   1   9   6  387.96   32.80
  -1   9  -6  366.26   22.50
   1   9   6  403.46   35.30
   2  -9   6  609.84   36.50
  -2   9  -6  556.54   23.60
  -2   9  -6  587.54   24.20
   2   9   6  587.54   42.50
  -2   9  -6  544.65   37.00
   3  -9   6   82.89   15.70
   3   9   6   54.99   14.10
   3   9   6   94.59   22.40
  -3   9  -6   83.49   17.30
   4  -9   6    3.30    3.80
  -4   9  -6    7.30    6.20
   4   9   6   -2.50    5.00
   4   9   6    1.90    4.70
   5  -9   6  527.35   27.60
  -5   9  -6  461.85   28.80
   5   9   6  518.75   42.90
   5   9   6  544.65   45.40
   6   9   6   66.39   18.40
   6   9   6   78.49   23.40
  -6   9  -6   82.69    9.60
   7   9   6   14.90   10.80
   7   9   6   24.10   15.10
   8   9   6  193.78   30.30
   8   9   6  214.78   31.80
   9   9   6  178.88   36.20
   9   9   6  200.58   40.60
  10   9   6  146.89   33.80
  10   9   6  157.88   33.00
  10 -10  -6  115.29   18.90
  10  10  -6  136.99   39.00
  10  10  -6  155.68   39.80
   9 -10  -6  239.08   25.70
   9  10  -6  238.68   37.90
   9  10  -6  166.28   36.50
   8 -10  -6  131.39   19.40
   8  10  -6   96.89   27.60
  -8  10   6   90.09   19.00
   8  10  -6  157.28   36.90
   7 -10  -6   10.00    9.00
   7  10  -6   13.50   12.40
  -7  10   6    0.00    5.40
   7  10  -6    4.60    9.10
   6 -10  -6  200.38   30.80
   6  10  -6  189.48   52.69
  -6  10   6  114.49   12.40
   6  10  -6  158.48   35.50
  -6  10   6  128.09   35.00
  -6  10   6  159.08   15.50
   5 -10  -6   -0.10    7.40
  -5  10   6    5.90    6.10
   5  10  -6    9.10   11.60
   5  10  -6   13.10   12.70
  -5  10   6    6.60    6.80
  -4  10   6  238.38   21.90
   4  10  -6  230.68   30.80
   4  10  -6  219.18   28.10
  -4  10   6  236.48   23.90
   3  10  -6   26.30   12.60
   3  10  -6   26.40   14.50
  -3  10   6   17.00    9.70
  -3  10   6   10.30    7.60
  -2 -10   6  724.33   42.00
   2  10  -6  682.03   43.60
  -2  10   6  575.54   42.30
  -2  10   6  684.53   41.90
   2  10  -6  718.43   50.29
  -2  10   6  683.33   46.40
  -1  10   6  796.52   50.89
   1  10  -6  892.01   55.09
   1  10  -6  900.61   47.30
  -1  10   6  810.22   52.89
  -1  10   6  865.01   49.70
   0  10   6    0.70    4.80
   0  10  -6    8.00    5.80
   0  10   6   -2.50    4.00
   0  10  -6   -5.10    5.10
   1 -10   6   23.10    9.30
   1  10   6   -0.90    4.40
  -1  10  -6   -3.60    4.70
  -1  10  -6   -3.00    2.60
   2 -10   6  145.99   18.60
   2  10   6  159.98   22.40
  -2  10  -6  148.69   11.90
  -2  10  -6  142.19   20.20
   2  10   6  134.99   21.50
  -2  10  -6  135.09   11.30
   3 -10   6   79.19   15.80
   3  10   6   74.39   20.20
   3  10   6   73.29   22.40
  -3  10  -6   54.89   15.40
   4 -10   6  182.58   18.40
   4  10   6  190.18   27.10
   4  10   6  200.58   26.70
  -4  10  -6  225.88   22.30
   5 -10   6   61.49   11.90
   5  10   6   34.50   13.30
   5  10   6  131.99   29.90
  -5  10  -6   85.59   13.20
  -6  10  -6  159.28   14.00
   6  10   6  116.49   28.30
   6  10   6  179.58   28.10
  -6  10  -6  144.19   15.10
   7  10   6   -8.50    4.10
   7  10   6    3.40    9.60
   8  10   6   -4.10    5.20
   8  10   6   -1.70    7.50
   9  10   6   28.70   17.50
   9  10   6   11.30   10.70
  10  10   6   15.40   15.60
  10  10   6    1.90   11.20
  10  11  -6    5.70   13.00
  10  11  -6    0.00    9.50
   9 -11  -6    6.50    6.90
   9  11  -6   -0.80    8.90
   9  11  -6   -5.30    6.70
   8 -11  -6    5.30    5.90
   8  11  -6    8.50   11.60
   8  11  -6    1.10    8.50
   7 -11  -6  198.88   22.70
  -7  11   6  154.08   20.40
   7  11  -6  248.98   36.00
   7  11  -6  211.48   34.60
   6 -11  -6   23.00   10.80
   6  11  -6   44.30   22.10
  -6  11   6    6.70    7.10
  -6  11   6   23.40    7.50
  -6  11   6   28.40    9.30
   6  11  -6   14.30   14.90
  -5  11   6   74.69   16.30
  -5  11   6   70.09   18.20
   5  11  -6   29.40   15.50
   5  11  -6   58.59   20.30
  -5  11   6   74.29   12.20
  -4  11   6    4.20    6.50
  -4  11   6   12.80    8.70
   4  11  -6   30.30   16.30
   4  11  -6    1.50    8.00
   3  11  -6  134.89   27.50
   3  11  -6  157.28   33.20
  -3  11   6  116.39   23.80
  -3  11   6   85.69   21.20
  -3  11   6  129.19   17.90
  -2  11   6    2.10    5.70
  -2  11   6    3.20    7.30
  -2  11   6   -2.40    4.90
   2  11  -6    2.50    7.50
   2  11  -6    0.40    7.70
   1  11  -6  318.17   33.80
   1  11  -6  307.87   28.00
  -1  11   6  309.87   30.00
   0  11  -6   18.30    9.40
   0  11  -6   16.50   10.40
   0  11   6   12.50   11.10
  -1  11  -6  141.49   15.40
  -1  11  -6  145.29   21.80
   1  11   6  147.19   21.30
   1  11   6  142.89   22.40
   2 -11   6  353.46   30.70
  -2  11  -6  398.16   20.50
   2  11   6  346.77   35.70
  -2  11  -6  365.86   20.30
  -2  11  -6  407.06   34.20
   2  11   6  331.87   32.90
   3 -11   6   25.50   11.20
  -3  11  -6   51.99   15.50
   3  11   6   11.90    9.10
   3  11   6   32.30   14.60
   4 -11   6    1.30    4.50
   4  11   6   -3.00    4.30
  -4  11  -6   -8.00    3.10
   4  11   6   -1.70    6.40
   5 -11   6    7.80    5.40
  -5  11  -6   19.50    8.70
   5  11   6   35.90   15.30
   5  11   6   35.60   15.90
   6  11   6   20.40   12.20
  -6  11  -6   18.70    7.60
   6  11   6   46.60   18.40
  -6  11  -6   22.00    7.20
   7  11   6  278.07   37.40
   7  11   6  349.57   41.20
   8  11   6   68.19   25.10
   8  11   6   37.90   17.60
   9  11   6   94.99   28.40
   9  11   6   50.79   21.10
   9  12  -6    6.30   17.30
   9  12  -6   49.40   24.80
   8  12  -6  110.59   34.50
   8  12  -6   50.59   20.30
   7  12  -6   29.20   18.50
   7  12  -6    6.40   10.50
  -6  12   6    9.30    6.10
   6  12  -6   22.80   14.30
   6  12  -6   17.70   12.50
  -6  12   6   20.90   11.50
  -6  12   6   18.50    8.30
  -5  12   6   91.89   20.30
  -5  12   6   69.89   14.40
   5  12  -6  142.19   44.60
  -5  12   6  103.79   20.40
   5  12  -6   71.59   24.60
   4  12  -6  233.78   31.10
  -4  12   6  253.37   24.50
  -4  12   6  225.48   26.10
  -4  12   6  217.18   25.70
   4  12  -6  231.38   33.60
   3  12  -6  106.69   28.80
   3  12  -6  140.59   23.20
  -3  12   6  134.09   19.20
  -3  12   6   83.89   20.20
  -2  12   6  419.76   35.00
   2  12  -6  389.36   40.70
   2  12  -6  467.55   38.00
   1  12  -6    4.50    6.90
  -1  12   6    1.70    6.30
   1  12  -6    6.10    9.70
   0  12   6    1.20    5.70
   0  12  -6    1.20    5.20
   0  12  -6    9.30   10.00
   0  12   6    8.70    7.20
  -1  12  -6   17.70   11.20
   1  12   6   28.30   13.60
   1  12   6   10.60    8.10
  -1  12  -6   38.50   11.70
  -1  12  -6   21.80    8.70
  -2  12  -6   66.59    8.90
   2  12   6   44.20   16.10
  -2  12  -6   67.99   19.90
   2  12   6   59.99   18.60
  -2  12  -6   62.19    9.20
   3 -12   6  256.77   25.60
   3  12   6  230.78   30.10
  -3  12  -6  257.17   27.90
   3  12   6  231.88   50.09
   4 -12   6  257.07   24.20
  -4  12  -6  290.57   27.70
   4  12   6  289.37   35.80
   4  12   6  309.07   36.20
   5  12   6   -6.00    4.90
  -5  12  -6    3.60    5.00
  -5  12  -6    1.70    5.00
   5  12   6   -1.20    6.70
  -6  12  -6  118.69   13.80
   6  12   6   94.79   26.10
  -6  12  -6   77.99   14.40
   6  12   6   39.60   17.10
   7  12   6   -3.80    5.00
   7  12   6   11.40   11.50
   8  12   6   25.50   15.20
   8  12   6   81.79   26.80
   9  12   6    3.70    9.30
   9  12   6   13.00   14.50
   8  13  -6   20.90   17.50
   8  13  -6    1.80   10.00
   7  13  -6   28.50   17.60
   7  13  -6   28.60   18.00
   6  13  -6   38.70   18.10
  -6  13   6   59.39   13.30
   6  13  -6   81.79   29.80
  -5  13   6  329.47   27.10
  -5  13   6  246.58   27.20
   5  13  -6  325.17   39.10
  -5  13   6  259.47   28.40
   5  13  -6  274.17   39.30
  -4  13   6    5.70    7.60
   4  13  -6    4.70    9.50
   4  13  -6    4.40   10.40
   3  13  -6   46.50   17.60
  -3  13   6   34.90   14.00
   3  13  -6   16.50   13.20
  -2  13   6  177.98   24.10
   2  13  -6   74.29   25.30
   2  13  -6  168.98   24.20
   1  13  -6    7.90    7.60
  -1  13   6   10.00    8.10
   1  13  -6   13.70   11.30
  -1  13   6   10.30    9.20
   0  13  -6   -4.40    3.90
   0  13   6   -3.50    4.00
   0  13  -6   -4.80    4.60
   0  13   6   -4.50    3.20
  -1  13  -6  155.08   17.70
   1  13   6  200.78   28.20
  -1  13  -6  166.48   18.40
   1  13   6  169.38   24.60
  -1  13  -6  146.79   24.50
   2  13   6   -7.50    3.60
   2  13   6    9.20   10.10
  -2  13  -6    5.30    8.20
  -2  13  -6    3.60    3.70
   3  13   6  136.39   29.70
  -3  13  -6  154.68   23.30
   3  13   6  168.48   26.70
  -4  13  -6   25.30   12.40
  -4  13  -6    9.30    9.30
   4  13   6    7.20   10.80
   4  13   6   11.50   12.00
  -5  13  -6    9.00    9.20
   5  13   6   15.50   12.00
   5  13   6    6.80   11.00
   6  13   6   36.10   19.80
  -6  13  -6   11.10    6.20
   6  13   6   22.60   13.30
   7  13   6   92.59   27.10
   7  13   6   76.89   25.50
   8  13   6    8.30   11.30
   8  13   6   -7.80    6.40
   7  14  -6    1.10    7.70
   7  14  -6   23.40   16.30
   6  14  -6   13.60   14.30
   6  14  -6   -1.40    8.80
  -6  14   6   -0.30    4.70
   5  14  -6  117.69   35.40
   5  14  -6   93.49   26.80
  -5  14   6   96.99   20.90
   4  14  -6  139.29   31.90
  -4  14   6  155.48   21.70
   4  14  -6  195.58   41.90
   3  14  -6    3.20    7.70
   3  14  -6   -7.20    5.40
  -3  14   6   -2.40    4.70
  -3  14   6    8.10    8.60
   2  14  -6  156.18   24.40
  -2  14   6  132.99   27.00
   2  14  -6   70.49   23.80
  -2  14   6  115.19   23.90
  -1  14   6   -2.70    4.70
   1  14  -6   22.40   13.80
  -1  14   6    9.20    8.40
   1  14  -6    3.60    7.20
   0  14  -6   12.20   12.00
   0  14  -6   -0.50    6.50
   0  14  -6    1.80    5.60
   0  14   6    5.50    8.00
   1  14   6   34.00   15.50
  -1  14  -6   40.10   11.40
   1  14   6    9.80    9.10
  -1  14  -6   20.10    9.90
  -1  14  -6   31.50   16.20
   2  14   6   81.09   21.40
   2  14   6   68.09   22.40
  -2  14  -6   89.29   22.90
  -2  14  -6   95.39   11.10
   3  14   6   56.09   22.10
  -3  14  -6   24.80   14.00
   3  14   6   19.30   12.90
   4  14   6  183.38   38.40
   4  14   6  112.49   29.60
  -4  14  -6  179.08   24.10
  -5  14  -6    2.90    5.50
   5  14   6    6.20   11.20
   5  14   6   -2.30    5.90
   6  14   6   42.50   20.50
   6  14   6   40.50   18.50
   7  14   6  134.19   31.70
   7  14   6  197.48   41.50
   6  15  -6    2.80   12.50
   6  15  -6    4.90   10.70
  -5  15   6  125.49   18.00
   5  15  -6   87.09   28.40
  -5  15   6   74.89   18.90
   5  15  -6  109.99   35.10
   4  15  -6   -1.00    7.50
   4  15  -6   -3.00    8.60
  -4  15   6   -0.40    4.40
  -4  15   6   18.20   11.90
  -3  15   6   26.70   13.90
   3  15  -6   -0.50    7.00
   3  15  -6   55.99   21.30
  -3  15   6   25.70   11.30
   2  15  -6   15.90   13.20
  -2  15   6   16.60    9.20
   2  15  -6    5.00   10.80
  -2  15   6   -2.00    5.00
   1  15  -6   75.29   23.40
   1  15  -6   55.09   16.80
  -1  15   6   37.90   13.80
  -1  15   6   39.00   15.80
   0  15  -6   21.50   10.80
   0  15  -6   16.30   14.40
   0  15   6   41.50   28.00
   0  15   6   23.60   13.80
   1  15   6   95.29   25.10
   1  15   6  128.79   28.70
  -1  15  -6  109.09   27.50
  -1  15  -6  109.59   16.00
   2  15   6   11.40   11.30
   2  15   6   14.00   11.70
  -2  15  -6   28.40    7.40
  -2  15  -6   21.50   12.50
   3  15   6  199.68   31.00
  -3  15  -6  252.97   31.80
   3  15   6  202.58   33.60
  -4  15  -6    4.30    8.50
   4  15   6    4.40   11.30
   4  15   6    4.40   11.80
  -5  15  -6    3.50    7.00
   5  15   6   15.90   12.90
  -4  16   6   60.59   16.60
   4  16  -6   74.09   26.90
   4  16  -6   34.40   20.70
  -4  16   6   38.50   16.50
   3  16  -6   26.30   15.40
   3  16  -6   14.60   14.80
  -3  16   6   11.20    9.80
  -3  16   6   25.20   13.80
  -2  16   6   53.69   17.60
   2  16  -6   88.19   33.20
   2  16  -6   63.49   20.70
  -2  16   6   86.39   25.50
   1  16  -6   17.70   10.80
  -1  16   6   36.10   15.60
  -1  16   6   -1.10    7.80
   1  16  -6   -5.80    6.30
   0  16   6    5.30    7.10
   0  16  -6   23.30   15.50
   0  16  -6    6.60    7.60
   0  16   6    1.90    7.70
   1  16   6   -8.20    5.30
  -1  16  -6    7.30   10.60
   1  16   6    5.40    8.70
  -1  16  -6    3.00    7.70
  -2  16  -6   29.70   17.50
   2  16   6  104.29   28.30
   2  16   6   48.50   19.90
   3  16   6   -0.40    6.40
   3  16   6   16.50   13.40
   4  16   6   -1.50    7.10
  -4  16  -6   16.70   11.60
   4  16   6   -1.70    6.40
  13   0  -7    7.30   11.10
  13   0  -7   39.30   19.90
  12   0  -7   15.20   13.30
  12   0  -7   -1.30    5.10
  11   0  -7   19.30   15.00
 -11   0   7    7.00    6.20
  11   0  -7    2.70    5.20
 -10   0   7    3.40    5.20
  10   0  -7    1.70    5.20
  10   0  -7   -5.60    5.60
   9   0  -7   34.10   14.60
  -9   0   7   31.50   11.10
   9   0  -7   29.50   12.40
  -8   0   7   -1.70    3.10
   8   0  -7   -7.00    5.40
   8   0  -7    1.90    6.60
  -7   0   7  518.65   32.40
   7   0  -7  545.55   35.70
   7   0  -7  546.25   42.20
  -7   0   7  601.04   53.89
  -6   0   7   -1.00    3.90
  -6   0   7    0.70    2.80
   6   0  -7   13.20    7.30
   6   0  -7    2.20    5.60
   5   0  -7  604.04   40.10
  -5   0   7  534.05   36.10
  -5   0   7  636.54   33.60
   5   0  -7  613.84   35.80
  -4   0   7    5.70    5.90
  -4   0   7    1.90    4.00
   4   0  -7   -1.40    4.40
   4   0  -7    0.60    5.20
  -3   0   7  240.98   19.60
  -3   0   7  251.17   21.40
   3   0  -7  248.58   20.90
   3   0  -7  229.28   21.50
  -2   0   7   -0.90    2.70
   2   0  -7   -3.50    3.20
   2   0  -7   -1.30    2.70
  -2   0   7   -4.10    2.00
  -1   0   7 2417.76   79.69
   1   0  -7 2268.17   79.39
  -1   0   7 2416.66   78.69
   0   0   7    0.70    3.00
   0   0  -7    4.50    3.80
   0   0   7    1.60    3.70
   0   0  -7    7.70    4.60
   1   0   7  243.58   20.10
   1   0   7  251.67   19.00
  -1   0  -7  269.97   19.70
   2   0   7   -3.60    2.50
  -2   0  -7   -2.10    2.70
   2   0   7    3.90    4.10
  -2   0  -7    4.00    5.20
   3   0   7  262.67   21.30
  -3   0  -7  203.58   19.50
   3   0   7  229.38   18.80
   4   0   7   -2.80    3.00
  -4   0  -7    4.50    5.00
   4   0   7    0.40    3.10
   5   0   7 1071.29   47.30
   5   0   7 1224.98   53.49
   5   0   7 1056.99   50.69
  -5   0  -7 1111.19   51.79
   6   0   7   -3.30    3.20
  -6   0  -7   -0.70    3.50
   6   0   7    7.70    6.30
   6   0   7    2.80    4.50
   7   0   7  983.70   46.20
   7   0   7  967.60   49.60
   7   0   7 1017.50   51.29
   8   0   7   -0.10    3.20
   8   0   7    3.00    5.50
   8   0   7   -0.40    4.00
   9   0   7   69.89   15.00
   9   0   7   68.19   18.00
   9   0   7   49.50   14.90
  10   0   7   -2.70    3.20
  10   0   7    2.30    6.70
  10   0   7   -1.80    4.50
  11   0   7  454.65   40.70
  11   0   7  434.36   31.80
  11   0   7  439.96   35.60
  12   0   7    1.00    9.30
  12   0   7    0.50    5.00
  13  -1  -7   57.09   22.10
  13   1  -7   21.00   10.90
  13   1  -7    8.50   15.60
  12  -1  -7  132.29   17.40
  12  -1  -7  102.69   29.60
  12   1  -7  125.29   20.90
  12   1  -7   88.39   29.90
  11  -1  -7   95.39   29.10
  11  -1  -7   48.80   13.80
  11   1  -7   51.29   20.60
  11   1  -7   38.20   13.90
  10  -1  -7  145.39   18.60
  10  -1  -7  150.18   33.50
 -10  -1   7  112.49   17.70
 -10   1   7  116.59   15.20
  10   1  -7   93.59   26.60
  10   1  -7  146.99   21.50
   9  -1  -7   -1.60    3.40
  -9  -1   7    4.30    5.50
   9  -1  -7   12.50   11.80
   9   1  -7   -4.10    6.00
   9   1  -7    4.80    6.70
  -9   1   7    2.70    4.40
   8  -1  -7  301.67   33.20
   8  -1  -7  285.67   24.80
  -8  -1   7  278.47   29.40
   8   1  -7  296.87   33.50
  -8   1   7  286.17   22.60
   7  -1  -7    0.20    4.40
  -7  -1   7    4.80    5.90
   7  -1  -7   12.30   10.00
  -7   1   7    1.70    3.90
   7   1  -7    2.00    7.60
   7   1  -7    3.80    5.70
  -7   1   7   -0.20    4.50
   6  -1  -7   63.39   17.10
   6  -1  -7   73.39   15.20
  -6  -1   7   41.70   14.20
  -6  -1   7   72.19   14.80
  -6   1   7   66.19   13.10
  -6   1   7   69.59   15.60
   6   1  -7   80.29   17.10
   6   1  -7   45.50   15.70
  -5  -1   7  102.49   16.20
   5  -1  -7  127.89   15.30
   5  -1  -7  146.09   19.30
  -5  -1   7  121.89   15.00
   5   1  -7  125.89   16.70
   5   1  -7   86.89   17.90
  -5   1   7  117.79   16.60
  -5   1   7  131.99   14.40
   4  -1  -7  121.69   16.70
  -4  -1   7  108.69   14.20
  -4  -1   7   80.49   15.90
   4  -1  -7   94.59   13.30
   4   1  -7  104.99   16.00
   4   1  -7  106.49   15.00
  -4   1   7  108.19   15.20
  -4   1   7  103.59   13.00
   3  -1  -7   18.80    8.40
  -3  -1   7    8.40    4.90
  -3  -1   7   13.40    6.20
   3  -1  -7   25.90    8.90
   3   1  -7   20.50    9.70
  -3   1   7   26.70    8.20
   3   1  -7   19.30    7.60
  -3   1   7   16.60    7.00
   2  -1  -7    0.70    4.00
   2  -1  -7   -3.10    2.00
  -2  -1   7   -0.30    3.50
  -2  -1   7    0.80    3.80
   2   1  -7   -2.30    3.10
  -2   1   7    5.40    4.70
  -2   1   7    4.40    4.70
   2   1  -7    2.20    4.60
  -1  -1   7   -2.30    2.40
   1  -1  -7    2.70    4.30
  -1  -1   7   -1.60    3.50
   1  -1  -7    4.10    4.90
   1   1  -7   -3.20    3.10
  -1   1   7   -3.40    2.00
  -1   1   7   -1.30    3.60
   1   1  -7    0.30    3.90
   0  -1   7  620.94   31.10
   0  -1  -7  599.04   32.40
   0  -1   7  553.44   31.10
   0   1   7  626.94   32.70
   0   1  -7  648.34   33.80
   0   1  -7  630.04   31.10
   0   1   7  665.63   34.00
   1  -1   7   27.90    7.80
   1  -1   7   45.40   10.80
  -1  -1  -7   26.50    8.10
  -1  -1  -7   53.09   12.40
  -1   1  -7   29.50    8.90
  -1   1  -7   22.10    6.50
   1   1   7   39.00   10.40
   1   1   7   45.90   11.30
   2  -1   7  192.58   17.60
   2  -1   7  211.38   16.40
  -2  -1  -7  224.08   20.10
  -2  -1  -7  233.48   19.60
  -2   1  -7  221.88   17.00
   2   1   7  239.88   19.90
   2   1   7  231.08   20.20
  -2   1  -7  201.68   18.30
  -3  -1  -7   79.19   13.30
   3  -1   7   76.69   10.60
   3  -1   7   82.79   12.10
  -3   1  -7  113.59   13.90
   3   1   7   78.09   12.90
   3   1   7  120.79   14.90
   4  -1   7  306.77   22.00
   4  -1   7  313.97   23.30
  -4  -1  -7  287.07   24.60
  -4   1  -7  309.37   23.40
   4   1   7  341.77   26.20
   4   1   7  327.17   25.90
   5  -1   7  142.29   15.70
   5  -1   7  115.49   13.00
  -5  -1  -7  126.39   17.10
   5  -1   7   99.89   13.90
   5   1   7  113.19   14.70
   5   1   7  115.89   16.30
  -5   1  -7  118.29   14.90
   5   1   7  120.89   16.50
  -6  -1  -7   94.79   19.10
   6  -1   7   98.49   14.00
   6  -1   7   91.89   12.80
   6  -1   7   87.29   13.60
   6   1   7   94.99   15.20
  -6   1  -7  103.39   14.30
   6   1   7   96.69   14.80
   6   1   7   78.29   17.00
   7  -1   7   15.00    7.30
   7  -1   7   25.00    8.40
   7  -1   7    5.80    6.80
   7  -1   7   11.60    7.40
   7   1   7    2.80    5.00
   7   1   7   12.10    7.00
   7   1   7    3.10    6.10
   8  -1   7  186.08   20.00
   8  -1   7  192.08   25.90
   8  -1   7  176.78   17.60
   8  -1   7  152.28   23.10
   8   1   7  170.58   25.80
   8   1   7  172.68   21.90
   8   1   7  176.38   24.10
   9  -1   7   14.20    9.60
   9  -1   7   -1.30    4.20
   9  -1   7    3.20    6.20
   9  -1   7    4.70    4.70
   9   1   7    6.90    5.60
   9   1   7   12.20    9.40
   9   1   7    2.60    5.50
  10  -1   7  106.69   23.40
  10  -1   7   71.39   14.90
  10  -1   7  108.29   20.50
  10   1   7   76.59   18.20
  10   1   7   73.09   21.60
  10   1   7   96.29   23.00
  11  -1   7    3.60    7.20
  11  -1   7    3.30    5.20
  11  -1   7    4.10    5.90
  11   1   7   -1.50    6.50
  11   1   7   -6.00    3.50
  12  -1   7   27.80    9.10
  12  -1   7   43.50   17.00
  12   1   7   30.00   12.70
  12   1   7   30.00   15.20
  12  -2  -7   35.80   16.30
  12  -2  -7   23.20    8.30
  12   2  -7   41.40   14.70
  12   2  -7   35.00   18.70
  11  -2  -7   10.10   19.40
  11  -2  -7    0.80    4.00
  11  -2  -7    5.80    5.50
  11   2  -7   -5.40    6.40
  11   2  -7    5.90    8.70
  10  -2  -7   38.70   11.10
  10  -2  -7   44.60   18.90
 -10   2   7   49.00   11.10
  10   2  -7   58.39   18.10
   9  -2  -7  304.97   34.20
   9  -2  -7  255.67   22.20
  -9  -2   7  209.38   28.10
  -9   2   7  266.57   20.80
   9   2  -7  251.47   33.60
   9   2  -7  287.37   29.70
  -8  -2   7   58.69   15.10
   8  -2  -7   78.29   15.60
   8  -2  -7   51.39   18.30
  -8   2   7   51.29   11.20
   8   2  -7   52.49   17.10
   8   2  -7   73.39   18.90
  -7  -2   7  604.44   46.00
   7  -2  -7  660.93   36.00
   7  -2  -7  736.53   48.00
  -7   2   7  649.64   42.50
  -7   2   7  634.84   32.80
   7   2  -7  627.84   47.20
   7   2  -7  582.34   42.10
   6  -2  -7  173.58   22.60
   6  -2  -7  155.88   16.70
  -6  -2   7  166.78   18.90
  -6  -2   7  169.58   21.40
   6   2  -7  192.88   22.20
  -6   2   7  129.79   14.00
   6   2  -7  179.28   23.80
  -6   2   7  194.48   28.20
   5  -2  -7   12.10    6.90
   5  -2  -7   21.80   10.60
  -5  -2   7   39.00   10.70
   5   2  -7   25.20   10.50
  -5   2   7   23.80    9.60
   5   2  -7   39.00   17.00
  -5   2   7   22.60    7.60
  -4  -2   7  481.15   30.80
  -4  -2   7  497.25   33.10
   4  -2  -7  514.45   29.70
   4  -2  -7  557.94   35.40
   4   2  -7  496.45   33.30
  -4   2   7  501.45   32.80
   4   2  -7  497.95   34.70
  -4   2   7  461.95   27.30
  -3  -2   7   21.80    8.90
   3  -2  -7   14.80    8.30
   3  -2  -7    3.30    5.10
  -3  -2   7   27.70    9.60
  -3   2   7   18.40    7.70
   3   2  -7   13.80    6.90
   3   2  -7   13.10    7.50
  -3   2   7   14.10    6.50
  -2  -2   7   70.29   11.40
   2  -2  -7   74.29   11.60
  -2  -2   7   90.29   12.70
   2  -2  -7  122.09   15.20
  -2   2   7  111.19   13.40
  -2   2   7   99.39   13.70
   2   2  -7   97.09   13.80
   2   2  -7  102.39   13.90
  -1  -2   7  140.79   14.40
  -1  -2   7  133.49   14.90
   1  -2  -7  142.69   15.80
   1  -2  -7  141.99   15.60
   1   2  -7  145.49   16.10
  -1   2   7  125.49   15.00
   1   2  -7  148.89   15.00
  -1   2   7  133.09   14.90
   0  -2  -7 2972.60   96.59
   0  -2   7 2897.21   93.19
   0  -2  -7 2940.11   96.79
   0   2  -7 2912.51   89.79
   0   2   7 2926.81   96.09
   0   2  -7 3025.80   95.89
   0   2   7 2997.40   96.49
   1  -2   7  728.53   35.80
   1  -2   7  708.83   31.30
  -1  -2  -7  716.33   37.80
   1   2   7  747.03   38.60
  -1   2  -7  716.63   36.30
  -1   2  -7  759.12   32.50
   2  -2   7  152.28   15.50
  -2  -2  -7  134.09   16.70
  -2  -2  -7  149.39   16.40
   2  -2   7  175.78   13.80
   2   2   7  180.78   18.60
  -2   2  -7  125.89   12.10
  -2   2  -7  143.29   15.20
   2   2   7  139.29   16.00
   3  -2   7  518.65   29.60
  -3  -2  -7  549.05   35.10
   3  -2   7  562.14   27.00
  -3   2  -7  553.14   30.90
   3   2   7  581.44   35.70
   3   2   7  562.84   34.60
   4  -2   7  442.36   27.10
  -4  -2  -7  415.56   31.10
   4   2   7  418.36   30.80
   4   2   7  406.56   31.00
  -4   2  -7  436.76   27.30
   5  -2   7  598.24   32.90
  -5  -2  -7  586.24   39.10
   5  -2   7  674.03   30.40
   5  -2   7  625.34   32.20
   5   2   7  638.34   40.30
   5   2   7  607.24   39.30
  -5   2  -7  531.35   31.80
   5   2   7  554.24   34.90
   6  -2   7  282.97   22.40
   6  -2   7  252.57   20.90
  -6  -2  -7  262.97   26.70
   6  -2   7  241.18   19.20
   6   2   7  213.68   24.20
   6   2   7  295.87   25.90
  -6   2  -7  265.37   21.50
   6   2   7  260.67   23.80
   7  -2   7  404.56   27.30
   7  -2   7  422.96   29.90
   7  -2   7  414.16   27.80
   7   2   7  392.56   30.70
   7   2   7  485.95   37.30
  -7   2  -7  435.46   28.40
   7   2   7  430.46   33.80
   8  -2   7    7.90    6.70
   8  -2   7    6.90    6.80
   8  -2   7   10.40    6.00
   8  -2   7   12.70    7.50
   8   2   7    7.20    7.60
   8   2   7    6.10    5.60
   8   2   7    8.60    7.00
   9  -2   7    0.60    5.10
   9  -2   7    5.40    4.60
   9  -2   7    4.80    5.30
   9  -2   7   -7.20    3.10
   9   2   7   -1.00    6.30
   9   2   7   -1.10    3.30
  10  -2   7   65.39   10.50
  10  -2   7   55.79   16.60
  10  -2   7   72.59   11.80
  10  -2   7   62.69   22.80
  10   2   7   76.39   20.50
  10   2   7   53.49   16.60
  11  -2   7  219.38   26.90
  11  -2   7  256.07   19.50
  11  -2   7  265.07   18.40
  11   2   7  218.18   26.10
  11   2   7  224.48   31.10
  12  -2   7   79.09   21.40
  12   2   7  108.49   28.90
  12   2   7   53.79   17.10
  12  -3  -7   70.29   23.70
  12   3  -7   86.19   29.40
  12   3  -7   46.90   17.70
  11  -3  -7   40.10    8.30
  11  -3  -7    4.70   10.40
  11  -3  -7   41.80    6.50
  11   3  -7   61.49   23.30
  11   3  -7   51.99   18.90
  10  -3  -7  173.78   27.60
  10  -3  -7  127.39   13.20
  10   3  -7  157.68   25.00
  10   3  -7  129.99   33.40
   9  -3  -7  119.49   26.20
   9  -3  -7  160.68   16.00
  -9   3   7  177.48   14.70
   9   3  -7  191.18   25.90
   9   3  -7  169.58   35.00
   8  -3  -7    6.30    5.50
   8  -3  -7   -5.00    4.80
   8   3  -7    3.50    7.50
   8   3  -7    9.40   10.10
  -8   3   7    1.60    3.50
   7  -3  -7  351.06   33.10
   7  -3  -7  339.17   23.80
  -7  -3   7  381.66   30.80
  -7   3   7  336.17   30.10
   7   3  -7  363.26   32.20
  -7   3   7  335.87   21.70
   7   3  -7  333.77   34.60
   6  -3  -7  348.97   23.90
  -6  -3   7  335.27   28.80
  -6  -3   7  305.87   30.40
  -6   3   7  375.86   22.80
   6   3  -7  289.17   30.40
   6   3  -7  318.67   29.10
  -5  -3   7  191.38   20.50
  -5  -3   7  188.88   21.70
   5  -3  -7  167.88   16.60
   5  -3  -7  152.88   19.60
  -5   3   7  200.48   21.30
   5   3  -7  202.48   23.70
  -5   3   7  185.28   16.30
   5   3  -7  166.78   20.60
  -4  -3   7  104.09   14.90
   4  -3  -7   88.39   12.40
   4  -3  -7   89.19   14.60
  -4  -3   7  102.39   15.30
  -4   3   7   97.19   12.10
   4   3  -7  106.99   16.20
   4   3  -7   72.39   16.10
  -4   3   7   82.99   13.60
  -3  -3   7   10.30    6.00
   3  -3  -7   -2.50    3.70
  -3  -3   7    2.00    4.40
   3  -3  -7   -1.80    3.70
   3   3  -7    5.20    6.40
   3   3  -7    6.30    5.40
  -3   3   7   -0.20    5.00
  -3   3   7    8.70    5.50
  -2  -3   7   30.70   10.40
  -2  -3   7   35.30   10.10
   2  -3  -7   26.20    8.70
   2  -3  -7   30.80    9.20
   2   3  -7   32.50   10.60
   2   3  -7   32.80   10.30
  -2   3   7   24.00    8.80
  -2   3   7   38.60   10.90
   1  -3  -7   78.69   12.60
   1  -3  -7   72.09   15.00
  -1  -3   7   71.99   11.80
  -1  -3   7   72.29   10.90
  -1   3   7   77.99   15.40
   1   3  -7   84.69   16.20
   1   3  -7   60.39   12.40
  -1   3   7   74.49   12.40
   0  -3   7  206.08   18.10
   0  -3  -7  178.68   18.50
   0  -3  -7  157.38   17.20
   0  -3   7  189.28   18.00
   0   3   7  202.48   19.10
   0   3  -7  176.08   15.20
   0   3  -7  190.28   18.50
   0   3   7  187.68   18.40
   1  -3   7 1190.18   42.60
  -1  -3  -7 1149.19   52.39
   1  -3   7 1133.59   48.40
  -1  -3  -7 1195.58   54.19
  -1   3  -7 1199.58   43.40
   1   3   7 1238.68   53.89
   1   3   7 1193.38   53.49
  -1   3  -7 1133.39   49.20
  -2  -3  -7   51.79   13.40
   2  -3   7   33.90    9.00
   2  -3   7   47.30    8.70
   2   3   7   40.00   11.70
  -2   3  -7   39.80   10.60
   2   3   7   33.20    9.90
  -2   3  -7   46.40    8.70
  -3  -3  -7   17.70    9.20
   3  -3   7   20.90    8.20
   3  -3   7   16.40    5.70
   3   3   7   27.50   10.80
   3   3   7   21.50   10.10
  -3   3  -7   18.10    7.10
   4  -3   7  291.97   21.30
  -4  -3  -7  303.67   27.70
   4  -3   7  335.77   17.30
   4  -3   7  347.57   19.20
  -4   3  -7  355.26   23.90
   4   3   7  324.87   28.30
   4   3   7  401.86   31.50
   5  -3   7   50.39   11.50
   5  -3   7   50.69    7.60
  -5  -3  -7   42.30   13.60
   5  -3   7   48.10   10.00
   5   3   7   43.90   18.40
  -5   3  -7   46.00   10.70
   5   3   7   70.19   18.60
   5   3   7   54.59   14.60
   6  -3   7    7.80    4.90
   6  -3   7   -1.00    2.50
   6  -3   7   13.40    6.40
  -6   3  -7    4.70    5.20
   6   3   7    1.70    4.60
   6   3   7    0.70    4.30
   6   3   7   18.80   10.90
   7  -3   7  159.08   15.90
   7  -3   7  147.69   16.20
   7  -3   7  160.68   15.50
   7   3   7  183.38   22.90
   7   3   7  168.48   23.40
  -7   3  -7  145.39   15.20
   7   3   7  167.28   21.00
   8  -3   7    7.10    5.20
   8  -3   7    6.90    5.80
   8  -3   7    3.00    3.60
   8  -3   7    0.80    4.70
   8   3   7    8.70    8.20
   8   3   7   -1.70    4.70
   9  -3   7   13.40    8.20
   9  -3   7   34.50   12.00
   9  -3   7   34.00    8.00
   9  -3   7   31.80    8.50
   9   3   7   85.69   22.30
   9   3   7   51.89   16.40
  10  -3   7   91.39   19.00
  10  -3   7  130.39   11.50
  10  -3   7  103.19   20.50
  10  -3   7  102.89    9.90
  10   3   7  152.28   32.30
  10   3   7  123.29   24.90
  11  -3   7   12.10    8.50
  11   3   7   -8.20    5.30
  11   3   7    5.30    7.40
  12  -3   7    2.80    6.40
  12   3   7    5.80   10.40
  12   3   7    4.90    7.10
  12  -4  -7    5.70    8.60
  12   4  -7    9.10   10.90
  12   4  -7   -3.70    9.70
  11  -4  -7    0.30    7.60
  11   4  -7   18.80   17.60
  11   4  -7    8.60   13.40
  10  -4  -7  173.48   27.40
  10   4  -7  203.18   28.90
  10   4  -7  165.68   34.30
   9  -4  -7   77.19   22.20
   9  -4  -7   86.29    9.50
   9   4  -7   60.89   21.80
   9   4  -7   68.79   20.60
  -9   4   7   86.09    8.70
   8  -4  -7  401.06   36.40
   8  -4  -7  395.26   22.80
   8   4  -7  297.07   35.60
   8   4  -7  316.57   33.00
   7  -4  -7   61.79    9.90
   7  -4  -7   41.40   14.90
   7   4  -7   47.30   15.10
  -7   4   7   62.69   11.10
  -7   4   7   36.40   12.80
   7   4  -7   59.29   19.70
   6  -4  -7   92.39   12.30
  -6  -4   7   99.79   16.60
   6   4  -7  103.89   23.30
   6   4  -7  162.28   22.10
  -6   4   7   98.39   23.50
  -6   4   7  114.79   12.50
   5  -4  -7   10.10    6.90
   5  -4  -7    6.30    5.00
  -5  -4   7   -4.30    4.30
  -5  -4   7    0.50    4.60
   5   4  -7   11.10    7.20
  -5   4   7   -2.40    3.50
   5   4  -7   -0.30    4.20
  -5   4   7    3.30    4.80
   4  -4  -7  269.57   21.50
   4  -4  -7  346.57   28.00
  -4  -4   7  328.97   27.30
  -4  -4   7  258.47   24.50
  -4   4   7  295.57   25.60
   4   4  -7  369.96   30.20
   4   4  -7  307.67   27.50
  -4   4   7  315.17   22.20
   3  -4  -7   92.69   14.60
  -3  -4   7  108.49   15.40
  -3  -4   7  169.78   18.60
   3  -4  -7  109.79   14.10
  -3   4   7  172.98   16.80
   3   4  -7  113.39   16.60
  -3   4   7  134.29   16.90
   3   4  -7  130.69   17.60
   2  -4  -7 2249.68   80.19
   2  -4  -7 2351.86   83.89
  -2  -4   7 2319.47   79.29
  -2  -4   7 2255.87   81.69
  -2   4   7 2205.78   78.99
  -2   4   7 2180.48   81.79
   2   4  -7 2224.48   80.59
  -1  -4   7   76.49   15.70
  -1  -4   7   71.49   10.80
   1  -4  -7   61.19   14.60
   1  -4  -7   76.59   12.60
  -1   4   7   92.19   18.10
   1   4  -7   80.09   11.80
  -1   4   7   92.29   13.40
   1   4  -7   72.49   14.70
   0  -4  -7  246.48   22.70
   0  -4   7  251.97   20.50
   0  -4  -7  235.48   22.30
   0  -4   7  258.17   21.30
   0   4   7  207.48   20.60
   0   4   7  250.27   22.30
   0   4  -7  243.28   21.40
   0   4  -7  258.07   18.50
   1  -4   7   18.90    5.50
  -1  -4  -7    5.80    5.50
   1  -4   7   11.90    6.10
  -1  -4  -7   -0.10    4.20
  -1   4  -7   27.60    7.30
   1   4   7   33.90   11.40
   1   4   7    6.70    5.60
  -1   4  -7   17.30    8.00
   2  -4   7  443.06   26.80
   2  -4   7  468.15   20.50
  -2  -4  -7  442.16   33.00
   2   4   7  434.46   32.50
  -2   4  -7  479.95   21.50
  -2   4  -7  460.95   28.60
   3  -4   7  667.63   33.00
  -3  -4  -7  617.04   40.90
   3  -4   7  675.83   24.40
   3   4   7  635.54   40.70
  -3   4  -7  648.34   34.20
   3   4   7  599.34   40.50
   4  -4   7  912.11   31.10
   4  -4   7  901.41   39.90
  -4  -4  -7  987.40   54.49
   4  -4   7  906.31   31.20
  -4   4  -7  896.91   41.40
   4   4   7  917.71   59.69
   4   4   7  983.50   53.99
   5  -4   7   38.60    9.20
   5  -4   7   60.89    7.30
   5  -4   7   42.00    6.00
  -5   4  -7   43.00   10.40
   5   4   7   58.69   15.40
   5   4   7   54.29   13.30
   5   4   7   51.39   14.20
   5   4   7   70.59   19.40
   6  -4   7  428.46   22.60
   6  -4   7  431.56   21.20
   6  -4   7  396.86   23.20
  -6   4  -7  429.76   25.40
   6   4   7  418.76   34.20
   6   4   7  385.66   35.40
   6   4   7  484.45   35.50
   7  -4   7  140.09   13.80
   7  -4   7  110.69   12.20
   7   4   7  142.89   27.60
  -7   4  -7  131.49   13.10
   7   4   7  141.69   20.80
   8  -4   7    1.20    3.60
   8  -4   7    2.90    3.20
   8  -4   7    5.20    5.80
   8  -4   7   -3.10    2.90
   8   4   7   12.10    9.10
   8   4   7    1.00    7.80
   9  -4   7   41.30   11.40
   9  -4   7   37.20    5.00
   9  -4   7   28.80   10.20
   9   4   7   55.19   20.10
   9   4   7   42.90   15.90
  10  -4   7   47.90   12.70
  10  -4   7   91.49   19.00
  10   4   7   44.50   17.20
  10   4   7   46.50   16.80
  11  -4   7   42.00   18.60
  11   4   7   42.60   19.50
  11   4   7   48.40   18.00
  12  -4   7  223.48   24.00
  12   4   7  200.58   40.10
  12   4   7  229.68   30.10
  12  -5  -7    3.90   10.20
  12   5  -7   12.80   12.80
  12   5  -7   18.90   17.00
  11  -5  -7  131.59   29.40
  11   5  -7  110.59   28.80
  11   5  -7  185.28   41.00
  10  -5  -7    2.60    8.00
  10   5  -7   -2.00    7.20
  10   5  -7    0.70   12.50
   9  -5  -7   14.60   11.50
   9   5  -7   -3.60    6.40
   9   5  -7    2.00    7.30
   8  -5  -7   76.89   19.90
   8  -5  -7  122.59   10.20
   8   5  -7   92.69   25.50
   8   5  -7  143.79   28.50
  -8   5   7  110.29    9.20
   7  -5  -7  419.16   23.80
   7  -5  -7  411.46   35.90
  -7   5   7  430.96   34.20
   7   5  -7  599.04   47.20
  -7   5   7  484.25   23.40
   7   5  -7  481.35   40.10
   6  -5  -7  251.57   18.90
  -6   5   7  211.58   27.20
   6   5  -7  244.78   29.10
  -6   5   7  225.68   17.20
   6   5  -7  224.58   27.00
  -5  -5   7  653.33   41.80
   5  -5  -7  596.94   39.70
  -5  -5   7  680.83   43.10
   5  -5  -7  617.44   32.50
  -5   5   7  558.34   30.60
  -5   5   7  587.24   37.90
   5   5  -7  567.54   41.90
   5   5  -7  588.64   42.20
  -4  -5   7   18.80    9.00
  -4  -5   7   14.80    8.90
   4  -5  -7   39.40   10.60
   4  -5  -7   27.40   10.60
   4   5  -7   25.10   11.70
  -4   5   7   28.30    8.90
  -4   5   7   21.40    9.70
   4   5  -7   36.60   13.70
  -3  -5   7  253.77   23.20
   3  -5  -7  279.27   22.80
   3  -5  -7  290.37   25.40
  -3  -5   7  272.17   24.80
   3   5  -7  272.77   25.10
  -3   5   7  249.58   21.30
  -3   5   7  254.77   23.50
   3   5  -7  267.27   25.60
   2  -5  -7   50.79   13.20
  -2  -5   7   57.39   12.90
  -2  -5   7   58.29   12.90
   2  -5  -7   46.70   13.40
  -2   5   7   74.99   15.00
  -2   5   7   50.29   12.30
   2   5  -7   39.50   13.30
   2   5  -7   43.00   12.60
   1  -5  -7   17.80    8.40
  -1  -5   7    6.60    4.90
  -1  -5   7   17.80    7.50
   1  -5  -7   17.50    7.80
   1   5  -7   22.80    8.80
   1   5  -7   14.60    9.20
  -1   5   7   18.20    8.20
  -1   5   7    7.50    5.80
   0  -5   7  119.79   12.10
   0  -5   7  114.59   14.80
   0  -5  -7  144.59   18.10
   0  -5  -7  132.89   17.40
   0   5   7  101.49   15.60
   0   5   7  124.29   16.80
   0   5  -7  109.29   12.50
   0   5  -7  115.09   16.10
  -1  -5  -7  735.93   43.50
   1  -5   7  738.43   29.40
   1  -5   7  687.63   36.60
   1   5   7  738.43   42.70
   1   5   7  752.42   44.00
  -1   5  -7  684.03   29.90
  -1   5  -7  690.33   38.00
  -2  -5  -7    3.00    4.50
   2  -5   7   -1.20    1.80
   2  -5   7    6.20    5.20
  -2   5  -7    6.70    3.40
  -2   5  -7   -5.40    2.50
   2   5   7   -1.60    3.90
   2   5   7   -0.20    2.90
   3  -5   7   81.39   11.70
   3  -5   7   78.49    4.60
  -3  -5  -7  137.49   31.20
  -3   5  -7   78.89   15.00
   3   5   7  112.69   23.00
   3   5   7   75.69   16.80
  -4  -5  -7   12.80    8.20
   4  -5   7   17.80    6.60
   4   5   7   16.00   10.20
  -4   5  -7   18.40    8.00
   4   5   7    7.20    6.60
   4   5   7   32.90   13.00
   5  -5   7  108.89   12.10
   5   5   7   79.19   18.40
   5   5   7  141.79   21.60
   5   5   7  186.68   28.00
  -5   5  -7  116.39   13.30
   5   5   7  114.49   18.00
   6  -5   7   76.49   11.50
   6  -5   7   69.79    5.70
   6  -5   7   81.09    6.10
   6   5   7   62.39   15.30
  -6   5  -7   81.19   10.60
   6   5   7   79.99   19.40
   7  -5   7    2.50    2.70
   7  -5   7    3.20    3.40
   7  -5   7    0.20    3.00
   7   5   7   15.50    8.50
  -7   5  -7    6.70    4.30
   7   5   7   13.00    9.40
   8  -5   7  155.08   13.20
   8  -5   7  169.98   13.40
   8   5   7  138.99   22.30
   8   5   7  206.28   27.70
   9  -5   7  134.19   13.70
   9  -5   7  125.09   12.90
   9   5   7  116.39   25.00
   9   5   7  159.78   33.90
  10  -5   7   28.30    8.70
  10  -5   7   24.20    8.70
  10   5   7   25.80   13.10
  10   5   7   13.70   12.60
  11  -5   7   68.69   14.60
  11   5   7   54.39   20.80
  11   5   7   74.89   22.00
  12   5   7    6.60   10.40
  12   5   7   -3.50    5.90
  12  -6  -7    2.10    7.10
  12   6  -7   16.30   14.20
  12   6  -7   48.60   27.50
  11  -6  -7    3.60    7.20
  11   6  -7   36.70   17.50
  11   6  -7    5.20    9.50
  10  -6  -7  290.77   33.30
  10   6  -7  200.78   41.00
  10   6  -7  200.38   32.40
   9  -6  -7   -1.50    5.50
   9   6  -7    0.30    6.80
   9   6  -7    8.50    9.00
   8  -6  -7   54.39   17.60
   8   6  -7   63.09   23.30
   8   6  -7   61.49   19.30
   7  -6  -7  107.49   23.60
   7  -6  -7   97.99   10.20
  -7   6   7   77.29   18.30
   7   6  -7  112.69   26.10
   7   6  -7   57.79   16.60
  -7   6   7   76.49    8.90
   6  -6  -7   75.79   10.60
   6  -6  -7  103.69   26.20
   6   6  -7   66.59   17.50
   6   6  -7   58.79   20.00
  -6   6   7   59.79    9.90
   5  -6  -7   56.49   14.90
   5  -6  -7   50.59   11.30
   5   6  -7   82.39   21.90
   5   6  -7   76.39   22.80
  -5   6   7   80.99   17.50
  -5   6   7   68.39   13.80
   4  -6  -7   60.79   14.90
  -4  -6   7   33.70   11.40
  -4  -6   7   61.99   16.70
   4  -6  -7   57.79   12.80
  -4   6   7   79.09   12.20
   4   6  -7   74.19   18.90
   4   6  -7   47.60   13.70
  -4   6   7   58.69   14.80
  -3  -6   7   19.30    9.50
   3  -6  -7   -0.60    5.00
   3  -6  -7    3.60    5.20
  -3  -6   7   -0.40    3.00
  -3   6   7    2.30    3.40
  -3   6   7    2.30    5.10
   3   6  -7   10.60    8.30
   3   6  -7    4.40    5.10
  -2  -6   7  434.46   32.00
   2  -6  -7  447.26   31.30
  -2  -6   7  439.26   29.10
   2  -6  -7  465.95   32.90
   2   6  -7  486.25   32.00
  -2   6   7  411.46   30.00
  -2   6   7  512.35   34.50
   2   6  -7  473.75   35.90
   1  -6  -7  131.19   17.70
   1  -6  -7  190.78   20.70
  -1  -6   7  157.48   15.50
  -1  -6   7  125.09   17.00
  -1   6   7  122.99   17.30
   1   6  -7  141.09   16.00
   1   6  -7  142.19   18.60
  -1   6   7  141.69   18.00
   0  -6  -7  380.06   30.40
   0  -6   7  382.06   22.40
   0  -6   7  374.16   27.90
   0  -6  -7  404.86   31.70
   0   6  -7  384.56   29.40
   0   6   7  397.46   31.40
   0   6   7  412.56   31.60
   0   6  -7  437.46   25.20
  -1  -6  -7  240.18   25.20
   1  -6   7  204.48   19.60
   1  -6   7  227.98   14.60
  -1   6  -7  205.78   20.80
  -1   6  -7  240.18   16.20
   1   6   7  193.18   21.90
   1   6   7  224.28   24.40
   2  -6   7   33.40    4.50
   2  -6   7   44.00   11.40
  -2  -6  -7   35.30   15.00
   2   6   7   72.89   25.40
  -2   6  -7   32.90   11.60
  -2   6  -7   31.10    5.10
  -3  -6  -7   -2.30    3.80
   3  -6   7    2.40    3.70
   3   6   7   -2.00    2.90
   3   6   7   -1.00    4.20
   3   6   7   -6.00    2.70
  -3   6  -7    7.20    4.90
   4  -6   7  517.15   28.10
   4   6   7  532.15   37.70
   4   6   7  437.06   38.00
  -4   6  -7  554.44   31.70
   4   6   7  549.45   43.00
   4   6   7  518.15   37.50
   5  -6   7  168.28   14.70
   5   6   7  226.38   25.70
  -5   6  -7  202.28   17.60
   5   6   7  167.98   22.90
   6  -6   7  596.74   26.90
   6   6   7  691.23   46.90
  -6   6  -7  604.04   29.70
   6   6   7  647.04   46.10
   7  -6   7   21.20    4.60
   7   6   7   47.40   17.00
   7   6   7   21.40   12.20
  -7   6  -7   23.30    5.50
   8   6   7    2.20    7.60
   8   6   7   -0.70    6.70
   9   6   7   37.20   16.00
   9   6   7   33.00   16.30
  10   6   7   69.39   21.10
  10   6   7   72.19   21.50
  11   6   7   26.20   13.40
  11   6   7   -4.50    6.10
  11  -7  -7  118.79   27.30
  11   7  -7   52.89   22.70
  11   7  -7   84.09   26.00
  10  -7  -7   10.30    8.70
  10   7  -7   -3.10    9.40
  10   7  -7   16.40   13.40
   9  -7  -7    0.30    7.00
   9   7  -7   -5.20    6.20
   9   7  -7   -4.20    6.50
   8  -7  -7   24.40   12.00
   8   7  -7   31.10   15.80
   8   7  -7   13.40   14.30
   7  -7  -7   87.89   20.00
  -7   7   7   71.79    7.70
   7   7  -7   49.80   17.00
  -7   7   7   77.59   17.60
  -7   7   7   76.89    8.40
   7   7  -7   56.69   19.80
   6  -7  -7   -0.70    3.90
   6  -7  -7    1.60    6.80
   6   7  -7   14.80   11.60
   6   7  -7   15.80   11.50
  -6   7   7    6.70    4.90
  -6   7   7    4.30    6.70
   5  -7  -7  212.38   24.00
   5  -7  -7  234.08   19.90
  -5   7   7  256.17   20.90
   5   7  -7  210.78   26.90
   5   7  -7  236.28   28.80
  -5   7   7  246.28   25.10
   4  -7  -7  218.68   20.80
  -4  -7   7  252.57   25.70
   4  -7  -7  220.48   23.90
   4   7  -7  326.97   32.00
  -4   7   7  256.47   25.00
   4   7  -7  275.47   28.60
  -4   7   7  277.87   23.20
  -3  -7   7    5.30    6.00
  -3  -7   7   -1.10    4.30
   3  -7  -7    7.20    6.10
   3  -7  -7    1.20    4.70
  -3   7   7   -1.90    2.90
   3   7  -7    2.10    4.90
   3   7  -7   16.90   11.00
  -3   7   7    3.10    5.00
   2  -7  -7   24.00   10.00
  -2  -7   7    3.60    4.80
  -2  -7   7    9.00    7.40
   2  -7  -7   18.30    8.50
  -2   7   7   13.40    7.50
   2   7  -7   24.40   10.70
  -2   7   7   25.20   10.80
   2   7  -7   40.60   13.70
   1  -7  -7  100.69   16.40
   1  -7  -7  111.69   17.30
  -1  -7   7  108.19   13.50
  -1   7   7  130.39   18.00
  -1   7   7   92.39   18.90
   1   7  -7   80.39   19.00
   1   7  -7  108.69   14.90
   0  -7   7   34.20    8.90
   0  -7  -7   34.30   11.90
   0  -7   7   40.20   11.40
   0   7  -7   35.80   12.90
   0   7  -7   42.10   10.50
   0   7   7   39.40   13.50
   0   7   7   52.39   14.90
   1  -7   7  194.78   19.80
   1  -7   7  191.18   13.60
  -1  -7  -7  200.68   24.20
  -1   7  -7  130.79   18.00
   1   7   7  163.98   22.00
   1   7   7  201.28   27.00
  -1   7  -7  181.48   14.70
  -2  -7  -7   20.80    9.90
   2  -7   7   60.09   14.40
  -2   7  -7   30.30   10.40
  -2   7  -7   37.40    5.70
   2   7   7   30.50   11.90
   2   7   7   29.50   11.80
   2   7   7   31.10   10.00
   3  -7   7  148.69   16.10
  -3   7  -7  134.19   16.90
   3   7   7  135.49   21.00
   3   7   7  130.99   21.80
   3   7   7  172.78   21.70
   4  -7   7    7.20    5.00
   4   7   7    6.80    7.20
  -4   7  -7   14.10    7.40
   4   7   7   12.80    8.80
   5  -7   7   36.90    9.20
   5   7   7   24.10   11.40
   5   7   7   18.00    9.70
  -5   7  -7   42.30   11.10
   6  -7   7   43.70    8.50
  -6   7  -7   55.99   10.90
   6   7   7   35.20   14.90
   6   7   7   32.40   14.30
   7   7   7   -2.90    6.30
   7   7   7    0.90    6.40
   8   7   7  218.18   29.30
   8   7   7  210.08   30.00
   9   7   7  155.08   32.10
   9   7   7  139.89   30.10
  10   7   7   80.69   26.40
  10   7   7   45.30   18.70
  11   7   7   59.19   22.00
  11   7   7   31.80   18.50
  11  -8  -7   21.70   11.50
  11   8  -7   38.10   20.80
  10  -8  -7   37.60   14.70
  10   8  -7   19.00   14.70
  10   8  -7   20.10   13.90
   9  -8  -7   50.49   16.40
   9   8  -7   39.80   19.30
   9   8  -7   34.40   17.10
   8  -8  -7  216.78   26.40
   8   8  -7  138.29   30.00
   8   8  -7  237.68   50.99
   7  -8  -7   19.30   10.50
   7   8  -7    4.00    9.70
  -7   8   7    1.40    2.90
   7   8  -7    5.70   10.10
  -7   8   7    2.30    5.20
  -7   8   7    9.40    3.90
   6  -8  -7   52.39   15.90
   6   8  -7   30.90   14.60
  -6   8   7   61.09   12.20
  -6   8   7   58.49   10.70
   6   8  -7   48.00   18.80
  -6   8   7   47.50   14.50
   5   8  -7  384.36   38.10
  -5   8   7  424.16   28.30
  -5   8   7  386.76   24.40
   5   8  -7  364.66   35.80
   4  -8  -7  161.58   20.90
   4   8  -7  150.18   22.70
   4   8  -7  156.48   24.70
  -4   8   7  170.38   19.10
  -4   8   7  149.39   20.40
   3  -8  -7   52.19   14.90
  -3  -8   7   55.49   15.30
   3  -8  -7   51.29   13.80
  -3   8   7   53.59   13.90
   3   8  -7   37.40   13.90
   3   8  -7   55.69   16.40
  -3   8   7   19.50    9.50
  -2  -8   7 1360.96   59.69
  -2  -8   7 1365.26   66.69
   2  -8  -7 1330.77   64.79
   2  -8  -7 1410.06   65.69
   2   8  -7 1384.96   62.99
   2   8  -7 1424.46   70.69
  -2   8   7 1365.76   65.99
  -2   8   7 1372.96   65.09
  -1  -8   7  309.97   28.20
   1  -8  -7  343.07   31.80
  -1  -8   7  319.67   23.70
   1   8  -7  288.87   24.50
  -1   8   7  364.46   44.40
   1   8  -7  354.06   31.50
  -1   8   7  329.77   30.10
   0  -8   7  350.46   29.40
   0  -8   7  395.56   24.20
   0   8   7  423.96   31.90
   0   8   7  359.86   32.60
   0   8  -7  424.36   33.60
   0   8  -7  453.75   27.50
   0   8   7  359.46   33.00
   1  -8   7   51.19   14.20
   1  -8   7   62.59   11.60
   1   8   7   36.10   12.10
   1   8   7   44.00   13.70
  -1   8  -7   68.99   16.90
   1   8   7   36.50   14.00
  -1   8  -7   58.69    9.00
   2  -8   7   23.60    9.60
  -2   8  -7   15.00    4.60
   2   8   7    1.20    5.20
   2   8   7    8.90    8.00
  -2   8  -7    2.50    5.20
   3  -8   7   13.40    6.50
  -3   8  -7   14.00    9.10
   3   8   7   12.90    8.10
   4  -8   7  659.03   34.00
  -4   8  -7  589.14   35.20
   4   8   7  600.44   45.00
   4   8   7  652.03   45.30
   5  -8   7   78.39   10.70
  -5   8  -7   97.79   13.70
   5   8   7   69.49   18.10
   5   8   7  113.39   24.10
   6  -8   7  427.56   24.40
   6   8   7  537.45   43.90
   6   8   7  445.06   40.50
  -6   8  -7  438.76   24.60
   7   8   7   30.70   16.40
   7   8   7   19.40   11.70
   8   8   7   60.19   19.60
   8   8   7  117.09   27.10
   9   8   7    8.90   10.10
   9   8   7    4.00    9.00
  10   8   7   64.19   21.90
  10   8   7   73.69   23.90
  11   8   7   -8.60    7.30
  11   8   7   -1.50    7.10
  11  -9  -7   22.60   13.60
  11   9  -7   24.60   18.00
  11   9  -7   30.80   18.40
  10  -9  -7   60.99   19.20
  10   9  -7  116.39   31.20
  10   9  -7  137.79   37.60
   9  -9  -7   79.29   20.60
   9   9  -7   38.80   19.70
   9   9  -7   39.30   17.70
   8  -9  -7    6.40    8.40
   8   9  -7    1.60    7.40
   8   9  -7    2.40    8.20
   7  -9  -7  242.98   27.10
  -7   9   7  279.27   14.40
   7   9  -7  309.77   41.60
   7   9  -7  252.97   35.80
  -7   9   7  248.28   14.40
  -7   9   7  253.87   26.70
   6  -9  -7  114.59   18.60
   6   9  -7  112.49   25.80
  -6   9   7  139.29   20.00
  -6   9   7  111.89   13.70
   6   9  -7  155.88   31.80
  -6   9   7  130.79   13.00
   5  -9  -7   44.70   15.80
  -5   9   7   47.50   15.70
  -5   9   7   33.90    9.40
   5   9  -7   27.40   14.20
   5   9  -7   40.30   16.30
  -5   9   7   47.10   12.20
   4  -9  -7   82.49   19.40
   4   9  -7   57.99   21.10
  -4   9   7   76.89   12.70
  -4   9   7  100.89   20.70
   4   9  -7   92.69   22.90
  -4   9   7   80.59   18.10
  -3  -9   7  101.39   20.10
   3  -9  -7  113.59   23.00
  -3   9   7   93.69   14.70
  -3   9   7  119.79   23.80
   3   9  -7   66.49   17.40
   3   9  -7  102.39   22.80
  -3   9   7  145.29   19.30
  -2  -9   7    1.30    5.00
  -2   9   7    4.30    4.10
   2   9  -7    9.90    9.60
  -2   9   7    4.00    5.10
   2   9  -7    5.90    6.30
  -1  -9   7  253.87   21.70
  -1   9   7  258.17   28.20
   1   9  -7  242.08   23.10
  -1   9   7  275.77   25.90
  -1   9   7  217.18   25.40
   1   9  -7  225.68   26.90
   0  -9   7  119.19   18.10
   0  -9   7  116.09   13.60
   0   9  -7  149.59   21.30
   0   9   7  107.49   17.50
   0   9  -7  103.09   14.30
   0   9   7  120.39   19.80
   0   9   7  144.39   28.20
   1  -9   7   99.09   16.10
  -1   9  -7  105.69   21.70
  -1   9  -7  103.29   12.40
   1   9   7  114.69   23.40
   2  -9   7  242.48   23.00
   2   9   7  246.58   27.40
  -2   9  -7  204.48   13.20
  -2   9  -7  233.28   29.60
   3  -9   7   54.09   13.60
   3   9   7   35.30   12.70
  -3   9  -7   48.90   15.20
   3   9   7   58.49   17.50
   4  -9   7    2.00    4.60
  -4   9  -7   -0.80    3.80
   4   9   7   14.20   11.10
   4   9   7   18.40   10.60
   5  -9   7   20.20    7.50
   5   9   7   22.40   11.90
  -5   9  -7    9.00    6.70
   5   9   7   17.90   11.70
   6  -9   7  105.49   19.40
  -6   9  -7  110.99   12.70
   6   9   7   83.19   23.30
   6   9   7   66.19   21.40
   7   9   7   22.10   13.00
   7   9   7   48.40   17.70
   8   9   7   90.99   26.40
   8   9   7   52.29   20.50
   9   9   7   59.59   21.70
   9   9   7   53.79   20.40
  10   9   7   35.90   18.40
  10   9   7   50.79   20.60
  10 -10  -7    4.50    7.20
  10  10  -7   -2.30   15.90
  10  10  -7  -11.20    6.90
   9 -10  -7  122.39   20.30
   9  10  -7  124.29   31.20
   9  10  -7  120.49   34.40
   8 -10  -7  166.28   22.80
   8  10  -7   88.79   27.30
   8  10  -7  134.59   32.80
   7 -10  -7   38.00   14.60
  -7  10   7   41.90   14.60
  -7  10   7   50.79    7.40
   7  10  -7   20.80   13.70
   7  10  -7  102.99   29.60
  -7  10   7   37.10    6.00
   6 -10  -7   20.50   10.60
   6  10  -7    3.90    7.80
  -6  10   7   19.30    8.20
  -6  10   7   13.80    6.10
   6  10  -7   39.10   18.20
  -6  10   7   21.60   11.30
   5 -10  -7    1.20    5.40
  -5  10   7    6.70    6.90
  -5  10   7    7.60    6.50
  -5  10   7    0.90    4.50
   5  10  -7   -1.70    6.80
   5  10  -7   -7.70    3.90
   4 -10  -7   -2.00    3.70
  -4  10   7   -2.00    3.60
   4  10  -7   -5.40    6.20
   4  10  -7    4.30    9.30
  -4  10   7   12.10    8.30
  -4  10   7   13.00    7.20
  -3  10   7  344.17   31.10
   3  10  -7  291.07   30.50
   3  10  -7  246.88   31.60
  -3  10   7  319.67   27.00
  -3  10   7  240.78   27.10
  -2 -10   7    2.70    5.30
  -2  10   7    9.20    8.10
   2  10  -7   -0.20    7.00
   2  10  -7    6.20    7.70
  -2  10   7    8.40    7.90
  -2  10   7   19.30   11.10
  -1 -10   7  419.46   29.20
   1  10  -7  435.56   38.70
  -1  10   7  357.26   34.10
  -1  10   7  341.07   40.60
  -1  10   7  440.86   34.60
   1  10  -7  402.86   31.10
   0  10  -7  224.08   27.00
   0  10   7  193.68   23.90
   0  10  -7  208.88   20.30
   1 -10   7    5.80    6.10
  -1  10  -7    2.80    7.90
   1  10   7   -1.70    4.00
  -1  10  -7    4.90    5.40
   2 -10   7   15.40    8.30
  -2  10  -7   22.40   11.70
  -2  10  -7   14.10    5.00
   2  10   7   17.60   11.80
  -2  10  -7    6.80    4.10
   3 -10   7   48.50   16.60
  -3  10  -7   53.29   18.10
   3  10   7   59.69   19.00
   3  10   7   39.80   13.60
   4 -10   7  188.78   19.30
  -4  10  -7  200.48   22.20
   4  10   7  202.08   27.80
   4  10   7  207.28   27.30
   5 -10   7  389.46   25.50
   5  10   7  384.36   38.90
  -5  10  -7  398.46   28.50
   5  10   7  304.57   36.20
   6 -10   7   77.99    9.80
   6  10   7   65.69   20.00
  -6  10  -7   77.39   11.60
   6  10   7  100.09   24.40
   7  10   7    8.10    9.90
   7  10   7   -0.40    4.90
   8  10   7   10.20   10.60
   8  10   7    1.50    8.80
   9  10   7   62.09   23.20
   9  10   7   48.00   20.70
  10  10   7    3.20   11.60
  10  10   7   13.00   14.00
   9 -11  -7    5.40    7.00
   9  11  -7   10.20   13.10
   9  11  -7   -3.40    7.30
   8 -11  -7    5.30    6.70
   8  11  -7   12.30   12.80
   8  11  -7   -5.40    6.20
   7 -11  -7   61.09   16.60
  -7  11   7   31.40   13.70
  -7  11   7   45.40    7.80
  -7  11   7   48.90    7.50
   7  11  -7   56.09   21.50
   7  11  -7   55.89   24.30
   6 -11  -7  359.16   32.10
  -6  11   7  295.17   24.20
  -6  11   7  334.37   23.00
   6  11  -7  341.87   41.70
  -6  11   7  283.27   29.10
   6  11  -7  306.97   38.40
   5 -11  -7   -4.10    3.20
  -5  11   7   -1.80    3.90
   5  11  -7    3.60   10.30
   5  11  -7    5.50   10.40
  -5  11   7   -1.40    4.60
  -5  11   7    0.20    5.40
   4  11  -7   20.40   13.80
  -4  11   7   30.80   12.10
  -4  11   7   47.00   16.10
   4  11  -7   30.00   16.80
  -4  11   7   26.70   10.70
   3  11  -7    7.30    9.60
  -3  11   7   12.40    9.10
  -3  11   7    5.20    6.20
   3  11  -7   -2.80    6.90
  -3  11   7    5.70    7.20
   2  11  -7    8.40   10.50
  -2  11   7   35.00   12.70
   2  11  -7   46.40   14.50
   1  11  -7   34.10   14.00
  -1  11   7   58.39   17.40
   1  11  -7   62.69   15.70
   0  11  -7   20.60    9.30
   0  11   7   44.80   15.50
   0  11  -7   20.30   12.50
  -1  11  -7   52.49   16.50
   1  11   7   76.09   20.00
  -1  11  -7   72.39   11.90
   2 -11   7  574.34   49.10
  -2  11  -7  620.14   27.00
   2  11   7  645.84   48.40
  -2  11  -7  596.14   26.00
   2  11   7  622.94   46.30
  -2  11  -7  585.54   43.30
   3 -11   7    8.70    6.70
   3  11   7    4.70    7.30
  -3  11  -7    9.40    7.60
   3  11   7   24.60   13.10
   4 -11   7   18.30   10.50
   4  11   7    8.60   10.40
   4  11   7   38.80   16.20
   5 -11   7    0.00    3.90
   5  11   7   13.50   10.20
  -5  11  -7    6.40    6.50
   5  11   7   11.20    9.80
   6  11   7   24.50   14.00
  -6  11  -7    4.10    4.00
  -6  11  -7    1.50    4.70
   6  11   7   15.50   14.10
   7  11   7   -4.30    4.90
   7  11   7   -1.30    6.50
   8  11   7   70.29   25.10
   8  11   7   54.39   21.30
   9  11   7    9.60   14.50
   9  11   7   -6.90    8.90
   9  12  -7  167.18   41.10
   9  12  -7  162.78   40.40
   8  12  -7    6.40   14.30
   8  12  -7   59.79   24.40
  -7  12   7   54.89    7.30
   7  12  -7   48.10   21.40
   7  12  -7   79.79   29.30
   6  12  -7   -1.00    6.20
  -6  12   7   -2.00    3.50
   6  12  -7    3.50    8.30
  -6  12   7    3.50    5.50
  -5  12   7    0.10    8.30
   5  12  -7    2.20    8.30
  -5  12   7    2.60    5.10
   5  12  -7    2.80   16.00
   4  12  -7    1.40    8.50
  -4  12   7    8.70    8.80
  -4  12   7    3.30    6.30
   4  12  -7   22.20   15.40
  -3  12   7  858.31   49.99
   3  12  -7  826.82   55.39
  -2  12   7  137.49   20.90
   2  12  -7   76.89   23.30
   2  12  -7  109.89   23.70
  -1  12   7  758.42   49.99
   1  12  -7  590.14   41.00
   1  12  -7  599.94   50.19
   0  12  -7   42.80   12.50
   0  12   7   62.49   20.40
   0  12  -7   46.30   19.70
  -1  12  -7    3.90    4.50
  -1  12  -7    4.60    5.20
   1  12   7    6.70    6.90
  -1  12  -7   -1.00    6.60
   1  12   7    5.60    9.70
  -2  12  -7    4.90    7.80
  -2  12  -7   14.20    5.70
   2  12   7   -2.80    7.10
  -2  12  -7   13.40    5.50
   2  12   7   13.70   10.30
   3  12   7   66.39   20.10
   3  12   7  105.79   27.30
  -3  12  -7   43.20   14.90
   4 -12   7   23.60   10.00
  -4  12  -7   29.10   12.30
   4  12   7   21.00   13.80
   4  12   7   35.00   17.10
   5 -12   7  303.97   24.40
  -5  12  -7  271.57   25.70
   5  12   7  270.17   35.20
   5  12   7  249.78   34.70
   6  12   7   -2.80    5.60
  -6  12  -7    4.60    4.40
   6  12   7   -7.70    4.80
  -6  12  -7    0.10    4.20
   7  12   7  180.68   38.70
   7  12   7  133.19   33.10
   8  12   7   46.90   22.40
   8  13  -7   11.30   15.00
   8  13  -7    0.70   10.30
   7  13  -7    6.50   11.40
   7  13  -7   25.90   17.10
   6  13  -7  232.68   38.60
   6  13  -7  225.88   35.10
  -6  13   7  182.58   19.30
  -5  13   7    3.90    7.70
   5  13  -7    1.00    9.60
  -5  13   7    6.00    6.40
   5  13  -7   17.20   13.00
   4  13  -7   52.09   19.60
   4  13  -7   52.59   22.20
  -4  13   7  113.09   17.90
  -3  13   7   12.10    9.20
   3  13  -7   37.10   16.20
   3  13  -7   23.50   17.10
   2  13  -7    5.60    9.20
  -2  13   7   22.60   11.40
   2  13  -7    6.50   10.10
   1  13  -7   49.40   16.40
  -1  13   7    5.70    7.20
   1  13  -7   44.30   20.60
   0  13   7   38.10   16.20
   0  13   7   48.00   15.90
   0  13  -7    2.50    8.50
   0  13  -7   40.00   12.60
   1  13   7   24.80   13.90
  -1  13  -7   12.00   11.20
  -1  13  -7   20.70    9.40
   1  13   7    4.60    7.90
  -1  13  -7   15.10    7.80
   2  13   7   44.40   16.60
  -2  13  -7   49.50   16.60
   2  13   7   58.59   19.10
  -2  13  -7   60.49    8.50
  -2  13  -7   61.19    8.60
   3  13   7   -5.80    3.70
   3  13   7    3.20    6.10
  -3  13  -7   -1.00    6.20
   4  13   7   15.80   14.60
  -4  13  -7   -3.80    4.20
   4  13   7    9.70   10.00
   5  13   7   -2.20    5.30
   5  13   7    2.00    8.20
  -5  13  -7    8.70    7.70
  -6  13  -7    4.50    5.70
   6  13   7   14.80   13.50
   6  13   7    3.50   10.50
   7  13   7   15.50   14.10
   7  13   7    6.20   11.80
   8  13   7  113.39   32.70
   8  13   7  165.28   39.30
   7  14  -7   17.10   16.40
   7  14  -7    1.50    9.50
   6  14  -7   35.30   20.00
   5  14  -7    0.50    8.30
   5  14  -7   16.20   16.10
  -5  14   7   28.10   13.00
   4  14  -7    7.50   11.60
   4  14  -7    1.10    7.20
  -4  14   7   10.90    8.40
   3  14  -7  149.19   34.90
   3  14  -7  136.79   30.40
  -3  14   7  135.79   21.60
   2  14  -7    4.70   10.00
  -2  14   7    7.90    7.20
   2  14  -7   51.09   24.20
   1  14  -7  256.67   35.20
  -1  14   7  212.78   27.00
   1  14  -7  240.38   27.30
  -1  14   7  247.08   30.80
   0  14  -7   27.30   18.90
   0  14   7   26.00   14.10
   0  14  -7   11.30    8.40
   0  14   7   20.20   14.20
   0  14  -7   12.20   10.10
  -1  14  -7    0.90    6.90
  -1  14  -7   10.50    6.80
  -1  14  -7   19.30    9.50
   1  14   7   11.90   10.50
   1  14   7   36.40   14.90
   2  14   7   39.30   17.40
  -2  14  -7   26.60   14.60
   2  14   7   41.10   18.40
  -2  14  -7   28.00    7.00
  -2  14  -7   33.10    7.20
   3  14   7   -3.40    6.80
  -3  14  -7   -6.80    4.50
   3  14   7   -2.40    5.30
   4  14   7   -6.40    6.70
   4  14   7    5.10   10.80
  -4  14  -7   -0.10    5.10
   5  14   7  300.87   40.80
  -5  14  -7  260.47   27.30
   5  14   7  224.48   35.00
   6  14   7   -1.70    6.80
   6  14   7   -2.10    8.40
  -5  15   7   20.30   11.40
   5  15  -7   43.80   23.20
   4  15  -7  105.99   29.10
  -4  15   7   56.59   17.50
  -4  15   7   56.79   15.60
   4  15  -7   54.79   21.00
   3  15  -7   30.80   15.60
   3  15  -7   10.40   13.00
  -3  15   7    2.70    5.80
  -3  15   7   35.20   15.00
  -2  15   7    6.20    6.80
   2  15  -7   -3.70    9.40
   2  15  -7    7.30   10.70
  -2  15   7   10.40    9.40
  -1  15   7   40.70   16.40
   1  15  -7   23.60   16.10
   1  15  -7    6.90    7.90
  -1  15   7   29.50   14.10
   0  15  -7   54.19   22.00
   0  15   7   77.39   24.00
   0  15  -7   27.80   11.20
   0  15   7   44.30   17.90
  -1  15  -7   15.20    7.90
   1  15   7    9.40    8.60
   1  15   7    5.60    8.50
  -1  15  -7    1.30    9.60
   2  15   7   32.40   16.50
   2  15   7   12.20   10.10
  -2  15  -7   35.40   20.00
  -3  15  -7  130.99   28.30
   3  15   7   99.89   28.10
   3  15   7  116.69   30.20
   4  15   7   12.60   12.20
  -4  15  -7   41.80   15.50
   4  15   7   49.90   18.90
  -5  15  -7    5.00    7.60
   5  15   7    8.90   11.70
   5  15   7   -0.80    7.40
  -4  16   7   16.90   11.60
   4  16  -7   30.80   17.10
   4  16  -7   37.70   19.40
  -4  16   7   42.60   15.40
  -3  16   7   -1.80    4.90
   3  16  -7    5.40   15.90
   3  16  -7    3.20    7.90
  -3  16   7    2.40    8.40
   2  16  -7   -4.50    6.70
  -2  16   7   15.40   12.20
  -2  16   7   -0.50    6.50
   2  16  -7    1.60    9.90
   1  16  -7   45.60   15.30
  -1  16   7   32.80   15.10
   1  16  -7   39.70   19.80
  -1  16   7   45.40   17.40
   0  16  -7   10.10    9.90
   0  16   7   24.40   13.50
   0  16  -7    9.20   10.50
   0  16   7   13.10    9.80
   1  16   7    5.40    9.40
  -1  16  -7    7.80    7.80
   1  16   7   12.70   12.30
  -1  16  -7    7.90    9.00
   2  16   7    2.60    8.30
  -2  16  -7   -2.20    6.90
   2  16   7   -3.70    5.30
   3  16   7   77.89   23.60
   3  16   7   82.89   40.30
  -3  16  -7   71.39   22.60
  12   0  -8   35.80   18.20
  12   0  -8   40.40   15.00
  11   0  -8    2.70    8.00
 -11   0   8    1.20    5.90
  11   0  -8    3.00    5.20
  10   0  -8  314.77   39.10
 -10   0   8  378.66   29.90
  10   0  -8  382.36   32.70
   9   0  -8    0.10    6.70
  -9   0   8    4.80    5.20
   9   0  -8    2.00    6.00
   8   0  -8  235.98   30.70
  -8   0   8  202.98   21.00
   8   0  -8  196.68   22.90
   7   0  -8    2.30    6.80
   7   0  -8   -1.50    4.00
  -7   0   8   -3.30    2.60
  -6   0   8  118.59   15.30
   6   0  -8  101.89   15.90
   6   0  -8   83.69   21.30
  -6   0   8  113.09   22.50
  -5   0   8   -1.70    3.10
   5   0  -8   -0.40    5.30
  -5   0   8    5.30    6.70
  -4   0   8    9.00    6.50
  -4   0   8    7.00    6.20
   4   0  -8    3.80    6.60
   4   0  -8   13.40    7.40
  -3   0   8    1.10    4.00
  -3   0   8   -4.60    2.60
   3   0  -8    1.90    4.40
   3   0  -8    6.10    5.50
   2   0  -8   91.99   13.80
   2   0  -8  131.59   16.20
  -2   0   8  161.38   16.60
  -1   0   8    0.90    4.60
   1   0  -8    0.40    4.30
  -1   0   8   -1.70    3.00
   1   0  -8    5.00    5.10
   0   0   8  718.43   36.00
   0   0  -8  727.13   36.60
   0   0   8  690.63   36.90
   1   0   8   -2.70    2.70
  -1   0  -8   -3.90    2.00
  -1   0  -8   -2.90    1.90
   1   0   8   -0.50    3.00
   2   0   8   82.09   15.70
  -2   0  -8   67.39   14.50
   2   0   8   57.09   12.60
  -2   0  -8   78.29   15.50
   3   0   8    3.70    4.40
  -3   0  -8   -4.00    2.10
   3   0   8    0.40    3.30
   4   0   8   22.50    9.20
  -4   0  -8   17.80    8.60
   4   0   8   25.70   10.20
   5   0   8    7.00    6.60
   5   0   8    0.90    4.20
   5   0   8    2.00    4.60
  -5   0  -8    3.80    4.60
   6   0   8  748.93   40.90
   6   0   8  770.52   44.80
   6   0   8  784.02   44.80
  -6   0  -8  849.12   46.30
   7   0   8   -2.20    4.90
   7   0   8   -3.40    2.80
  -7   0  -8    2.90    6.30
   8   0   8  553.84   34.70
   8   0   8  533.45   37.30
   8   0   8  463.75   37.70
   8   0   8  500.75   37.00
   9   0   8   -0.60    3.90
   9   0   8   -1.00    3.90
   9   0   8    6.90    5.70
  10   0   8    1.30    5.80
  10   0   8   25.70   12.50
  10   0   8   11.70    9.20
  11   0   8    2.70    7.70
  11   0   8    6.30    7.30
  11   0   8    0.10    6.70
  12   0   8  112.99   27.60
  12   0   8  101.69   19.80
  12  -1  -8   13.40    9.40
  12  -1  -8    8.70   12.50
  12   1  -8    3.30    6.10
  12   1  -8    1.40    7.30
  11  -1  -8  408.86   35.90
  11  -1  -8  375.36   43.40
  11   1  -8  373.46   44.70
 -11   1   8  372.46   34.30
  11   1  -8  401.66   36.10
  10  -1  -8   19.00    9.60
  10  -1  -8   25.80   13.70
  10   1  -8   37.10   13.70
 -10   1   8   21.90    9.40
   9  -1  -8   34.10   11.80
  -9  -1   8   72.69   16.90
   9  -1  -8   28.90   14.00
  -9   1   8   53.49   12.90
   9   1  -8   24.50   10.70
   9   1  -8   44.00   18.60
  -8  -1   8  134.89   18.00
   8  -1  -8   85.69   21.60
   8  -1  -8  116.19   17.00
   8   1  -8   94.79   23.60
   8   1  -8  146.49   20.70
  -8   1   8  132.09   16.20
   7  -1  -8   64.89   19.00
  -7  -1   8   32.50   10.90
   7  -1  -8   47.00   13.50
   7   1  -8   39.20   13.40
  -7   1   8   47.90   12.60
   7   1  -8   33.70   14.10
   6  -1  -8   49.99   13.20
   6  -1  -8   41.50   14.40
  -6  -1   8   33.60   13.20
  -6  -1   8   68.39   15.40
  -6   1   8   53.19   15.10
   6   1  -8   45.40   14.60
  -6   1   8   47.70   11.90
   6   1  -8   35.20   14.70
   5  -1  -8  724.33   45.10
  -5  -1   8  708.03   38.80
  -5  -1   8  703.83   43.90
   5  -1  -8  634.34   37.60
   5   1  -8  687.63   44.90
  -5   1   8  746.13   43.50
  -5   1   8  699.63   37.30
   5   1  -8  730.23   41.90
  -4  -1   8  313.57   26.70
  -4  -1   8  320.67   25.10
   4  -1  -8  337.37   25.50
   4  -1  -8  289.07   26.90
  -4   1   8  323.97   24.80
   4   1  -8  391.76   29.10
  -4   1   8  352.56   27.90
   4   1  -8  338.77   29.30
  -3  -1   8 1276.07   57.19
   3  -1  -8 1302.97   59.19
   3  -1  -8 1388.86   57.59
  -3  -1   8 1358.36   56.59
   3   1  -8 1365.96   58.89
  -3   1   8 1417.06   55.99
   3   1  -8 1292.57   59.19
   2  -1  -8   -5.60    2.90
  -2  -1   8    2.80    5.10
  -2  -1   8   -0.70    3.50
   2  -1  -8    0.20    3.50
   2   1  -8   -5.20    2.60
   2   1  -8   -3.50    2.80
  -2   1   8   -7.20    1.90
  -2   1   8   -1.90    3.20
   1  -1  -8    0.80    3.70
   1  -1  -8    4.10    5.00
  -1  -1   8    1.40    3.30
  -1  -1   8   -0.60    3.30
  -1   1   8    1.70    4.20
   1   1  -8    3.70    4.70
  -1   1   8    0.80    3.40
   1   1  -8    0.10    4.60
   0  -1  -8  715.13   38.80
   0  -1  -8  725.23   38.00
   0  -1   8  769.72   38.80
   0  -1   8  724.13   35.70
   0   1   8  715.43   38.50
   0   1  -8  746.53   36.60
   0   1  -8  784.42   39.80
   0   1   8  780.12   39.00
   1  -1   8  422.26   27.80
   1  -1   8  446.66   26.30
  -1  -1  -8  516.05   31.90
  -1  -1  -8  457.35   29.00
   1   1   8  473.55   29.30
  -1   1  -8  435.86   28.80
   1   1   8  496.65   30.90
  -1   1  -8  469.65   27.10
  -2  -1  -8   79.79   12.60
  -2  -1  -8   71.39   14.90
   2  -1   8   60.09   13.30
   2  -1   8   65.69   10.50
   2   1   8   52.09   12.00
   2   1   8   92.29   13.20
  -2   1  -8  104.59   12.70
  -2   1  -8   77.39   16.00
   3  -1   8  185.38   16.70
   3  -1   8  157.18   17.30
  -3  -1  -8  151.58   18.30
  -3   1  -8  176.18   18.30
   3   1   8  144.29   17.70
   3   1   8  159.88   17.60
  -4  -1  -8  625.94   38.40
   4  -1   8  544.15   33.40
   4  -1   8  570.44   32.10
  -4   1  -8  587.94   35.20
   4   1   8  546.35   35.40
   4   1   8  585.14   36.80
   5  -1   8  220.38   20.80
   5  -1   8  194.18   17.20
  -5  -1  -8  198.28   22.00
   5  -1   8  192.88   19.20
   5   1   8  183.88   18.90
  -5   1  -8  221.88   21.30
   5   1   8  174.08   20.60
   5   1   8  194.98   21.50
   6  -1   8    3.10    4.70
   6  -1   8   13.10    6.30
  -6  -1  -8   11.20    7.10
   6  -1   8   15.20    8.20
  -6   1  -8    1.20    4.60
   6   1   8    8.70    7.00
   6   1   8    6.70    5.80
   6   1   8    6.90    7.10
   7  -1   8  393.66   29.90
   7  -1   8  421.96   29.60
   7  -1   8  388.66   30.90
   7   1   8  396.26   39.10
   7   1   8  385.56   33.50
  -7   1  -8  405.56   30.50
   7   1   8  412.46   32.10
   7   1   8  374.66   34.50
   8  -1   8   61.39   14.80
   8  -1   8   35.10   12.10
   8  -1   8   40.30   11.50
   8  -1   8   41.40   14.30
   8   1   8   23.10   11.20
   8   1   8   61.69   15.50
   8   1   8   23.90   10.30
   9  -1   8  148.09   19.30
   9  -1   8  125.19   20.30
   9  -1   8  132.49   16.30
   9  -1   8  183.98   22.30
   9   1   8  143.39   21.70
   9   1   8  158.98   22.70
   9   1   8  195.98   21.80
  10  -1   8    3.50    5.40
  10  -1   8   -1.40    4.40
  10  -1   8    3.00    7.20
  10   1   8    2.90    5.90
  10   1   8   15.60   11.30
  11  -1   8  138.89   22.60
  11  -1   8  113.69   15.70
  11   1   8  127.49   19.30
  11   1   8  124.09   26.30
  12  -1   8   20.80   13.70
  12  -1   8   27.80   10.30
  12   1   8    8.20   11.50
  12   1   8   16.70    9.60
  12  -2  -8    4.20    4.90
  12  -2  -8   11.90   10.60
  12   2  -8    9.10   13.10
  12   2  -8   20.40   11.20
  11  -2  -8   25.60   16.00
  11  -2  -8   49.20   12.60
  11   2  -8   26.40   14.80
  11   2  -8    9.90   11.80
 -11   2   8   36.50   10.70
  10  -2  -8   53.49   13.60
  10  -2  -8   44.70   18.20
  10   2  -8   38.80   18.40
  10   2  -8   54.39   17.40
 -10   2   8   36.10   11.10
   9  -2  -8   65.69   22.10
   9  -2  -8   51.89   13.60
  -9   2   8   72.19   14.20
   9   2  -8   52.89   16.40
   9   2  -8   66.59   21.50
  -8  -2   8   36.60   12.30
   8  -2  -8   45.90   13.20
   8  -2  -8   64.59   21.30
   8   2  -8   48.70   17.00
  -8   2   8   52.59   11.60
   8   2  -8   63.09   20.20
  -7  -2   8  140.59   18.70
   7  -2  -8  152.18   28.30
   7  -2  -8  109.79   16.00
  -7   2   8  132.69   15.20
   7   2  -8  139.49   20.60
   7   2  -8  123.39   25.70
   6  -2  -8   83.39   18.70
  -6  -2   8   66.69   18.50
  -6  -2   8   72.59   16.00
   6  -2  -8   80.69   16.20
  -6   2   8   79.29   14.90
   6   2  -8   72.89   21.40
   6   2  -8   49.10   16.00
  -6   2   8   70.79   16.90
   5  -2  -8   26.20    9.70
  -5  -2   8   10.80    6.40
  -5  -2   8   18.30    7.50
   5  -2  -8    4.00    6.40
  -5   2   8   21.20    7.70
   5   2  -8    2.60    6.60
   5   2  -8   16.60    9.80
  -5   2   8   13.00    6.90
   4  -2  -8  853.71   42.40
  -4  -2   8  808.42   42.80
   4  -2  -8  782.52   45.50
  -4  -2   8  833.52   45.50
   4   2  -8  810.02   46.60
  -4   2   8  871.61   41.00
   4   2  -8  836.52   45.70
  -4   2   8  821.32   44.80
  -3  -2   8  320.17   25.40
   3  -2  -8  320.87   24.40
  -3  -2   8  314.87   25.10
  -3   2   8  312.47   25.60
   3   2  -8  291.47   25.30
  -3   2   8  294.57   23.10
   2  -2  -8  138.89   16.20
  -2  -2   8  129.99   15.60
  -2  -2   8  144.09   16.50
   2  -2  -8  136.79   17.20
  -2   2   8  126.69   16.30
   2   2  -8  112.99   16.00
   2   2  -8  115.99   15.70
  -2   2   8  159.38   16.90
   1  -2  -8    5.80    6.00
  -1  -2   8   -3.20    3.10
  -1  -2   8    7.70    6.40
   1  -2  -8   -4.10    2.40
  -1   2   8   18.00    8.60
   1   2  -8   -2.20    3.50
  -1   2   8    5.30    5.80
   1   2  -8    2.90    5.30
   0  -2   8  991.30   45.60
   0  -2   8 1046.10   43.30
   0  -2  -8  988.40   48.00
   0  -2  -8 1039.50   48.50
   0   2   8 1058.19   48.60
   0   2   8  936.21   46.60
   0   2  -8 1058.69   44.10
   0   2  -8  989.70   47.10
   1  -2   8    3.40    3.80
  -1  -2  -8   16.60    8.00
  -1  -2  -8    6.90    5.40
   1  -2   8    2.80    4.00
   1   2   8   -2.20    2.60
  -1   2  -8   -2.80    2.50
   1   2   8    6.60    5.90
  -1   2  -8    2.90    3.70
   2  -2   8  267.77   21.60
   2  -2   8  263.17   21.70
  -2  -2  -8  237.28   21.90
  -2  -2  -8  242.58   23.10
   2   2   8  266.57   23.10
  -2   2  -8  265.87   18.60
  -2   2  -8  241.68   21.20
   2   2   8  216.88   21.60
   3  -2   8   39.50   11.20
   3  -2   8   36.40   10.10
  -3  -2  -8   35.80   12.00
   3   2   8   55.39   14.90
   3   2   8   53.09   14.00
  -3   2  -8   22.50    8.40
   4  -2   8    6.60    4.40
  -4  -2  -8    1.00    4.80
   4  -2   8   -1.40    2.50
   4   2   8    1.50    4.70
  -4   2  -8   11.50    7.00
   4   2   8   -4.00    2.70
   5  -2   8  641.54   30.90
  -5  -2  -8  654.93   42.40
   5  -2   8  643.54   33.50
   5  -2   8  679.83   36.60
   5   2   8  612.94   40.90
   5   2   8  531.45   35.40
  -5   2  -8  627.24   36.00
   5   2   8  617.44   41.10
  -6  -2  -8  650.93   45.50
   6  -2   8  700.63   38.10
   6  -2   8  672.83   38.10
   6  -2   8  758.82   36.10
   6   2   8  699.33   42.10
   6   2   8  727.63   46.50
  -6   2  -8  704.83   38.90
   7  -2   8   82.39   16.90
   7  -2   8   92.09   13.30
   7  -2   8   96.49   17.60
   7   2   8  117.29   17.30
  -7   2  -8   80.69   13.30
   7   2   8  112.99   22.40
   7   2   8  110.29   22.60
   8  -2   8  267.17   21.00
   8  -2   8  246.58   22.60
   8  -2   8  289.57   24.70
   8  -2   8  287.57   26.30
   8   2   8  283.37   29.30
   8   2   8  268.57   26.60
   8   2   8  255.87   28.90
   9  -2   8   -0.70    3.50
   9  -2   8   -0.20    3.30
   9  -2   8    4.10    6.60
   9  -2   8    6.30    6.80
   9   2   8    9.10    8.60
   9   2   8   -2.90    2.90
  10  -2   8   15.60    8.10
  10  -2   8   11.50    9.60
  10  -2   8   18.30    7.20
  10   2   8   15.00   12.00
  10   2   8    8.90    8.50
  11  -2   8  104.39   12.70
  11  -2   8   69.29   19.10
  11   2   8  107.09   23.70
  11   2   8  115.79   26.00
  12  -2   8   25.40   14.60
  12   2   8   42.90   16.00
  12   2   8   21.00   13.80
  12  -3  -8   90.69   27.60
  12   3  -8   70.29   21.60
  12   3  -8   78.19   26.40
  11  -3  -8  224.18   26.30
  11  -3  -8  197.08   42.60
  11  -3  -8  251.87   17.80
  11   3  -8  195.28   39.20
  11   3  -8  203.28   29.70
  10  -3  -8   51.09   18.10
  10  -3  -8   58.89   12.20
  10   3  -8   75.89   20.60
  10   3  -8   41.10   18.20
 -10   3   8   60.19    9.70
   9  -3  -8  292.77   34.30
   9  -3  -8  292.47   22.80
   9   3  -8  294.77   32.50
  -9   3   8  259.37   19.70
   9   3  -8  283.57   36.50
   8  -3  -8   52.29   18.00
   8  -3  -8   64.49   13.90
   8   3  -8   61.09   18.20
  -8   3   8   55.99   11.80
   8   3  -8   51.79   18.20
   7  -3  -8  312.27   31.90
  -7  -3   8  272.37   26.90
   7  -3  -8  322.17   24.50
   7   3  -8  327.17   32.00
   7   3  -8  257.77   32.00
  -7   3   8  271.67   28.20
  -7   3   8  341.67   23.00
   6  -3  -8  318.97   31.20
  -6  -3   8  323.87   28.60
   6  -3  -8  376.96   26.50
   6   3  -8  380.76   33.00
  -6   3   8  363.66   30.90
  -6   3   8  362.96   24.70
   6   3  -8  346.77   34.00
  -5  -3   8  413.76   32.80
   5  -3  -8  366.66   31.60
  -5  -3   8  383.66   31.10
   5  -3  -8  453.45   29.00
  -5   3   8  410.76   31.90
  -5   3   8  419.86   27.10
   5   3  -8  363.76   33.00
  -4  -3   8  988.10   51.79
  -4  -3   8 1061.89   51.99
   4  -3  -8 1041.60   53.89
   4  -3  -8 1067.49   48.60
   4   3  -8 1162.68   56.79
  -4   3   8 1025.20   51.99
  -4   3   8 1036.40   47.20
   4   3  -8 1149.39   57.29
   3  -3  -8 1705.23   66.79
  -3  -3   8 1676.03   68.79
   3  -3  -8 1688.13   71.09
  -3  -3   8 1699.73   69.09
   3   3  -8 1804.82   72.99
  -3   3   8 1774.22   66.69
   3   3  -8 1772.92   72.09
  -3   3   8 1769.92   70.99
  -2  -3   8   -5.50    2.70
  -2  -3   8   -4.30    2.90
   2  -3  -8   -4.90    2.30
   2  -3  -8   -1.40    4.20
  -2   3   8   -4.60    2.20
   2   3  -8   -4.10    3.50
  -2   3   8   -3.20    2.90
   2   3  -8    6.30    5.90
   1  -3  -8   97.89   14.50
  -1  -3   8   97.39   13.80
  -1  -3   8  124.39   14.30
   1  -3  -8   95.89   14.50
   1   3  -8   96.89   13.40
  -1   3   8  117.09   15.40
   1   3  -8   94.99   14.60
  -1   3   8   99.19   14.60
   0  -3  -8  185.38   19.60
   0  -3   8  194.98   16.40
   0  -3   8  168.68   17.80
   0   3  -8  194.18   19.70
   0   3  -8  174.98   16.20
   0   3   8  151.88   17.80
   0   3   8  165.48   18.70
   1  -3   8 2194.08   72.39
   1  -3   8 2216.38   78.49
  -1  -3  -8 2277.07   83.89
  -1  -3  -8 2218.08   84.39
   1   3   8 2283.27   83.79
  -1   3  -8 2312.47   73.39
   1   3   8 2205.28   83.79
  -1   3  -8 2199.08   80.09
   2  -3   8 1165.88   49.80
  -2  -3  -8 1113.99   55.49
   2  -3   8 1138.09   42.70
   2   3   8 1210.78   56.89
   2   3   8 1209.48   55.59
  -2   3  -8 1169.48   51.69
  -2   3  -8 1103.79   43.10
   3  -3   8 1409.26   49.00
   3  -3   8 1387.96   56.19
  -3  -3  -8 1377.96   64.69
   3   3   8 1436.56   64.89
  -3   3  -8 1432.16   58.19
   3   3   8 1354.56   64.39
   4  -3   8   15.60    5.90
   4  -3   8   17.00    7.20
  -4  -3  -8   19.30    9.80
   4   3   8   13.30    8.60
  -4   3  -8   18.20    8.20
   4   3   8   14.90    8.60
   5  -3   8  109.99   12.20
  -5  -3  -8  134.89   20.00
   5  -3   8  112.49   11.00
   5  -3   8  136.69   15.30
   5   3   8   78.49   20.70
   5   3   8   92.09   18.90
  -5   3  -8  134.89   15.70
   5   3   8  105.99   21.00
   6  -3   8   -0.70    3.50
   6  -3   8    2.90    3.70
  -6  -3  -8   -4.20    3.80
   6  -3   8    0.50    3.90
   6   3   8    1.10    5.50
   6   3   8   10.00    7.70
  -6   3  -8    5.70    5.50
   6   3   8   -4.50    3.50
   6   3   8   -3.30    3.50
   7  -3   8  447.16   27.90
   7  -3   8  430.36   26.40
   7  -3   8  398.86   27.20
   7   3   8  503.25   36.50
   7   3   8  379.66   36.70
  -7   3  -8  382.06   26.80
   7   3   8  421.66   35.10
   8  -3   8   37.80   10.30
   8  -3   8   31.10    9.60
   8  -3   8   43.10   10.10
   8  -3   8   17.50    8.90
   8   3   8   19.60   10.50
   8   3   8   47.00   16.90
   9  -3   8  277.67   19.60
   9  -3   8  302.67   21.70
   9  -3   8  285.67   24.50
   9  -3   8  288.27   26.50
   9   3   8  363.36   35.70
   9   3   8  274.07   29.30
  10  -3   8   76.59   18.10
  10  -3   8  102.59   20.30
  10  -3   8   64.39    9.80
  10  -3   8  102.09   10.90
  10   3   8  116.99   28.70
  10   3   8  114.39   23.70
  11  -3   8   17.40    9.90
  11   3   8   39.80   18.50
  11   3   8   24.40   12.80
  12  -3   8   -0.80    6.60
  12   3   8   -1.90    6.50
  12   3   8   -0.60   10.00
  12  -4  -8   23.10   14.40
  12   4  -8    3.30   12.70
  12   4  -8   36.50   19.10
  11  -4  -8   -4.30    5.50
  11   4  -8  -11.20    5.50
  11   4  -8    3.30    9.00
  10  -4  -8    6.10    4.00
  10  -4  -8   -1.40    6.40
  10   4  -8   -5.90    6.40
  10   4  -8    6.20    8.70
   9  -4  -8   75.09   21.70
   9  -4  -8   84.69   11.20
  -9   4   8   72.19    9.40
   9   4  -8   80.99   34.80
   9   4  -8   77.69   24.80
   8  -4  -8   23.00    8.30
   8  -4  -8   35.20   15.90
   8   4  -8    9.50   11.10
   8   4  -8   39.20   17.30
  -8   4   8   16.90    6.30
   7  -4  -8   43.70   15.70
   7  -4  -8   74.89   14.60
  -7   4   8   57.99   16.30
   7   4  -8   48.30   16.50
   7   4  -8   72.49   21.20
  -7   4   8   61.69   11.40
   6  -4  -8   -4.20    4.30
   6  -4  -8    3.50    4.80
  -6  -4   8   -1.20    3.60
  -6   4   8   20.20    8.00
   6   4  -8    0.40    7.10
  -6   4   8   11.80    8.90
   6   4  -8    1.50    6.20
   5  -4  -8    1.80    4.50
  -5  -4   8    4.80    4.90
  -5  -4   8   15.10    9.60
   5  -4  -8   14.60    9.20
  -5   4   8    0.70    5.60
   5   4  -8   14.60    8.40
  -5   4   8    9.60    6.20
   5   4  -8    4.60    7.20
   4  -4  -8   98.99   19.60
   4  -4  -8   73.09   14.50
  -4   4   8   56.39   14.40
  -4   4   8   64.19   13.70
   4   4  -8   33.00   13.20
   4   4  -8   62.09   22.90
   3  -4  -8    6.40    5.10
  -3  -4   8    7.70    6.00
   3  -4  -8    0.40    5.50
  -3  -4   8   -3.30    3.30
   3   4  -8    1.60    4.70
   3   4  -8    7.00    6.60
  -3   4   8    1.50    4.00
  -3   4   8   -1.60    3.80
   2  -4  -8   81.89   16.40
  -2  -4   8   66.99   13.80
  -2  -4   8  110.89   14.50
   2  -4  -8  111.99   16.10
   2   4  -8  114.79   15.60
  -2   4   8  112.79   15.90
   2   4  -8   80.09   17.30
  -2   4   8  101.89   14.60
   1  -4  -8 1285.87   58.79
  -1  -4   8 1370.76   54.29
   1  -4  -8 1399.76   61.69
  -1  -4   8 1336.37   57.99
   1   4  -8 1392.56   56.39
  -1   4   8 1461.95   61.19
   1   4  -8 1340.97   59.99
  -1   4   8 1289.47   59.69
   0  -4   8   10.30    6.00
   0  -4  -8    8.30    6.50
   0  -4   8   12.90    6.50
   0  -4  -8    4.30    6.50
   0   4  -8    4.20    5.60
   0   4  -8    4.60    4.80
   0   4   8    7.30    6.70
   0   4   8    4.10    5.10
   1  -4   8  550.14   26.50
   1  -4   8  475.25   30.50
  -1  -4  -8  517.65   36.00
  -1  -4  -8  577.54   36.90
  -1   4  -8  552.84   27.60
  -1   4  -8  483.05   32.20
   1   4   8  576.24   37.30
   2  -4   8   45.40    7.10
  -2  -4  -8   32.90   11.30
   2  -4   8   33.40   10.20
  -2   4  -8   42.10   11.90
   2   4   8   43.00   12.10
   2   4   8   45.70   14.50
  -2   4  -8   33.20    7.90
   3  -4   8  152.48   16.40
   3  -4   8  171.68   12.20
  -3  -4  -8  180.18   22.50
   3   4   8  189.18   22.10
   3   4   8  161.08   20.80
  -3   4  -8  205.48   19.40
   4  -4   8  161.18   11.70
   4  -4   8  149.49   10.10
   4  -4   8  147.59   15.50
  -4  -4  -8  164.28   21.90
  -4   4  -8  151.98   16.80
   4   4   8  147.19   20.80
   4   4   8  152.78   20.80
   5  -4   8   94.19    9.80
   5  -4   8   73.69   11.30
   5  -4   8   88.39    8.60
  -5  -4  -8  107.19   23.00
   5   4   8   98.79   21.50
  -5   4  -8  122.39   14.80
   5   4   8  109.79   22.70
   5   4   8  100.49   16.60
   6  -4   8  131.29   12.40
   6  -4   8  127.79   14.20
   6  -4   8  132.69   11.50
   6   4   8  168.88   35.00
   6   4   8  132.29   19.40
  -6   4  -8  130.99   15.30
   6   4   8  130.89   19.60
   7  -4   8  648.04   32.70
   7  -4   8  663.73   33.00
   7  -4   8  714.43   32.00
   7   4   8  728.33   48.50
   7   4   8  806.92   49.10
  -7   4  -8  692.73   35.10
   8  -4   8   18.70    7.40
   8  -4   8   26.20    8.80
   8  -4   8   27.50    8.30
   8  -4   8   14.90    5.60
   8   4   8   25.00   12.30
   8   4   8   23.50   12.20
   9  -4   8   61.39    8.50
   9  -4   8   59.99   13.90
   9  -4   8   73.59    8.20
   9  -4   8   81.19   12.70
   9   4   8   66.29   20.00
   9   4   8  118.69   24.50
  10  -4   8    0.00    4.90
  10  -4   8   10.00    6.40
  10   4   8   10.50    9.90
  10   4   8   -2.80    3.70
  11   4   8   78.89   24.70
  11   4   8  100.39   24.50
  12  -4   8   40.90   13.20
  12   4   8   45.50   17.90
  12   4   8    8.70    9.70
  12  -5  -8  145.59   33.90
  12   5  -8  237.18   59.59
  12   5  -8  236.88   35.20
  11  -5  -8   90.49   25.10
  11   5  -8   27.10   17.90
  11   5  -8  104.99   27.80
  10  -5  -8  108.79   26.40
  10   5  -8   85.09   24.10
  10   5  -8   86.19   29.80
   9  -5  -8    8.50    9.50
   9  -5  -8    8.50    4.20
  -9   5   8   18.40    4.60
   9   5  -8   16.00   13.40
   9   5  -8   -3.70    7.40
   8  -5  -8    7.80    4.60
   8  -5  -8    6.00    8.70
   8   5  -8    2.70    8.40
   8   5  -8    0.50    9.90
   7  -5  -8  247.68   28.30
   7  -5  -8  163.58   16.20
  -7   5   8  196.38   23.90
   7   5  -8  188.08   28.20
   7   5  -8  151.38   24.00
  -7   5   8  200.38   16.40
   6  -5  -8  358.46   32.60
   6  -5  -8  364.16   25.10
   6   5  -8  371.26   34.80
   6   5  -8  328.77   34.40
  -6   5   8  383.06   32.00
  -6   5   8  350.56   23.80
  -5  -5   8  320.47   29.60
   5  -5  -8  354.36   38.90
   5  -5  -8  345.47   25.20
  -5   5   8  313.07   23.50
   5   5  -8  358.16   33.50
  -5   5   8  335.77   30.00
   5   5  -8  314.77   31.40
  -4  -5   8 1963.80   80.59
  -4  -5   8 1931.81   79.19
   4  -5  -8 1808.22   71.29
   4  -5  -8 1955.20   80.19
   4   5  -8 1890.81   82.29
  -4   5   8 1825.12   70.79
  -4   5   8 1899.11   78.79
   4   5  -8 1990.20   83.19
   3  -5  -8  523.05   33.20
  -3  -5   8  573.04   45.20
  -3  -5   8  558.84   35.40
   3  -5  -8  514.05   36.00
   3   5  -8  468.95   34.60
   3   5  -8  524.25   37.50
  -3   5   8  469.85   31.40
  -3   5   8  495.05   34.90
   2  -5  -8   64.19   14.70
  -2  -5   8   80.99   13.10
   2  -5  -8   97.29   20.90
  -2  -5   8   87.69   18.10
  -2   5   8   67.19   15.30
   2   5  -8   94.19   17.80
   2   5  -8   92.79   18.50
  -2   5   8   86.09   18.70
   1  -5  -8    0.10    3.90
  -1  -5   8   -2.30    3.00
   1  -5  -8    1.00    5.00
  -1  -5   8   -4.40    2.30
  -1   5   8    8.30    6.80
   1   5  -8    2.50    5.40
   1   5  -8    5.30    5.90
  -1   5   8   -1.70    2.60
   0  -5   8  445.66   25.20
   0  -5  -8  476.95   34.00
   0  -5  -8  417.46   32.10
   0  -5   8  357.36   27.60
   0   5   8  394.96   30.90
   0   5  -8  491.35   33.00
   0   5  -8  434.16   26.00
   0   5   8  376.36   30.60
   1  -5   8    2.10    3.30
  -1  -5  -8    1.60    5.30
  -1  -5  -8    7.20    6.40
   1  -5   8   15.30    7.80
  -1   5  -8    5.40    4.70
   1   5   8   13.20    8.20
   1   5   8    1.40    3.80
  -1   5  -8   13.90    8.40
  -2  -5  -8  655.93   43.80
   2  -5   8  689.53   37.00
   2  -5   8  659.93   26.60
  -2   5  -8  664.03   38.00
   2   5   8  681.63   43.20
   2   5   8  725.63   45.30
  -2   5  -8  647.44   27.70
   3  -5   8  735.13   25.40
  -3  -5  -8  686.63   46.60
   3  -5   8  760.32   38.20
  -3   5  -8  805.92   41.30
   3   5   8  703.63   46.50
   3   5   8  806.42   50.29
   4  -5   8  602.44   19.00
  -4  -5  -8  672.23   46.90
   4  -5   8  634.44   19.60
   4  -5   8  676.83   34.00
   4   5   8  666.33   46.70
  -4   5  -8  610.14   35.00
   4   5   8  592.24   43.80
   5  -5   8    5.90    2.00
   5  -5   8    5.70    2.30
   5  -5   8   -0.60    3.40
   5   5   8    1.70    5.70
  -5   5  -8    2.20    3.80
   5   5   8    9.10    7.90
   6  -5   8  323.67   14.70
   6  -5   8  307.67   20.80
   6  -5   8  330.47   14.30
   6   5   8  358.56   32.80
  -6   5  -8  334.57   23.30
   6   5   8  340.67   31.80
   7  -5   8    8.00    4.80
   7  -5   8   -3.60    2.40
   7  -5   8    2.10    3.00
   7   5   8   -2.40    5.10
   7   5   8   -0.20    3.90
  -7   5  -8    1.70    3.50
   8  -5   8  104.99    9.20
   8  -5   8   97.89   10.40
   8  -5   8  130.59   10.60
   8  -5   8  120.79   11.10
   8   5   8  142.99   23.50
   8   5   8  159.58   23.80
   9  -5   8   62.99   11.30
   9  -5   8   85.29   12.00
   9   5   8   55.79   20.80
  10  -5   8   82.99   12.00
  10  -5   8   64.29   10.60
  10   5   8   52.89   18.30
  10   5   8   71.09   23.50
  11  -5   8    8.90    5.80
  11   5   8   10.50   10.40
  11   5   8   -3.20    5.20
  12  -6  -8   20.80   12.30
  12   6  -8    7.60   12.50
  12   6  -8    7.20   12.10
  11  -6  -8   44.20   19.10
  11   6  -8    2.00    9.60
  11   6  -8   41.80   19.70
  10  -6  -8   -7.10    4.70
  10   6  -8   -3.70    5.70
  10   6  -8   -9.70    6.60
   9  -6  -8  189.58   27.10
   9   6  -8  212.58   31.00
   9   6  -8  196.18   42.50
   8  -6  -8   36.20    7.40
   8  -6  -8   55.09   17.90
   8   6  -8   43.80   18.70
   8   6  -8   23.90   13.90
  -8   6   8   37.50    7.10
   7  -6  -8    4.00    6.90
   7  -6  -8   10.20    6.30
  -7   6   8   -4.50    3.90
  -7   6   8    2.60    3.80
   7   6  -8   10.80   11.50
   7   6  -8    0.30    7.40
   6  -6  -8   12.10    9.60
   6  -6  -8   -0.10    4.30
   6   6  -8   12.30    8.10
   6   6  -8   -5.90    5.00
  -6   6   8    7.00    5.50
  -6   6   8    1.10    6.10
   5  -6  -8   19.60    8.90
   5  -6  -8   25.20   11.20
   5   6  -8   26.70   11.40
  -5   6   8   15.80    7.80
  -5   6   8   31.10   14.70
   5   6  -8   23.00   12.20
   4  -6  -8    0.50    3.80
  -4  -6   8    8.70    6.80
   4  -6  -8   -3.30    3.70
  -4  -6   8   -2.50    3.90
  -4   6   8    5.70    5.40
   4   6  -8   -4.70    3.30
  -4   6   8    1.10    5.20
   4   6  -8   17.80   10.80
   3  -6  -8  242.88   23.10
  -3  -6   8  277.07   26.70
  -3  -6   8  295.27   25.80
   3  -6  -8  270.07   26.50
   3   6  -8  337.77   31.10
  -3   6   8  289.07   26.90
   3   6  -8  246.38   36.00
  -3   6   8  272.17   24.40
   2  -6  -8   27.70   10.80
  -2  -6   8   15.30    8.40
  -2  -6   8   19.40   10.50
   2  -6  -8   15.60    8.00
   2   6  -8   23.20    9.80
   2   6  -8   12.50    7.50
  -2   6   8   10.10    6.50
  -2   6   8   19.60    9.50
  -1  -6   8  441.26   27.70
   1  -6  -8  488.65   34.70
   1  -6  -8  455.85   34.30
  -1  -6   8  420.76   31.50
  -1   6   8  415.86   32.20
   1   6  -8  387.96   27.70
   1   6  -8  465.85   34.30
  -1   6   8  458.35   34.20
   0  -6   8   88.19   11.40
   0  -6   8   94.69   18.20
   0  -6  -8   90.09   18.30
   0  -6  -8   64.29   15.80
   0   6   8  115.69   23.50
   0   6   8  111.39   22.40
   0   6  -8   99.59   16.40
   0   6  -8  102.59   12.80
   1  -6   8   -2.20    3.20
   1  -6   8    0.80    3.20
  -1  -6  -8   12.40   10.10
   1   6   8    8.00    6.30
  -1   6  -8    1.70    4.80
   1   6   8    0.10    5.40
  -1   6  -8    7.00    4.50
   2  -6   8    8.50    3.50
  -2  -6  -8   15.50    8.10
   2  -6   8   11.50    7.10
  -2   6  -8   12.10    7.70
   2   6   8   19.30   10.50
   2   6   8   26.80   11.40
  -2   6  -8    8.30    4.10
   3  -6   8    5.30    5.40
  -3  -6  -8   -0.90    5.50
   3   6   8    6.40    7.10
   3   6   8    5.90    6.80
  -3   6  -8    5.20    5.60
   4  -6   8   33.00   10.00
  -4  -6  -8   25.70   12.70
  -4   6  -8   40.30   11.40
   4   6   8   29.60   11.00
   5  -6   8  298.97   21.70
  -5   6  -8  360.26   25.60
   5   6   8  371.26   33.20
   5   6   8  419.76   35.60
   6  -6   8   55.29    9.20
   6   6   8   95.69   23.00
  -6   6  -8   63.39   12.40
   6   6   8   68.49   20.10
   7  -6   8  506.45   23.70
   7   6   8  513.35   42.70
   7   6   8  515.25   43.40
  -7   6  -8  547.55   26.80
   8   6   8  315.87   35.90
   8   6   8  435.76   39.80
   9   6   8   46.40   17.90
   9   6   8  117.09   29.80
  10   6   8   14.60   11.10
  10   6   8    6.50    9.30
  11   6   8   48.60   19.50
  11   6   8   27.00   17.30
  11  -7  -8   39.70   15.80
  11   7  -8   45.60   21.70
  11   7  -8   67.49   28.40
  10  -7  -8   99.49   25.00
  10   7  -8   97.99   28.40
  10   7  -8  108.99   28.50
   9  -7  -8    1.30    6.40
   9   7  -8   -7.10    4.50
   9   7  -8   -9.00    5.00
   8  -7  -8    3.60    7.90
   8   7  -8    7.50    9.50
  -8   7   8   11.60    3.20
   8   7  -8   29.10   16.30
   7  -7  -8    7.70    4.90
   7  -7  -8   12.50    9.60
   7   7  -8    0.50    9.10
   7   7  -8    7.90   10.10
  -7   7   8   -2.90    4.10
  -7   7   8    2.10    5.40
   6  -7  -8  310.07   23.10
   6  -7  -8  331.47   31.60
   6   7  -8  282.37   33.80
  -6   7   8  313.67   30.00
  -6   7   8  298.97   22.20
   6   7  -8  362.06   37.50
   5  -7  -8   16.70    7.90
   5  -7  -8    5.10    5.60
   5   7  -8    8.10    9.00
   5   7  -8   -0.40    7.20
  -5   7   8   14.80    9.40
  -5   7   8    5.10    5.30
   4  -7  -8  441.16   31.00
  -4  -7   8  412.56   35.00
   4   7  -8  448.66   37.00
   4   7  -8  403.06   36.90
  -4   7   8  406.16   29.80
   3  -7  -8    9.40    8.00
   3  -7  -8   40.80   13.40
  -3  -7   8   21.20   10.10
   3   7  -8    4.40    7.80
  -3   7   8   46.30   14.00
   3   7  -8   51.59   15.40
  -3   7   8   30.20   10.80
  -2  -7   8   69.69   17.60
   2  -7  -8  108.49   21.70
   2  -7  -8   81.99   18.90
  -2  -7   8  122.99   15.90
  -2   7   8   94.49   20.40
   2   7  -8  144.79   20.90
   2   7  -8   74.49   16.40
  -2   7   8  114.09   17.20
   1  -7  -8  191.98   39.00
   1  -7  -8  155.88   20.60
  -1  -7   8  152.78   16.40
  -1  -7   8  166.68   20.40
   1   7  -8  144.19   20.20
  -1   7   8  146.39   20.10
   1   7  -8  153.68   17.90
  -1   7   8  136.99   19.90
   0  -7   8  622.54   39.50
   0  -7   8  680.83   32.90
   0  -7  -8  596.64   44.00
   0  -7  -8  650.13   42.90
   0   7   8  755.32   62.49
   0   7  -8  688.73   34.80
   0   7   8  641.24   43.40
   0   7  -8  610.04   51.99
  -1  -7  -8   49.50   15.80
   1  -7   8   63.69   13.30
   1  -7   8   70.39   15.10
  -1   7  -8   55.79    9.00
   1   7   8   41.20   14.80
  -1   7  -8   57.69   14.30
   1   7   8   71.89   17.60
   2  -7   8  740.73   26.50
  -2  -7  -8  740.63   50.69
   2  -7   8  763.82   41.00
  -2   7  -8  668.93   41.20
   2   7   8  715.43   48.20
   2   7   8  763.92   50.99
  -2   7  -8  738.63   28.70
   3  -7   8    9.80    6.40
  -3   7  -8    6.30    6.50
   3   7   8   11.10    7.80
   4  -7   8   75.99   14.70
  -4   7  -8   78.99   16.50
   4   7   8   36.70   11.20
   4   7   8   65.79   17.10
   5  -7   8  116.79   13.30
  -5   7  -8   73.19   12.10
   5   7   8   99.29   22.40
   5   7   8  108.39   21.70
   6  -7   8   66.89    9.40
   6   7   8   72.59   19.10
   6   7   8   92.69   22.10
  -6   7  -8   53.89   11.60
   7  -7   8    4.60    3.50
   7   7   8   15.20    9.10
  -7   7  -8    6.90    4.50
   7   7   8    5.80    8.60
   8   7   8  377.16   40.00
   8   7   8  366.26   39.00
   9   7   8   20.60   12.90
   9   7   8   23.90   12.40
  10   7   8   97.59   27.80
  10   7   8   30.40   15.90
  11   7   8   -1.70    6.20
  11   7   8    3.90   10.10
  11  -8  -8   47.10   18.30
  11   8  -8   62.79   23.90
  11   8  -8   91.99   31.60
  10  -8  -8    7.60    8.30
  10   8  -8    1.20    9.10
  10   8  -8   16.80   16.60
   9  -8  -8   21.20   11.20
   9   8  -8   47.20   18.90
   9   8  -8   27.60   18.10
   8  -8  -8   90.89   22.80
   8   8  -8   61.29   23.70
   8   8  -8   70.29   23.20
   7  -8  -8   88.39   20.60
   7   8  -8  115.89   29.90
  -7   8   8  110.79   11.00
   7   8  -8  136.19   32.50
   6  -8  -8  172.88   23.20
   6   8  -8  164.18   26.80
  -6   8   8  142.39   15.90
   6   8  -8  174.58   28.30
  -6   8   8  179.48   22.70
   5  -8  -8   26.60    9.80
   5  -8  -8   52.89   17.30
  -5   8   8   15.40    9.50
   5   8  -8    7.70    8.00
   5   8  -8   31.30   14.90
  -5   8   8   30.70   10.30
   4  -8  -8    1.10    5.00
   4  -8  -8   -4.90    2.80
   4   8  -8   -2.20    5.10
  -4   8   8    9.30    8.00
  -4   8   8    5.70    5.90
   4   8  -8    3.00    7.20
   3  -8  -8    9.10    7.60
  -3  -8   8    5.70    6.50
   3  -8  -8   -2.60    4.90
  -3   8   8   -3.30    3.10
   3   8  -8    8.20    7.70
   3   8  -8    2.40    7.90
  -3   8   8    6.10    7.10
   2  -8  -8    3.40    7.00
   2  -8  -8   11.00    9.30
  -2  -8   8   19.90    9.70
  -2   8   8   18.80   10.60
   2   8  -8   12.80   10.70
  -2   8   8    7.50    6.20
   2   8  -8   20.10   10.20
  -1  -8   8  357.26   30.70
   1  -8  -8  277.17   28.60
   1  -8  -8  314.07   29.60
  -1  -8   8  270.47   22.30
   1   8  -8  269.47   28.40
  -1   8   8  202.68   24.60
   1   8  -8  251.57   23.20
  -1   8   8  250.37   27.30
   0  -8  -8   15.10   10.80
   0  -8   8   12.70    6.20
   0  -8   8   11.30    7.40
   0   8   8   -2.30    5.70
   0   8   8    1.50    4.40
   0   8  -8   16.60   10.00
   0   8  -8    9.90    6.60
  -1  -8  -8    3.10    6.10
   1  -8   8    5.70    3.70
   1   8   8    5.90    5.10
   1   8   8   21.80   11.20
   1   8   8   -2.80    3.10
  -1   8  -8    8.00    7.90
  -1   8  -8    5.00    4.50
   2  -8   8   10.70    7.60
   2   8   8   -0.60    4.80
  -2   8  -8   -0.90    4.80
  -2   8  -8   -0.20    2.50
   3  -8   8   23.10    9.30
   3   8   8    1.10    4.50
  -3   8  -8   30.20   11.80
   4  -8   8   49.99   12.50
   4   8   8   31.50   14.20
   4   8   8   23.10   12.70
  -4   8  -8   27.70   10.60
   5  -8   8   80.39   11.70
   5   8   8   65.79   20.10
   5   8   8   84.39   22.90
  -5   8  -8   56.99   13.90
   6  -8   8   57.59   10.90
  -6   8  -8   48.80   11.90
   6   8   8   39.50   16.00
   6   8   8   49.90   17.30
   7  -8   8  102.09    8.10
   7   8   8  146.59   32.00
   7   8   8  121.49   28.50
  -7   8  -8  114.29    9.90
   8   8   8   32.70   16.40
   8   8   8   17.80   13.70
   9   8   8   39.00   16.70
   9   8   8   46.40   18.50
  10   8   8    1.40    9.70
  10   8   8    4.50    9.80
  11   8   8   -2.60    5.80
  11   8   8    7.60   11.30
  10  -9  -8  101.09   25.00
  10   9  -8   57.89   23.50
  10   9  -8   82.59   29.20
   9  -9  -8    7.50    7.60
   9   9  -8   37.30   18.80
   9   9  -8    5.10   10.10
   8  -9  -8   -2.20    4.70
   8   9  -8   18.80   14.70
   8   9  -8   11.60   12.00
   7  -9  -8   19.50   11.20
   7   9  -8   18.90   15.80
  -7   9   8   13.10    5.20
   7   9  -8   -2.00    7.10
   6  -9  -8  239.48   27.30
  -6   9   8  212.18   25.70
   6   9  -8  192.28   30.70
  -6   9   8  232.78   20.70
  -6   9   8  233.58   18.70
   6   9  -8  203.98   30.50
   5  -9  -8  417.86   36.10
  -5   9   8  428.36   31.90
  -5   9   8  419.46   28.20
   5   9  -8  532.95   44.80
   5   9  -8  497.55   46.10
  -5   9   8  503.75   38.90
   4  -9  -8  521.85   39.30
   4   9  -8  368.56   38.90
  -4   9   8  426.66   33.10
  -4   9   8  430.96   29.70
  -4   9   8  423.56   35.80
   4   9  -8  397.56   37.30
   3  -9  -8   48.40   15.20
  -3  -9   8   73.79   21.70
  -3   9   8   59.99   16.30
  -3   9   8   61.79   17.80
   3   9  -8   38.70   14.70
   3   9  -8   41.40   15.40
  -3   9   8   55.49   18.20
  -2  -9   8  413.86   30.60
   2  -9  -8  324.77   31.40
  -2   9   8  364.16   33.10
  -2   9   8  365.86   29.80
  -2   9   8  330.27   32.10
   2   9  -8  384.56   36.30
   2   9  -8  341.67   30.20
  -1  -9   8    5.20    5.90
  -1   9   8   20.10   10.60
   1   9  -8   21.50    9.90
  -1   9   8   13.10    7.80
   1   9  -8   35.00   14.50
  -1   9   8    0.80    5.30
   0  -9   8  225.48   25.00
   0  -9   8  273.77   20.50
   0   9  -8  240.78   21.60
   0   9  -8  182.48   24.70
   0   9   8  210.78   24.00
   1  -9   8  249.48   25.10
   1   9   8  239.68   27.10
  -1   9  -8  267.67   28.50
  -1   9  -8  240.98   19.10
   2  -9   8  228.28   23.00
  -2   9  -8  221.38   24.70
   2   9   8  200.18   25.60
  -2   9  -8  206.08   13.50
   3  -9   8  202.48   20.80
   3   9   8  181.68   25.40
  -3   9  -8  168.38   21.40
   4  -9   8    3.50    4.90
   4   9   8   -2.00    4.20
   4   9   8    4.10    7.30
  -4   9  -8   -6.80    2.90
   5  -9   8    7.50    5.50
  -5   9  -8    8.50    6.20
   5   9   8    5.40    7.20
   5   9   8   10.90    9.60
   6  -9   8   -3.20    2.20
  -6   9  -8    7.40    6.60
   6   9   8   32.20   28.40
   6   9   8    2.90    7.70
  -7   9  -8    6.70    4.00
   7   9   8   -0.90    5.60
   7   9   8    0.60    5.10
   8   9   8   65.89   23.10
   8   9   8  132.39   32.80
   9   9   8   53.79   19.90
   9   9   8   94.49   27.80
  10   9   8   85.79   26.50
  10   9   8   69.19   23.30
  10 -10  -8   21.30   12.50
  10  10  -8   49.99   22.10
  10  10  -8   85.09   29.60
   9 -10  -8   29.80   13.80
   9  10  -8   13.10   11.50
   9  10  -8   54.09   23.60
   8 -10  -8  169.78   24.10
   8  10  -8  196.78   42.90
   8  10  -8  160.68   39.30
   7 -10  -8    0.90    5.60
   7  10  -8   10.50   13.70
  -7  10   8    2.30    5.20
   7  10  -8    3.50    9.30
  -7  10   8    4.60    4.20
   6 -10  -8   -5.20    3.80
  -6  10   8   -0.90    3.40
   6  10  -8   -0.60    6.00
   6  10  -8  -10.00    4.50
  -6  10   8    1.20    4.00
   5 -10  -8    5.00    6.30
   5  10  -8   23.00   13.10
  -5  10   8    5.70    5.00
  -5  10   8    1.00    6.00
  -5  10   8   12.50    7.50
   5  10  -8   14.10   11.60
   4 -10  -8   51.69   16.10
  -4  10   8   44.80   12.90
   4  10  -8   68.79   24.90
   4  10  -8   76.19   22.80
  -4  10   8   52.69   16.00
   3 -10  -8  116.99   25.10
   3  10  -8  157.38   32.10
  -3  10   8  128.59   18.20
  -3  10   8  103.69   21.90
   3  10  -8  136.49   25.70
  -3  10   8  137.39   22.00
  -2 -10   8  665.93   40.90
   2  10  -8  661.43   50.09
  -2  10   8  583.34   40.00
   2  10  -8  591.14   41.60
  -2  10   8  586.54   44.70
  -1 -10   8   33.60   10.60
  -1  10   8   33.00   12.90
   1  10  -8   33.80   13.30
   1  10  -8   45.40   16.70
   0  10  -8  122.89   25.90
   0  10   8   84.19   18.40
   0  10  -8  141.79   17.40
   1  10   8   24.30   11.30
  -1  10  -8   30.90    9.90
  -1  10  -8   20.40   12.40
   2 -10   8   60.99   16.30
  -2  10  -8   68.79   16.90
  -2  10  -8   48.80    7.20
   2  10   8   42.20   15.60
   3 -10   8    3.80    5.50
   3  10   8    2.80    7.30
  -3  10  -8   13.90    9.70
   3  10   8    3.80    7.90
   4 -10   8  147.09   17.40
   4  10   8  113.39   25.20
   4  10   8  157.18   24.90
  -4  10  -8  111.79   17.60
   5 -10   8   71.89   14.60
   5  10   8  112.29   37.70
  -5  10  -8   90.39   18.30
   6 -10   8  200.48   16.60
  -6  10  -8  189.38   18.40
   6  10   8  229.88   31.70
   6  10   8  208.28   31.20
   7  10   8   29.50   15.70
   7  10   8   65.69   23.30
   8  10   8   30.00   17.50
   8  10   8   39.40   19.40
   9  10   8   -2.10    6.60
   9  10   8    8.40   10.50
  10  10   8    3.30   12.20
  10  10   8    5.70    8.80
   9 -11  -8   62.19   18.60
   9  11  -8   10.80   13.80
   9  11  -8   42.60   20.20
   8 -11  -8    9.80    9.60
   8  11  -8   31.20   18.20
   8  11  -8    5.30   13.50
   7 -11  -8   34.90   14.60
  -7  11   8   34.30    8.10
   7  11  -8   36.60   19.20
  -7  11   8   19.20    8.30
   7  11  -8   39.10   18.70
   6 -11  -8   85.69   20.80
   6  11  -8   94.89   28.00
  -6  11   8   61.39   15.10
   6  11  -8   79.39   28.00
  -6  11   8   78.99   12.50
   5 -11  -8   83.39   19.80
   5  11  -8   67.89   22.40
   5  11  -8   67.79   20.50
  -5  11   8  101.99   21.50
  -4  11   8  117.79   19.80
  -4  11   8  144.79   19.00
   4  11  -8  152.78   25.30
   4  11  -8  179.68   49.70
   3  11  -8   61.09   17.10
  -3  11   8   95.29   20.80
   3  11  -8   61.49   20.40
   2  11  -8   10.50    9.30
  -2  11   8   11.60    8.70
   2  11  -8   -3.80    4.50
   1  11  -8  107.79   24.70
   1  11  -8  140.59   19.70
  -1  11   8  115.89   24.40
   0  11   8  160.68   23.50
   0  11  -8  170.98   19.60
   0  11  -8  141.49   29.30
  -1  11  -8  127.19   14.70
  -1  11  -8  110.89   24.50
   1  11   8   85.89   20.70
  -2  11  -8  296.87   16.90
  -2  11  -8  325.87   17.80
   2  11   8  319.67   34.90
   2  11   8  291.07   32.10
  -2  11  -8  338.37   32.90
   3 -11   8  102.89   20.40
  -3  11  -8  121.79   19.60
   3  11   8  102.89   27.30
   3  11   8  107.79   26.10
   4 -11   8    5.80    6.20
   4  11   8   25.50   23.90
  -4  11  -8    1.50    6.60
   4  11   8    0.60    7.80
   5 -11   8    7.60    5.80
   5  11   8    1.90    6.80
   5  11   8   -0.50    5.90
  -5  11  -8    4.70    6.90
   6 -11   8   29.70    8.50
   6  11   8   33.20   15.00
   6  11   8   22.40   13.10
  -6  11  -8   43.20   11.50
   7  11   8   -1.40    6.00
   7  11   8    2.00    8.80
   8  11   8   49.60   20.60
   8  11   8   95.89   29.20
   9  11   8   36.60   20.00
   9  11   8   33.50   17.10
   8 -12  -8  161.48   23.20
   8  12  -8  177.98   42.90
   8  12  -8  202.98   46.50
   7 -12  -8   19.80   11.60
   7  12  -8   18.90   15.40
  -7  12   8    2.20    4.10
   7  12  -8    6.40   12.50
  -6  12   8   21.80    9.10
   6  12  -8   45.50   18.90
   6  12  -8   60.19   26.90
  -6  12   8   10.50    8.20
   5  12  -8   11.20   13.50
  -5  12   8   14.40    7.70
   5  12  -8   -1.80    8.90
  -5  12   8    3.40    7.00
  -4  12   8   49.70   15.30
   4  12  -8   66.29   21.30
   4  12  -8   45.20   19.10
  -3  12   8   25.40   11.50
   3  12  -8   22.40   15.70
   3  12  -8   18.60   12.00
   2  12  -8  384.46   34.90
   2  12  -8  365.46   40.60
  -2  12   8  392.16   34.50
   1  12  -8   77.89   21.80
  -1  12   8  129.69   21.20
   1  12  -8  116.79   19.10
   0  12   8  298.37   32.50
   0  12  -8  267.27   32.60
   0  12  -8  239.48   23.90
   1  12   8   10.50    8.40
  -1  12  -8    2.50    7.80
  -1  12  -8    2.30    4.60
   2  12   8   79.39   21.40
  -2  12  -8  123.09   10.50
  -2  12  -8   94.29   22.10
  -2  12  -8   88.09    9.10
   2  12   8  110.59   25.70
   3  12   8   -0.90    4.70
   3  12   8    6.80   13.80
  -3  12  -8   -0.90    6.40
   4 -12   8   42.90   14.00
   4  12   8   65.49   20.60
   4  12   8   57.49   21.40
  -4  12  -8   75.69   18.70
  -5  12  -8    2.20    5.40
   5  12   8   24.90   15.20
   5  12   8    7.50    9.20
   6  12   8  178.38   39.80
   6  12   8  222.78   33.80
  -6  12  -8  209.28   20.50
   7  12   8    7.00   11.70
   7  12   8    9.40   11.60
   8  12   8   26.90   24.70
   8  12   8   32.70   17.60
   8  13  -8    2.50   12.60
   8  13  -8    9.00   17.40
   7  13  -8   38.60   23.90
   7  13  -8   13.90   13.60
   6  13  -8   10.30   10.30
   6  13  -8  -11.10    6.30
  -5  13   8  280.27   26.50
   5  13  -8  295.57   38.40
   5  13  -8  269.07   40.10
   4  13  -8   12.00   11.30
   4  13  -8   23.90   14.80
  -4  13   8   14.80    9.90
   3  13  -8   34.20   15.00
  -3  13   8   37.60   14.10
   3  13  -8   21.90   15.10
  -2  13   8   -1.10    4.10
   2  13  -8    2.20    8.20
   2  13  -8   -1.30    7.80
   1  13  -8   14.30   11.10
  -1  13   8   14.90   11.10
   1  13  -8   33.00   23.90
   0  13  -8   57.09   15.70
   0  13   8   50.49   16.20
   0  13  -8   66.59   22.80
  -1  13  -8  274.47   22.40
  -1  13  -8  265.17   22.50
   1  13   8  262.97   33.70
   1  13   8  315.07   34.10
  -1  13  -8  288.77   34.20
   2  13   8    5.00    8.00
   2  13   8    4.30    7.60
  -2  13  -8   22.80   13.80
  -2  13  -8    5.80    3.30
  -2  13  -8    6.60    3.50
  -3  13  -8  216.18   27.60
   3  13   8  171.68   35.00
   3  13   8  164.28   26.80
   4  13   8    0.10    7.20
   4  13   8   -7.40    5.60
  -4  13  -8    7.90    9.20
   5  13   8    2.50    7.40
  -5  13  -8    4.90    5.70
   5  13   8    0.40    7.40
   6  13   8   25.60   18.30
   6  13   8   -2.50    6.40
  -6  13  -8    1.40    5.90
   7  13   8   46.20   27.20
   7  13   8   13.80   22.80
   7  14  -8   24.70   18.60
   7  14  -8   73.69   30.00
  -6  14   8    8.20    7.20
   6  14  -8    0.50   11.80
   6  14  -8   26.70   20.00
   5  14  -8    5.80   11.20
   5  14  -8    6.80   11.50
  -5  14   8    3.30    7.20
  -4  14   8    0.80    4.30
   4  14  -8   -2.90    6.30
   4  14  -8    5.40   12.10
  -3  14   8   12.90    9.80
   3  14  -8   -1.70    6.80
   3  14  -8   21.90   14.70
   2  14  -8   22.60   16.60
   2  14  -8   29.00   13.90
  -2  14   8   28.90   14.30
   1  14  -8   12.00   10.30
  -1  14   8   -4.30    3.90
   1  14  -8    6.70   11.60
   0  14   8   11.50   16.80
   0  14   8    7.50    9.40
   0  14  -8   52.79   22.40
   0  14  -8   24.90   11.40
   1  14   8    4.90    9.30
   1  14   8    0.20    5.20
  -1  14  -8    6.10    6.00
  -1  14  -8   -0.20    4.50
  -1  14  -8    6.80    9.50
  -2  14  -8    7.90    3.10
   2  14   8   12.90    9.90
  -2  14  -8    2.90    7.20
   2  14   8    1.10    6.20
   3  14   8   24.40   16.50
   3  14   8   21.20   14.80
  -3  14  -8    2.70    8.90
   4  14   8   51.29   20.70
   4  14   8   -0.20    8.80
  -4  14  -8    8.10    8.40
   5  14   8    4.00    6.90
  -5  14  -8   39.40   14.00
   5  14   8   -1.30    7.70
   6  14   8  101.49   34.00
   6  14   8   70.19   26.00
  -5  15   8  226.28   26.00
   5  15  -8   99.59   30.50
   5  15  -8  209.98   44.10
   4  15  -8   -4.10    6.80
  -4  15   8   -3.70    5.00
   4  15  -8    0.80    8.00
   3  15  -8   64.89   21.10
   3  15  -8   40.70   23.20
  -3  15   8   41.50   15.30
  -2  15   8   70.19   20.30
   2  15  -8   43.10   18.30
  -2  15   8   41.80   15.60
   2  15  -8   81.29   27.70
  -1  15   8    5.10    9.50
   1  15  -8   22.80   13.00
  -1  15   8   -2.00    4.60
   1  15  -8    0.90   10.80
   0  15   8   -4.30    6.00
   0  15   8    1.00    6.30
   0  15  -8   -0.20    6.70
   0  15  -8    7.20    8.10
  -1  15  -8  119.69   31.30
   1  15   8  134.79   31.00
   1  15   8   88.89   26.40
  -1  15  -8  113.89   15.40
   2  15   8   15.80   12.50
  -2  15  -8   45.20   18.70
   2  15   8   61.79   21.50
  -3  15  -8  125.59   28.30
   3  15   8  109.79   31.90
   3  15   8   96.39   24.70
   4  15   8   26.50   15.10
  -4  15  -8   42.50   16.70
   4  15   8   24.60   17.70
   5  15   8   14.50   14.60
  -5  15  -8   20.00   10.40
   3  16  -8   31.60   31.00
  -3  16   8   17.70   12.20
   3  16  -8   32.10   17.10
  -3  16   8   29.00   15.10
   2  16  -8   12.40   11.10
  -2  16   8    5.90    8.50
   2  16  -8   20.90   17.70
  -2  16   8   13.10   11.70
   1  16  -8   13.60   13.90
  -1  16   8   13.30   12.40
   1  16  -8   -4.60    5.40
  -1  16   8   26.40   14.40
   0  16  -8   26.90   17.20
   0  16  -8    6.20    7.70
   0  16   8    4.00    7.90
   0  16   8    5.20    8.30
   1  16   8   64.79   23.60
   1  16   8   18.90   12.20
  -1  16  -8   10.00   11.20
   2  16   8   13.40    9.60
   2  16   8    0.80    6.80
  -2  16  -8   12.10   12.20
   3  16   8    6.00    9.20
   3  16   8    4.60    7.40
  -3  16  -8   -2.60    6.20
  12   0  -9    9.60    7.50
  12   0  -9   -4.70    8.30
  11   0  -9   19.50   13.60
  11   0  -9   17.50   11.70
  10   0  -9   -0.50   14.60
 -10   0   9    6.30    5.60
  10   0  -9    7.20    7.30
  -9   0   9  965.40   50.79
   9   0  -9  868.31   63.09
   9   0  -9  920.11   53.29
   8   0  -9   -9.60    5.40
  -8   0   9   -3.20    4.30
   8   0  -9    4.20    7.50
   7   0  -9  275.67   32.00
  -7   0   9  293.07   25.60
   7   0  -9  268.27   26.90
   6   0  -9    2.30    5.90
  -6   0   9   -2.30    3.60
  -6   0   9    1.10    5.50
   6   0  -9   -1.20    7.30
   5   0  -9  257.87   24.60
  -5   0   9  277.47   23.90
  -5   0   9  268.87   26.40
   5   0  -9  249.88   26.80
  -4   0   9    1.70    5.20
   4   0  -9    3.70    5.40
   4   0  -9    0.20    4.10
  -4   0   9   -4.20    2.30
   3   0  -9  531.95   34.90
  -3   0   9  586.64   34.90
   3   0  -9  499.95   35.20
  -3   0   9  618.84   37.30
  -2   0   9    4.80    4.00
   2   0  -9    1.60    5.60
  -2   0   9    2.80    4.70
   2   0  -9   -2.80    3.10
  -1   0   9 2692.73   92.29
  -1   0   9 2606.14   89.89
   1   0  -9 2590.24   91.19
   0   0   9   -4.90    1.90
   0   0   9    5.40    5.40
   0   0  -9   -0.20    3.80
   0   0  -9    4.20    4.20
  -1   0  -9 2186.78   78.09
   1   0   9 2144.49   80.19
   1   0   9 2103.49   76.39
  -2   0  -9    2.50    4.80
   2   0   9   -4.20    2.40
  -2   0  -9   -0.30    4.40
   2   0   9    1.30    5.40
   3   0   9  193.68   19.10
  -3   0  -9  192.38   20.60
   3   0   9  178.98   19.70
  -4   0  -9   -2.60    2.30
   4   0   9   -2.40    2.30
   4   0   9   -3.10    2.40
  -5   0  -9  307.47   27.30
   5   0   9  268.87   24.80
   5   0   9  333.77   28.30
  -6   0  -9   -2.80    3.30
   6   0   9    1.10    4.80
   6   0   9    0.20    3.00
   6   0   9   -3.10    3.20
   7   0   9   66.19   18.40
   7   0   9  114.39   16.70
   7   0   9   83.29   19.10
  -7   0  -9  106.29   21.80
   8   0   9    3.80    5.40
   8   0   9   -1.60    4.10
   8   0   9    8.70    8.20
   8   0   9    5.00    6.40
   9   0   9    6.30    6.40
   9   0   9   34.30   12.70
   9   0   9    0.70    5.80
  10   0   9   -1.10    3.70
  10   0   9    4.10    7.00
  10   0   9    1.40    5.50
  11   0   9    6.20    8.20
  11   0   9    8.60    7.70
  12   0   9    8.70   11.00
  12   0   9    3.50    6.20
  12  -1  -9   39.20   14.30
  12  -1  -9   19.10   14.60
  12   1  -9    0.50    8.30
  12   1  -9   24.20   11.90
  11  -1  -9   67.79   25.80
  11  -1  -9   53.79   15.00
 -11   1   9   63.59   18.00
  11   1  -9   75.39   20.00
  11   1  -9   92.39   29.80
  10  -1  -9  202.48   31.50
  10  -1  -9  199.18   23.20
  10   1  -9  210.68   26.60
  10   1  -9  193.18   32.00
 -10   1   9  176.48   20.30
   9  -1  -9    2.80    9.40
  -9  -1   9    6.20    8.90
   9  -1  -9    5.90    8.00
  -9   1   9    9.50    6.90
   9   1  -9   -6.60    3.40
   9   1  -9    7.40   10.10
   8  -1  -9    5.90    7.80
  -8  -1   9   -1.10    4.60
   8  -1  -9   10.50    8.80
   8   1  -9    6.10    8.80
   8   1  -9   20.90   15.20
  -8   1   9   14.10    8.20
  -7  -1   9  581.14   37.70
   7  -1  -9  499.65   35.90
   7  -1  -9  495.75   42.30
   7   1  -9  567.54   46.10
  -7   1   9  572.04   34.80
   7   1  -9  538.75   39.70
  -6  -1   9   81.99   16.90
   6  -1  -9   56.49   14.10
   6  -1  -9   62.89   17.40
   6   1  -9   82.49   18.90
   6   1  -9   65.89   16.20
  -6   1   9   49.20   14.30
  -6   1   9  100.09   14.50
  -5  -1   9  132.89   17.00
   5  -1  -9   74.19   16.60
  -5  -1   9  122.79   18.20
   5  -1  -9   94.59   19.60
  -5   1   9   85.09   16.30
   5   1  -9   99.99   16.40
  -5   1   9   78.09   18.90
   5   1  -9  106.69   22.30
  -4  -1   9  772.52   43.20
   4  -1  -9  888.11   49.60
  -4  -1   9  858.21   47.30
   4  -1  -9  789.02   43.90
  -4   1   9  753.92   41.40
  -4   1   9  905.31   48.30
   4   1  -9  856.61   49.40
   4   1  -9  880.71   47.70
  -3  -1   9  110.19   15.20
  -3  -1   9  109.49   15.80
   3  -1  -9   99.19   15.10
   3  -1  -9   94.49   15.40
   3   1  -9  102.69   16.20
  -3   1   9  109.89   20.60
   3   1  -9   94.99   18.40
  -3   1   9   97.29   14.20
   2  -1  -9  942.21   47.10
  -2  -1   9  968.10   46.70
   2  -1  -9  949.80   48.50
  -2  -1   9  905.81   45.20
   2   1  -9  966.20   48.30
   2   1  -9  942.91   47.50
  -2   1   9  926.41   46.00
  -2   1   9  878.21   45.90
   1  -1  -9  101.89   14.80
  -1  -1   9  128.69   15.60
   1  -1  -9  108.79   15.40
  -1  -1   9  128.09   15.90
  -1   1   9  108.59   15.20
   1   1  -9  119.59   15.30
  -1   1   9  125.89   15.90
   1   1  -9  137.89   17.10
   0  -1  -9   75.39   17.10
   0  -1   9   41.70   11.90
   0  -1   9   35.20   10.10
   0  -1  -9   44.20   13.00
   0   1  -9   43.70   12.90
   0   1   9   48.80   13.90
   0   1  -9   25.60    8.30
   0   1   9   60.79   14.50
   1  -1   9  103.89   13.60
  -1  -1  -9   88.09   14.60
   1  -1   9  176.78   18.40
  -1  -1  -9  103.89   14.40
  -1   1  -9  115.89   15.80
   1   1   9  101.89   14.90
   1   1   9  131.49   16.10
  -1   1  -9  132.39   15.20
  -2  -1  -9  298.27   24.90
   2  -1   9  296.77   22.40
   2  -1   9  333.17   25.90
  -2  -1  -9  361.66   28.40
  -2   1  -9  338.37   24.10
  -2   1  -9  318.57   25.90
   2   1   9  299.67   25.80
   2   1   9  329.27   25.60
   3  -1   9   98.19   14.90
   3  -1   9   86.89   12.50
  -3  -1  -9   69.19   15.00
  -3   1  -9   82.69   12.10
   3   1   9  122.09   16.10
  -3   1  -9  112.69   15.60
   3   1   9   93.29   15.20
   4  -1   9 1734.53   70.99
  -4  -1  -9 1670.83   73.59
   4  -1   9 1762.52   67.39
   4   1   9 1709.33   71.49
   4   1   9 1765.62   74.49
  -4   1  -9 1831.92   72.79
   5  -1   9  128.49   16.00
   5  -1   9  115.39   16.20
   5  -1   9  108.39   13.40
  -5  -1  -9  115.49   18.10
   5   1   9  123.19   17.90
  -5   1  -9  117.69   16.80
   5   1   9  103.19   16.80
   6  -1   9  110.59   16.40
   6  -1   9  112.79   14.70
   6  -1   9  107.19   15.80
  -6   1  -9  103.99   16.10
   6   1   9  147.99   20.20
   6   1   9  146.49   20.60
   6   1   9  104.59   16.00
   7  -1   9   79.89   18.80
   7  -1   9   68.09   16.50
   7  -1   9   85.99   17.10
  -7  -1  -9   42.60   15.20
  -7   1  -9   68.69   16.90
   7   1   9   49.99   14.90
   7   1   9  107.89   23.30
   7   1   9   81.39   20.20
   8  -1   9  132.39   18.50
   8  -1   9   94.19   18.30
   8  -1   9  119.99   15.90
   8  -1   9  117.39   18.50
   8   1   9  103.29   21.70
   8   1   9  130.29   20.50
   8   1   9  118.19   17.60
   9  -1   9   27.80   11.80
   9  -1   9   21.10   11.00
   9  -1   9   17.90    8.50
   9   1   9   22.00   11.40
   9   1   9   13.10    9.00
  10  -1   9  436.06   35.00
  10  -1   9  447.96   36.50
  10  -1   9  430.26   36.20
  10   1   9  446.66   35.00
  10   1   9  454.95   39.90
  11  -1   9    6.00    6.40
  11  -1   9    7.50    9.80
  11   1   9   22.10   13.80
  11   1   9    4.50    6.60
  12  -1   9  182.18   26.90
  12   1   9  120.19   24.00
  12   1   9  162.18   34.00
  12  -2  -9    3.60    5.60
  12  -2  -9   -1.40   10.20
  12   2  -9    1.70    9.60
  12   2  -9   10.30   10.50
  11  -2  -9    5.60    6.50
  11  -2  -9    3.70   10.20
  11   2  -9   12.90   16.10
  11   2  -9    7.60    9.00
  10  -2  -9   12.30    7.80
  10  -2  -9   -3.10    9.90
  10   2  -9   13.10   12.70
 -10   2   9    3.20    5.00
  10   2  -9    4.00    8.60
   9  -2  -9  220.18   23.00
   9  -2  -9  281.17   34.30
   9   2  -9  252.87   29.60
   9   2  -9  252.17   34.30
  -9   2   9  255.17   22.10
   8  -2  -9   41.40   16.10
   8  -2  -9   52.79   14.50
   8   2  -9   47.30   17.70
  -8   2   9   40.40   11.40
   8   2  -9   58.39   18.00
  -7  -2   9 1117.59   57.39
   7  -2  -9 1060.29   53.39
   7  -2  -9 1084.49   64.69
   7   2  -9 1237.18   69.69
   7   2  -9 1180.58   62.29
  -7   2   9 1116.19   50.69
   6  -2  -9  107.49   21.20
   6  -2  -9  102.49   15.60
  -6  -2   9   68.89   15.40
   6   2  -9  142.99   22.20
   6   2  -9   97.39   20.00
  -6   2   9   95.09   14.20
  -6   2   9   93.09   19.10
  -5  -2   9   48.70   14.20
   5  -2  -9   48.00   14.70
  -5  -2   9   59.59   14.40
   5  -2  -9   43.40   12.50
  -5   2   9  110.39   21.90
   5   2  -9   43.00   14.10
  -5   2   9   46.30   11.90
   5   2  -9   59.69   15.40
  -4  -2   9   93.39   17.80
   4  -2  -9  119.69   18.00
  -4  -2   9  106.09   16.40
   4  -2  -9  106.59   15.30
  -4   2   9  147.29   18.70
   4   2  -9  101.89   16.50
   4   2  -9   81.59   23.20
  -4   2   9  113.29   14.80
  -3  -2   9  187.28   20.40
   3  -2  -9  199.78   20.30
   3  -2  -9  184.68   21.40
  -3  -2   9  187.28   20.50
   3   2  -9  189.88   21.70
   3   2  -9  193.38   21.70
  -3   2   9  173.28   20.10
  -3   2   9  240.68   21.70
  -2  -2   9  668.33   38.30
  -2  -2   9  706.83   38.60
   2  -2  -9  701.23   39.70
   2  -2  -9  558.74   37.50
  -2   2   9  680.23   38.40
   2   2  -9  704.83   39.50
  -2   2   9  683.83   40.20
   2   2  -9  762.02   42.80
  -1  -2   9 2185.48   80.69
   1  -2  -9 2142.69   81.39
   1  -2  -9 2094.99   80.79
  -1  -2   9 2171.08   77.09
  -1   2   9 2200.48   81.89
   1   2  -9 2118.29   77.99
  -1   2   9 2221.88   81.89
   1   2  -9 2248.58   83.19
   0  -2   9 1103.19   50.59
   0  -2   9 1073.89   46.80
   0  -2  -9 1042.60   51.59
   0  -2  -9 1131.99   53.29
   0   2  -9 1096.69   52.19
   0   2  -9 1112.59   48.40
   0   2   9 1118.59   52.39
   0   2   9 1036.90   51.19
   1  -2   9  541.35   30.00
  -1  -2  -9  602.94   36.90
   1  -2   9  585.34   34.80
  -1   2  -9  612.84   32.00
   1   2   9  514.05   33.80
   1   2   9  564.44   36.40
  -1   2  -9  516.55   34.00
   2  -2   9   67.09   13.90
  -2  -2  -9   56.09   13.90
   2  -2   9   66.49   10.40
  -2  -2  -9   49.20   12.40
   2   2   9   97.19   15.30
   2   2   9   87.39   18.00
  -2   2  -9   53.29   12.00
  -2   2  -9   86.49   13.80
  -3  -2  -9   60.39   14.80
   3  -2   9   60.79   14.00
   3  -2   9   78.29   11.10
   3   2   9   75.29   17.00
  -3   2  -9   68.79   10.40
  -3   2  -9   80.79   13.30
   3   2   9   78.39   17.70
   4  -2   9  119.09   13.80
   4  -2   9  100.09   14.40
  -4  -2  -9  111.89   17.50
  -4   2  -9  122.39   16.10
   4   2   9  107.29   17.20
   4   2   9  108.19   16.80
   5  -2   9   42.50   10.60
   5  -2   9   40.30   12.10
   5  -2   9   27.80    8.00
   5   2   9   21.20   11.40
   5   2   9   50.39   18.20
  -5   2  -9   80.79   17.90
  -6  -2  -9  255.97   27.70
   6  -2   9  191.78   20.40
   6  -2   9  215.38   18.90
   6  -2   9  215.68   20.40
  -6   2  -9  198.18   21.20
   6   2   9  233.68   24.30
   6   2   9  192.38   24.40
   6   2   9  229.58   26.20
   7  -2   9  222.28   22.10
   7  -2   9  216.48   22.00
  -7  -2  -9  207.58   26.10
   7  -2   9  213.08   20.00
  -7   2  -9  232.58   22.80
   7   2   9  198.78   22.90
   7   2   9  190.68   23.30
   7   2   9  176.68   24.00
   8  -2   9  126.89   17.30
   8  -2   9  111.69   14.70
   8  -2   9  146.49   19.40
   8  -2   9  150.88   18.00
   8   2   9  132.89   19.50
   8   2   9  141.39   21.30
   9  -2   9   11.60    9.10
   9  -2   9    0.40    4.40
   9  -2   9    2.50    5.90
   9  -2   9    5.10    6.00
   9   2   9    3.50    5.40
   9   2   9   -7.00    3.30
  10  -2   9    9.00    6.30
  10  -2   9    3.60    5.10
  10  -2   9   -2.70    4.10
  10   2   9   10.10    8.80
  10   2   9    1.30    6.90
  11  -2   9    3.70    5.10
  11  -2   9    2.70    7.50
  11   2   9    6.30    7.70
  11   2   9   -0.10    6.60
  12  -2   9   12.20   10.80
  12   2   9   10.00   10.90
  12   2   9    5.60    8.60
  12  -3  -9  127.29   32.30
  12   3  -9  193.48   39.10
  12   3  -9  124.89   34.20
  11  -3  -9   25.20    8.30
  11  -3  -9   -4.00    6.60
  11   3  -9   18.90   13.10
  11   3  -9    7.00   11.00
  10  -3  -9  142.49   30.40
  10  -3  -9  130.89   16.30
  10   3  -9  172.88   35.80
 -10   3   9  122.19   14.30
  10   3  -9   75.39   20.70
   9  -3  -9  108.49   15.20
   9  -3  -9  172.88   27.60
  -9   3   9   99.09   13.40
   9   3  -9  106.29   24.40
   9   3  -9  142.69   32.20
   8  -3  -9  123.59   26.10
   8  -3  -9  172.48   19.00
   8   3  -9  149.99   23.80
   8   3  -9  157.88   32.30
  -8   3   9  139.59   15.90
   7  -3  -9   40.00   16.30
   7  -3  -9   49.00   13.50
   7   3  -9   26.50   13.70
  -7   3   9   28.60    9.00
   7   3  -9   16.10   12.00
   6  -3  -9   25.40   12.20
  -6  -3   9   12.30    8.80
   6  -3  -9    8.40    7.40
   6   3  -9   -0.40    7.40
   6   3  -9   15.70    9.80
  -6   3   9   15.10    7.60
  -6   3   9    2.50    6.40
   5  -3  -9  311.77   29.80
  -5  -3   9  295.37   27.00
   5  -3  -9  267.37   23.80
  -5  -3   9  273.07   27.50
  -5   3   9  302.67   28.40
  -5   3   9  284.27   23.20
   5   3  -9  219.48   25.50
   5   3  -9  305.67   30.50
   4  -3  -9  510.45   37.70
  -4  -3   9  594.54   37.50
  -4  -3   9  537.45   39.30
   4  -3  -9  560.84   35.00
   4   3  -9  589.54   41.00
  -4   3   9  555.04   34.10
   4   3  -9  532.55   38.50
  -4   3   9  565.14   38.20
   3  -3  -9  221.78   23.40
   3  -3  -9  213.48   21.20
  -3  -3   9  191.28   20.90
  -3  -3   9  212.48   21.70
  -3   3   9  207.28   20.20
   3   3  -9  219.28   23.30
  -3   3   9  216.18   22.60
   3   3  -9  145.89   19.70
   2  -3  -9  478.45   32.30
  -2  -3   9  493.75   31.60
  -2  -3   9  429.86   31.30
   2  -3  -9  416.06   31.70
  -2   3   9  462.65   31.50
   2   3  -9  437.76   31.40
  -2   3   9  467.15   33.00
   2   3  -9  442.96   32.80
  -1  -3   9   -2.40    3.60
  -1  -3   9   -6.00    2.40
   1  -3  -9    8.80    6.70
   1  -3  -9   -3.40    3.80
   1   3  -9   13.30    8.00
  -1   3   9   -3.30    2.90
   1   3  -9    4.70    5.90
  -1   3   9    4.10    6.40
   0  -3  -9  221.48   22.30
   0  -3   9  253.77   19.80
   0  -3   9  217.68   21.10
   0  -3  -9  211.68   22.30
   0   3  -9  220.08   19.10
   0   3   9  232.28   22.70
   0   3  -9  243.98   23.30
   0   3   9  228.28   22.60
   1  -3   9  362.76   23.00
  -1  -3  -9  342.97   28.90
  -1  -3  -9  403.06   30.60
   1  -3   9  314.77   25.20
  -1   3  -9  316.47   26.50
   1   3   9  386.26   30.20
  -1   3  -9  390.96   24.50
  -2  -3  -9  868.31   49.10
   2  -3   9  878.41   43.40
  -2  -3  -9  838.42   46.70
   2  -3   9  931.41   38.80
  -2   3  -9  818.32   37.30
  -2   3  -9  845.22   44.40
   2   3   9  850.91   48.10
   2   3   9  762.02   45.40
  -3  -3  -9  489.85   36.50
   3  -3   9  417.66   29.00
   3   3   9  452.65   33.90
   3   3   9  521.45   37.20
  -3   3  -9  448.46   30.90
  -3   3  -9  429.26   24.50
   4  -3   9 1574.14   55.89
   4  -3   9 1503.15   61.89
  -4  -3  -9 1484.05   83.09
  -4   3  -9 1521.65   63.69
   5  -3   9  360.26   21.10
   5  -3   9  341.87   22.50
   5  -3   9  321.57   25.40
  -5  -3  -9  312.37   31.20
   5   3   9  333.17   31.40
  -5   3  -9  333.57   26.20
   5   3   9  363.46   33.10
  -6  -3  -9   74.59   19.20
   6  -3   9  107.09   12.40
   6  -3   9   75.19   14.30
   6  -3   9   83.79   16.10
   6   3   9   72.99   18.90
  -6   3  -9   69.79   15.20
   6   3   9   84.49   19.00
   7  -3   9   33.10   10.20
   7  -3   9   64.99   13.10
   7  -3   9   43.80   11.30
   7   3   9   57.79   15.80
   7   3   9   64.99   17.80
  -7   3  -9   37.30   11.70
   8  -3   9   41.40   11.30
   8  -3   9   37.20   11.60
   8  -3   9   21.80    8.70
  -8   3  -9   17.10    8.90
   8   3   9   17.30   10.00
   8   3   9   49.10   15.90
   9  -3   9  129.99   15.80
   9  -3   9  149.99   18.00
   9  -3   9  137.59   18.60
   9  -3   9  127.69   14.20
   9   3   9  176.18   25.80
   9   3   9  159.88   23.10
  10  -3   9  149.59   15.60
  10  -3   9  148.89   19.20
  10  -3   9  165.68   21.70
  10  -3   9  137.09   13.90
  10   3   9  150.28   34.60
  10   3   9  187.98   24.90
  11  -3   9  176.48   22.20
  11  -3   9  166.98   13.10
  11   3   9  265.67   30.70
  11   3   9  148.29   31.70
  12  -3   9   61.89   16.30
  12   3   9   49.30   19.60
  12   3   9  110.79   30.20
  12  -4  -9   14.70   13.20
  12   4  -9    0.30    8.90
  12   4  -9   -1.20    7.90
  11  -4  -9   73.69   22.40
  11   4  -9   51.79   22.90
  11   4  -9   84.59   30.30
  10  -4  -9   -3.40    7.20
  10  -4  -9   10.10    5.20
 -10   4   9    6.00    4.50
  10   4  -9    9.90   10.30
  10   4  -9   -0.50   10.80
   9  -4  -9  107.89   14.00
   9  -4  -9  107.59   26.40
   9   4  -9  140.19   29.60
  -9   4   9  108.99   12.70
   9   4  -9  118.99   32.60
   8  -4  -9  257.27   31.80
   8  -4  -9  335.57   25.00
   8   4  -9  356.36   36.90
  -8   4   9  347.67   23.50
   8   4  -9  234.18   33.50
   7  -4  -9  135.49   22.40
   7  -4  -9  102.89   14.70
   7   4  -9  110.29   25.70
   7   4  -9   90.49   23.20
  -7   4   9  128.19   15.00
   6  -4  -9  395.86   28.70
   6  -4  -9  446.96   37.60
  -6   4   9  397.36   34.00
   6   4  -9  473.15   39.20
  -6   4   9  394.96   27.20
   6   4  -9  444.86   39.90
  -5  -4   9    3.30    6.20
   5  -4  -9   11.70    8.70
   5  -4  -9    8.00    6.10
  -5  -4   9    9.30    8.60
   5   4  -9   -1.30    6.40
   5   4  -9   -9.90    3.20
  -5   4   9   -3.30    2.80
  -5   4   9   -2.60    3.10
   4  -4  -9   49.10   15.40
   4  -4  -9   40.20   12.80
  -4  -4   9   38.20   12.50
  -4  -4   9   11.30    7.10
  -4   4   9   37.90   12.40
  -4   4   9   31.20   11.10
   4   4  -9   26.90   11.80
   4   4  -9   14.20    9.00
   3  -4  -9  607.44   38.40
   3  -4  -9  669.93   42.40
  -3  -4   9  646.54   39.50
  -3  -4   9  701.13   41.70
   3   4  -9  680.63   54.29
  -3   4   9  707.93   39.80
   3   4  -9  718.73   43.20
  -3   4   9  764.02   44.30
  -2  -4   9    0.80    5.10
   2  -4  -9   10.70    7.70
  -2  -4   9    1.80    4.60
   2  -4  -9   11.50    6.30
   2   4  -9    5.50    5.60
   2   4  -9   12.90    9.50
  -2   4   9   12.10    7.00
  -2   4   9    5.50    5.50
  -1  -4   9  717.83   37.60
   1  -4  -9  678.03   42.50
   1  -4  -9  737.63   43.20
  -1  -4   9  775.62   42.70
  -1   4   9  730.33   42.50
   1   4  -9  708.93   38.60
   1   4  -9  763.42   43.90
  -1   4   9  769.12   44.10
   0  -4  -9  565.54   37.40
   0  -4   9  487.25   28.20
   0  -4   9  471.65   31.90
   0  -4  -9  446.56   33.90
   0   4   9  539.85   36.20
   0   4  -9  507.05   34.50
   0   4  -9  496.05   29.30
  -1  -4  -9  257.97   25.10
   1  -4   9  286.97   19.40
  -1  -4  -9  175.88   21.80
   1  -4   9  226.68   21.20
  -1   4  -9  213.88   21.90
   1   4   9  220.88   23.20
  -1   4  -9  239.78   18.60
   1   4   9  265.67   25.70
   2  -4   9   50.59    9.70
   2  -4   9   63.29   14.80
  -2  -4  -9   21.80    9.50
  -2   4  -9   38.80   11.60
   2   4   9   34.80   13.70
  -2   4  -9   36.60    8.90
   2   4   9   52.89   15.50
   3  -4   9   15.60    5.60
   3  -4   9   13.50    8.00
  -3  -4  -9   12.30    8.90
  -3   4  -9   14.60    7.70
  -3   4  -9   20.60    6.10
   3   4   9   11.50   12.50
   3   4   9   21.00   15.70
  -4  -4  -9   45.50   14.90
   4  -4   9   66.79    8.70
   4  -4   9   87.79   13.00
   4   4   9   64.69   17.10
   4   4   9   65.89   17.20
  -4   4  -9   96.79   14.30
   5  -4   9  152.38   11.80
   5  -4   9  136.49   15.80
   5  -4   9  106.89   11.30
  -5  -4  -9  193.88   25.40
  -5   4  -9  156.28   17.80
   5   4   9  171.48   21.40
   5   4   9  211.98   29.20
   5   4   9  150.48   22.40
   6  -4   9  456.05   23.00
   6  -4   9  443.56   28.40
  -6  -4  -9  472.35   41.00
   6   4   9  455.15   36.40
  -6   4  -9  419.26   29.40
   6   4   9  430.16   35.40
   7  -4   9  203.18   17.20
   7  -4   9  209.08   18.70
   7  -4   9  200.28   16.20
   7   4   9  189.68   25.10
  -7   4  -9  194.08   19.10
   7   4   9  255.07   27.80
   8  -4   9   78.19   11.40
   8  -4   9   66.99   13.80
   8  -4   9   65.79   13.00
   8   4   9   96.39   21.90
  -8   4  -9   92.99   13.30
   8   4   9  129.79   27.80
   9  -4   9   29.70    8.30
   9  -4   9   43.70    9.30
   9  -4   9   49.90   11.90
   9  -4   9   44.40   11.60
   9   4   9   39.30   14.90
   9   4   9   35.40   17.30
  10  -4   9   74.09    7.90
  10  -4   9   52.39   14.30
  10  -4   9   90.19    8.80
  10  -4   9  105.59   14.80
  10   4   9  109.79   25.70
  10   4   9  100.69   25.60
  11  -4   9    1.30    7.50
  11   4   9    1.90    6.60
  11   4   9    2.50    8.90
  12   4   9   49.10   21.50
  12   4   9   74.69   23.20
  12  -5  -9   38.30   19.10
  12   5  -9    4.60   15.30
  12   5  -9   34.70   19.60
  11  -5  -9  266.07   35.70
  11   5  -9  241.58   40.10
  11   5  -9  386.66   42.90
  10  -5  -9  177.68   28.20
  10   5  -9  202.88   41.90
  10   5  -9  180.98   39.30
   9  -5  -9    1.30    6.40
   9  -5  -9    5.00    4.20
   9   5  -9   28.50   15.10
   9   5  -9    5.80   11.30
  -9   5   9    9.40    5.50
   8  -5  -9   35.40   10.00
   8  -5  -9   47.50   18.40
   8   5  -9   62.19   20.70
   8   5  -9   24.50   15.00
  -8   5   9   62.69   11.90
   7  -5  -9   -0.50    5.90
   7  -5  -9    0.30    4.10
   7   5  -9   22.70   13.90
  -7   5   9    3.80    4.80
   7   5  -9   -3.60    5.70
   6  -5  -9    7.30    6.90
   6  -5  -9   10.20    6.70
  -6   5   9    5.10    5.90
   6   5  -9   -6.00    4.00
   6   5  -9   11.00   11.70
  -6   5   9    0.30    5.60
   5  -5  -9  263.47   23.50
   5  -5  -9  266.47   28.60
   5   5  -9  271.67   30.00
   5   5  -9  229.28   27.70
  -5   5   9  227.88   21.30
  -5   5   9  257.67   26.50
  -4  -5   9   67.09   15.80
  -4  -5   9   84.29   19.00
   4  -5  -9   90.59   18.20
   4  -5  -9  143.59   33.50
  -4   5   9   91.69   14.30
   4   5  -9  112.29   23.70
   4   5  -9   77.79   18.20
  -3  -5   9 1471.25   67.79
   3  -5  -9 1542.35   65.99
  -3  -5   9 1559.84   67.19
   3  -5  -9 1491.05   69.39
   3   5  -9 1572.44   72.79
  -3   5   9 1490.45   64.89
   3   5  -9 1494.55   70.39
  -3   5   9 1439.36   67.89
   2  -5  -9  867.81   47.00
   2  -5  -9  804.52   47.60
  -2  -5   9  771.02   42.00
  -2   5   9  875.51   46.70
  -2   5   9  781.62   46.50
   2   5  -9  769.72   56.49
   2   5  -9  770.72   43.60
  -1  -5   9   -3.50    3.00
   1  -5  -9   -3.70    2.90
   1  -5  -9   12.60    8.10
  -1  -5   9   -1.20    4.00
   1   5  -9    2.60    6.20
  -1   5   9    1.40    4.70
   1   5  -9    4.30    5.30
  -1   5   9    7.60    6.50
   0  -5   9   15.80    6.60
   0  -5   9   15.40    7.90
   0  -5  -9   13.20    7.90
   0  -5  -9   18.60    9.10
   0   5  -9    2.90    5.80
   0   5   9    9.80    6.50
   0   5  -9   14.00    6.80
   0   5   9   37.50   12.60
   1  -5   9  494.05   26.00
  -1  -5  -9  556.04   38.50
  -1  -5  -9  489.25   37.20
   1  -5   9  509.25   33.20
  -1   5  -9  494.65   27.30
   1   5   9  489.85   37.10
  -1   5  -9  479.15   34.00
   1   5   9  409.56   33.90
  -2  -5  -9   70.69   17.10
   2  -5   9  101.79   14.80
   2  -5   9   99.19   10.20
   2   5   9   78.29   17.50
  -2   5  -9  106.49   11.00
  -2   5  -9  102.39   15.60
   2   5   9  112.79   24.20
  -3  -5  -9  521.95   40.90
   3  -5   9  541.05   32.80
   3  -5   9  566.14   23.40
   3   5   9  503.65   40.20
  -3   5  -9  529.05   34.60
  -3   5  -9  562.34   24.10
   3   5   9  520.85   40.10
   4  -5   9  468.45   21.40
   4  -5   9  468.35   19.20
   4  -5   9  466.35   29.60
  -4  -5  -9  516.45   41.40
   4   5   9  449.95   39.00
  -4   5  -9  455.65   31.30
   4   5   9  477.15   40.00
   5  -5   9  826.42   39.80
   5  -5   9  785.82   26.80
  -5  -5  -9  798.92   54.89
   5  -5   9  767.12   32.30
  -5   5  -9  810.62   42.20
   5   5   9  751.02   47.90
   6  -5   9   38.60   10.40
   6  -5   9   27.30    5.70
   6   5   9    4.50    6.10
  -6   5  -9   25.70    9.20
   6   5   9    5.60    7.40
   7  -5   9   70.19    7.70
   7  -5   9   69.09   11.00
   7  -5   9   73.99    8.20
   7   5   9   76.09   21.80
   7   5   9   56.19   17.50
  -7   5  -9   70.39   13.80
   8  -5   9   65.89   11.80
   8  -5   9   78.39    9.30
   8  -5   9   62.19    8.40
  -8   5  -9   69.09   12.80
   8   5   9   62.19   19.00
   8   5   9   59.69   17.10
   9  -5   9  256.87   17.30
   9  -5   9  227.18   12.90
   9  -5   9  234.78   13.90
   9   5   9  188.98   27.40
   9   5   9  252.37   32.40
  10  -5   9   87.19   11.90
  10  -5   9   94.59   11.60
  10   5   9   96.59   27.60
  10   5   9   95.99   25.20
  11  -5   9   85.49   12.40
  11   5   9   99.89   26.60
  11   5   9   78.59   21.20
  11  -6  -9   17.40   15.60
  11   6  -9   14.30   16.90
  11   6  -9    7.60   11.40
  10  -6  -9    2.00    6.50
  10   6  -9    4.50   11.80
  10   6  -9   35.20   19.40
   9  -6  -9   19.30   12.80
   9   6  -9   32.80   17.10
  -9   6   9   14.10    4.10
   9   6  -9   15.50   14.90
   8  -6  -9  212.48   17.40
   8  -6  -9  262.57   31.40
  -8   6   9  233.88   17.00
   8   6  -9  263.67   33.40
   8   6  -9  272.37   64.09
   7  -6  -9  113.19   14.50
   7  -6  -9  132.29   25.70
   7   6  -9  123.79   26.80
  -7   6   9  124.39   14.10
   7   6  -9  114.79   24.60
   6  -6  -9  246.28   28.20
   6  -6  -9  253.37   22.40
  -6   6   9  213.68   19.90
  -6   6   9  207.98   25.30
   6   6  -9  192.08   27.70
   6   6  -9  291.17   33.80
   5  -6  -9    3.00    6.10
   5  -6  -9    6.70    7.60
   5   6  -9   14.00    9.90
   5   6  -9   14.10   10.70
  -5   6   9   10.10    6.40
  -5   6   9   -1.80    4.20
   4  -6  -9   41.30   14.10
  -4  -6   9   48.30   13.20
   4  -6  -9   36.60   12.20
   4   6  -9   20.60   11.20
  -4   6   9   44.20   12.90
  -4   6   9   77.69   19.50
   4   6  -9   33.80   14.20
  -3  -6   9   36.10   11.90
   3  -6  -9   21.90   12.90
   3  -6  -9   34.70   12.30
  -3  -6   9   82.29   17.80
  -3   6   9   42.40   12.50
   3   6  -9   81.69   19.60
   3   6  -9   50.69   15.80
  -2  -6   9  920.81   50.99
   2  -6  -9  842.82   48.50
  -2  -6   9  911.61   46.30
   2  -6  -9  885.21   58.79
  -2   6   9  839.02   50.49
  -2   6   9  855.21   48.60
   2   6  -9  935.01   48.80
   2   6  -9  883.91   52.39
  -1  -6   9   76.79   12.20
   1  -6  -9   62.29   15.90
  -1  -6   9   85.09   19.50
  -1   6   9   55.79   16.80
   1   6  -9   84.59   13.60
  -1   6   9   71.19   17.00
   1   6  -9   55.69   17.00
   0  -6   9   15.70    6.50
   0  -6  -9   11.40    6.80
   0  -6  -9    9.10    8.50
   0  -6   9   11.00    7.00
   0   6  -9    9.60    5.40
   0   6   9   10.50    8.10
   0   6   9    3.10    7.00
   0   6  -9   11.90    9.20
  -1  -6  -9  197.78   24.40
   1  -6   9  148.69   18.10
   1  -6   9  164.38   14.00
  -1   6  -9  132.89   18.60
  -1   6  -9  135.79   13.90
   1   6   9  159.78   21.90
   1   6   9  160.48   21.50
   2  -6   9  208.18   20.70
   2  -6   9  207.18   13.70
  -2  -6  -9  203.48   25.60
  -2   6  -9  177.58   20.70
  -2   6  -9  206.28   14.90
   2   6   9  223.08   25.70
   2   6   9  228.08   26.60
  -3  -6  -9   26.60   12.30
   3  -6   9   28.80    4.20
   3  -6   9   11.40    6.70
   3   6   9   30.20   12.90
  -3   6  -9   21.70    9.90
  -4  -6  -9   23.40   12.80
   4  -6   9   25.20    9.90
  -4   6  -9   22.50    9.70
   5  -6   9   95.39   13.10
   5   6   9   65.69   17.90
   5   6   9   96.79   21.20
  -5   6  -9   80.29   16.60
   6  -6   9    9.50    6.30
   6   6   9   26.80   12.00
   6   6   9   25.40   13.80
  -6   6  -9   17.00    8.40
   7  -6   9   37.40    9.20
   7   6   9   39.30   15.50
   7   6   9   31.90   13.30
  -7   6  -9   48.50   10.90
   8  -6   9  219.28   13.80
   8   6   9  255.67   31.40
   9   6   9   11.10   11.40
   9   6   9   32.30   16.20
  10   6   9   -5.10    4.50
  10   6   9    0.60    9.50
  11   6   9    4.60    7.70
  11   6   9    9.40   10.70
  11   7  -9   21.00   15.50
  11   7  -9   15.50   18.60
  10  -7  -9    7.70   11.10
  10   7  -9   10.20   13.60
  10   7  -9    5.40    8.90
   9  -7  -9   52.49   18.70
   9   7  -9   78.69   24.00
   9   7  -9   24.80   14.70
   8  -7  -9    4.80    9.50
   8   7  -9    8.00   11.70
   8   7  -9   11.10   10.10
  -8   7   9   -1.20    2.70
   7  -7  -9    8.90    6.00
   7  -7  -9    8.20    8.30
   7   7  -9    2.80    9.10
   7   7  -9   -4.70    6.20
  -7   7   9    5.00    4.90
   6  -7  -9   44.80   11.90
   6  -7  -9   46.20   15.30
   6   7  -9   44.40   16.70
   6   7  -9   11.80   10.10
  -6   7   9    4.60    8.30
  -6   7   9   44.60   12.00
   5  -7  -9  177.48   24.10
   5  -7  -9  224.38   22.10
   5   7  -9  198.68   28.30
   5   7  -9  241.98   30.00
  -5   7   9  187.38   20.60
  -5   7   9  194.18   24.60
   4  -7  -9    6.30    7.50
   4  -7  -9    2.00    5.60
   4   7  -9   12.40   10.00
   4   7  -9    8.00    8.40
  -4   7   9   -0.50    4.20
  -4   7   9    1.00    6.00
   3  -7  -9  430.56   33.20
   3  -7  -9  397.06   34.10
  -3  -7   9  404.86   31.90
   3   7  -9  373.06   35.40
  -3   7   9  432.36   32.90
   3   7  -9  437.96   35.30
  -3   7   9  391.16   33.70
  -2  -7   9  151.78   21.00
   2  -7  -9  144.89   20.30
  -2  -7   9  168.68   19.30
   2  -7  -9  158.88   22.00
   2   7  -9  177.68   21.00
   2   7  -9  174.38   23.60
  -2   7   9  195.08   22.90
  -2   7   9  161.68   21.70
  -1  -7   9  174.88   21.70
  -1  -7   9  175.98   17.80
   1  -7  -9  203.18   25.00
   1  -7  -9  170.08   22.70
  -1   7   9  147.19   21.00
   1   7  -9  166.08   19.00
   1   7  -9  174.38   23.20
   0  -7   9   76.39   16.10
   0  -7   9   82.59   11.40
   0  -7  -9   65.69   17.90
   0  -7  -9   64.79   19.30
   0   7   9   80.89   18.50
   0   7   9   69.39   19.10
   0   7  -9  109.89   18.10
   0   7  -9   78.49   12.60
  -1  -7  -9  186.18   24.70
   1  -7   9  192.98   21.10
   1  -7   9  176.88   14.60
   1   7   9  201.48   25.20
  -1   7  -9  193.48   27.20
  -1   7  -9  187.58   16.40
   1   7   9  208.98   26.00
   2  -7   9   36.30    6.60
   2  -7   9   11.60    7.60
  -2  -7  -9   27.40   12.70
  -2   7  -9   29.30   12.00
  -2   7  -9   25.50    7.00
   3  -7   9  541.85   34.40
  -3  -7  -9  640.74   48.80
  -3   7  -9  574.74   37.60
   4  -7   9  118.29   15.30
  -4   7  -9   95.79   15.70
   4   7   9  135.19   21.30
   5  -7   9  198.38   18.20
  -5   7  -9  148.99   18.00
   5   7   9  177.78   24.70
   5   7   9  151.68   23.30
   6  -7   9   71.29   11.00
   6   7   9   67.79   19.90
  -6   7  -9   89.69   13.20
   6   7   9   75.89   23.10
   7  -7   9    2.70    3.50
  -7   7  -9    6.20    5.40
   7   7   9    4.90    7.00
   7   7   9    7.80    8.60
   8   7   9    6.40   10.80
   8   7   9   32.20   14.70
   9   7   9  443.86   43.50
   9   7   9  430.66   45.30
  10   7   9   12.30   12.40
  10   7   9   26.50   16.00
  11   7   9   54.69   21.50
  11   7   9   50.99   21.10
  11  -8  -9   -0.40    7.20
  11   8  -9    4.40   12.80
  11   8  -9    6.10   11.50
  10  -8  -9  141.49   30.40
  10   8  -9   88.89   26.70
  10   8  -9  136.69   35.80
   9  -8  -9   88.19   23.90
   9   8  -9   65.69   25.70
   9   8  -9   75.49   26.90
   8  -8  -9  288.97   32.50
  -8   8   9  270.97   15.20
  -8   8   9  288.17   15.80
   8   8  -9  312.77   39.30
   8   8  -9  279.87   38.80
   7  -8  -9   40.30   15.90
   7   8  -9   39.80   17.70
   7   8  -9  125.29   52.29
  -7   8   9   25.10    8.20
   6  -8  -9   98.39   14.60
   6  -8  -9  110.29   23.70
  -6   8   9   84.39   13.80
   6   8  -9  120.69   31.20
   6   8  -9   94.49   27.90
   5  -8  -9   12.30    7.60
   5  -8  -9   22.60   12.40
  -5   8   9   13.80    8.20
   5   8  -9    4.70    9.60
   5   8  -9   -4.70    5.40
  -5   8   9    9.30    8.50
   4  -8  -9   18.50   10.80
   4  -8  -9    6.70    6.40
  -4   8   9    6.10    6.80
   4   8  -9   18.50   11.10
  -4   8   9    0.70    5.60
   4   8  -9    7.10    9.00
   3  -8  -9   34.60   12.50
   3  -8  -9   75.89   18.80
  -3  -8   9   32.80   12.20
   3   8  -9   35.10   13.00
   3   8  -9   48.10   16.20
  -3   8   9   51.39   14.90
  -3   8   9   29.70   12.70
   2  -8  -9  708.43   46.20
   2  -8  -9  626.94   45.00
   2   8  -9  660.53   43.40
  -2   8   9  662.53   44.90
  -2   8   9  606.14   44.20
   2   8  -9  688.13   48.20
   1  -8  -9    2.30    7.70
  -1  -8   9    6.30    5.30
   1  -8  -9   -5.70    3.50
  -1   8   9   -3.70    3.30
   1   8  -9    2.60    6.00
   1   8  -9   14.90    8.20
  -1   8   9    2.70    5.50
   0  -8   9  438.46   35.20
   0  -8   9  577.64   31.30
   0  -8  -9  548.55   43.00
   0   8  -9  556.24   41.60
   0   8   9  606.74   45.20
   0   8   9  605.64   44.40
   0   8  -9  552.24   33.30
   1  -8   9   14.50    8.40
   1  -8   9   25.70    7.70
  -1  -8  -9    2.90    5.20
  -1   8  -9   39.20   10.10
  -1   8  -9   30.60   13.30
  -2  -8  -9    6.30    8.90
   2  -8   9    3.20    3.20
  -2   8  -9    5.40    4.00
   2   8   9   -3.80    2.30
  -2   8  -9   -2.50    5.70
   3  -8   9   57.99   14.90
   3   8   9   50.19   17.30
  -3   8  -9   74.59   17.90
   4  -8   9   82.49   13.30
  -4   8  -9   99.79   19.60
   4   8   9   73.79   21.10
   4   8   9   70.79   17.60
   5  -8   9   18.20    7.40
   5   8   9   13.20    9.80
  -5   8  -9    8.30    6.70
   5   8   9   23.30   11.30
   6  -8   9   97.59   12.20
   6   8   9   86.49   24.50
  -6   8  -9   84.09   13.10
   6   8   9  106.39   28.40
  -7   8  -9    5.80    5.10
   7   8   9   -3.30    5.70
   7   8   9    6.60   11.00
   8   8   9   17.30   12.90
   8   8   9   49.50   20.40
   9   8   9   24.80   14.00
   9   8   9   17.40   13.50
  10   8   9   20.90   14.50
  10   8   9    7.30   10.70
  10  -9  -9   31.30   15.70
  10   9  -9   -2.00    8.70
  10   9  -9   19.50   16.50
   9  -9  -9   32.80   13.90
   9   9  -9   70.49   26.20
   9   9  -9    6.90   13.80
   8  -9  -9   34.40   15.60
   8   9  -9   64.39   25.50
   8   9  -9  116.09   32.40
  -8   9   9   52.39    5.60
   7  -9  -9   22.10   12.60
  -7   9   9   20.30    8.30
   7   9  -9   31.30   16.70
   7   9  -9    4.30    9.00
  -7   9   9   16.60    6.50
   6  -9  -9  131.49   21.30
  -6   9   9  104.49   15.20
  -6   9   9  108.69   14.00
   6   9  -9  107.79   25.60
   6   9  -9   77.49   26.00
   5  -9  -9   22.40   11.60
   5   9  -9    7.40    9.50
   5   9  -9   39.70   16.40
  -5   9   9   33.70   12.20
  -5   9   9   49.40   12.80
   4  -9  -9   49.40   17.60
   4  -9  -9   45.70   15.40
  -4   9   9   13.50    9.80
   4   9  -9   22.90   12.70
   4   9  -9   20.00   11.60
   3  -9  -9  146.09   22.30
   3  -9  -9  160.98   22.50
   3   9  -9  171.98   24.00
  -3   9   9  170.38   22.50
  -3   9   9  158.78   33.90
   3   9  -9  186.98   27.30
  -2  -9   9  219.28   22.90
   2  -9  -9  161.18   23.50
   2  -9  -9  175.58   24.20
  -2   9   9  221.58   26.60
   2   9  -9  208.58   24.30
   2   9  -9  189.18   26.70
  -1  -9   9  171.78   18.90
   1  -9  -9  179.08   25.20
  -1   9   9  229.48   32.80
   1   9  -9  238.08   23.90
   1   9  -9  165.38   24.50
   0  -9   9   17.80    7.70
   0  -9  -9   11.60    9.80
   0   9  -9   27.00   10.60
   0   9  -9   24.40   12.70
   0   9   9   33.50   12.80
   1  -9   9   65.79   16.60
   1  -9   9   68.19    9.50
  -1   9  -9   72.69   13.80
   1   9   9   29.40   11.90
  -1   9  -9   47.00   17.00
   2  -9   9  275.67   26.40
  -2   9  -9  287.57   17.00
   2   9   9  290.17   31.20
  -2   9  -9  272.77   28.10
   3  -9   9  142.79   19.00
  -3   9  -9  137.89   20.20
   3   9   9  160.88   24.50
   4  -9   9   73.49   16.40
   4   9   9   46.40   17.20
  -4   9  -9   57.39   15.40
   4   9   9   57.99   18.20
   5  -9   9  154.08   16.90
   5   9   9  140.09   28.20
   5   9   9  164.08   25.50
  -5   9  -9  126.19   17.70
   6  -9   9    0.60    3.30
   6   9   9    2.40    6.90
  -6   9  -9   -3.90    3.00
   6   9   9   16.00   10.10
   7  -9   9    9.60    5.00
  -7   9  -9   17.50    6.50
   7   9   9    0.70    8.00
   7   9   9    3.40    7.20
   8   9   9   75.29   24.80
   8   9   9  100.29   26.60
   9   9   9  115.39   30.00
   9   9   9  123.49   32.60
  10   9   9    5.60    9.80
  10   9   9   31.50   22.70
  10 -10  -9  129.49   26.80
  10  10  -9  167.28   40.10
  10  10  -9  140.69   36.90
   9 -10  -9   18.50   10.80
   9  10  -9   15.80   15.30
   9  10  -9   64.59   25.70
   8 -10  -9  201.98   27.50
   8  10  -9  177.58   39.10
   8  10  -9  240.58   37.90
   7 -10  -9  142.69   23.20
   7  10  -9  205.18   33.00
   7  10  -9  106.09   29.00
  -7  10   9  147.79   14.50
  -7  10   9  156.98   16.30
   6 -10  -9  153.08   29.50
  -6  10   9  134.99   16.20
   6  10  -9  113.69   31.60
  -6  10   9  170.48   19.60
   6  10  -9  160.88   34.70
   5 -10  -9  137.99   28.60
   5  10  -9  175.98   27.70
  -5  10   9  113.29   21.90
   4 -10  -9   32.50   14.60
   4  10  -9   16.70   11.00
   4  10  -9    6.60    9.70
  -4  10   9   39.80   14.40
  -4  10   9   25.50   11.10
   3 -10  -9   28.50   13.40
   3  10  -9   -3.70    7.00
  -3  10   9    4.20    6.40
   3  10  -9   -2.40    6.40
  -3  10   9   10.40    8.60
  -2 -10   9 1198.38   58.19
   2  10  -9 1129.89   68.89
  -2  10   9 1205.08   60.79
   2  10  -9 1076.29   59.59
  -1 -10   9  100.89   15.50
   1  10  -9   83.69   23.60
  -1  10   9   76.09   19.40
   0 -10   9   17.90    7.20
   0  10  -9   33.80   15.50
   0  10   9   15.80    9.40
   0  10  -9   40.50   11.60
  -1  10  -9   59.29   12.70
   1  10   9   95.59   22.60
  -1  10  -9   69.49   20.20
   2 -10   9    8.40    8.40
  -2  10  -9    6.40    9.20
  -2  10  -9    4.40    3.80
   2  10   9   17.00   11.50
   3 -10   9    4.70    5.80
   3  10   9    3.20    7.60
  -3  10  -9   11.30    9.20
   3  10   9   44.20   18.10
   4 -10   9   53.09   15.10
   4  10   9   28.70   13.20
  -4  10  -9   47.00   15.30
   4  10   9   25.50   13.00
   5 -10   9  151.78   17.40
  -5  10  -9  161.78   21.00
   5  10   9  192.78   28.30
   5  10   9  200.08   30.40
   6 -10   9   80.39   11.70
  -6  10  -9   65.89   15.10
   6  10   9   80.09   22.20
   6  10   9   84.79   23.60
   7  10   9   17.00   12.50
  -7  10  -9    5.30    4.00
   7  10   9    2.30    8.20
   8  10   9    0.30    9.20
   8  10   9   -5.70    4.60
   9  10   9   -4.60    6.20
   9  10   9   -1.20    6.10
   9 -11  -9   31.90   15.00
   9  11  -9    8.30   17.20
   9  11  -9   57.99   26.70
   8 -11  -9   -0.30    5.40
   8  11  -9   13.40   15.80
   8  11  -9   -6.00    7.00
   7 -11  -9   37.00   15.40
   7  11  -9   23.50   15.00
  -7  11   9   30.00    8.30
   7  11  -9   51.49   23.50
   6 -11  -9  122.19   25.30
  -6  11   9  101.89   16.60
  -6  11   9  107.29   14.90
   6  11  -9  155.08   37.30
   6  11  -9   84.59   26.10
   5 -11  -9   44.10   15.40
   5  11  -9   12.40   14.40
  -5  11   9   34.40   13.70
  -5  11   9   15.70    7.70
   5  11  -9    9.60   12.60
   4 -11  -9  197.38   26.00
   4  11  -9  158.88   37.10
  -4  11   9  128.99   25.50
   4  11  -9  137.29   30.90
  -4  11   9  120.79   18.00
   3  11  -9   45.80   16.80
  -3  11   9   42.60   13.70
   3  11  -9   80.59   24.80
  -2  11   9   10.40    8.50
   2  11  -9   39.10   14.10
   2  11  -9   54.99   19.00
  -1 -11   9   46.10   13.50
   1  11  -9   35.80   16.60
   1  11  -9   20.90   11.60
  -1  11   9   21.20   11.20
   0  11  -9   40.50   12.60
   0  11   9   39.20   15.60
   0  11  -9   99.79   24.60
   1  11   9   43.10   16.40
  -1  11  -9   29.20   13.70
  -1  11  -9   40.60   11.20
   2  11   9  327.87   35.60
  -2  11  -9  279.17   16.40
  -2  11  -9  339.07   17.70
  -2  11  -9  301.07   32.10
  -3  11  -9   58.69   19.80
   3  11   9  104.79   26.80
   3  11   9   49.30   16.30
   4 -11   9  170.18   20.20
   4  11   9  243.88   31.50
   4  11   9  129.99   27.60
  -4  11  -9  160.68   22.00
   5 -11   9  122.59   17.30
   5  11   9  159.38   34.20
   5  11   9  101.19   23.90
   6 -11   9   84.79   12.40
  -6  11  -9   99.49   15.20
   6  11   9  100.29   25.50
   6  11   9   45.30   17.80
   7  11   9    1.20    6.60
   7  11   9   20.40   14.50
  -7  11  -9   22.40    6.70
   8  11   9   29.10   16.50
   8  11   9   36.20   19.40
   9  11   9   51.89   23.00
   9  11   9   77.49   32.20
   8 -12  -9   17.20   11.90
   8  12  -9   29.30   21.10
   8  12  -9   27.40   19.40
   7 -12  -9  115.89   25.40
   7  12  -9  129.19   34.60
  -7  12   9  146.69   15.00
   7  12  -9  114.69   31.80
   6 -12  -9   18.60   12.20
  -6  12   9    6.00    7.40
   6  12  -9    0.70   10.40
   6  12  -9   -3.10    7.10
   5  12  -9   -4.60    7.20
  -5  12   9   17.80   11.20
   5  12  -9   10.90   12.30
  -5  12   9    8.80    6.10
   4  12  -9   28.90   16.20
  -4  12   9  107.59   21.50
   4  12  -9   62.39   23.20
   3  12  -9    7.60    8.70
   3  12  -9   17.60   15.50
  -3  12   9   -1.90    3.70
   2  12  -9   -2.00    5.60
  -2  12   9    8.40    8.70
   2  12  -9   -6.30    7.80
   1  12  -9  112.39   22.10
  -1  12   9  118.09   24.70
   1  12  -9   97.69   26.70
   0  12  -9  104.29   27.00
   0  12   9   98.09   25.00
   0  12  -9   77.89   17.40
  -1  12  -9   92.99   13.50
  -1  12  -9   73.79   20.90
   1  12   9   79.29   22.50
  -2  12  -9    4.90    3.70
   2  12   9   15.00    9.90
  -2  12  -9   -7.30    4.30
  -2  12  -9    5.50    3.40
   2  12   9    1.40    6.10
  -3  12  -9   30.10   15.20
   3  12   9   22.20   11.50
   3  12   9   32.20   15.00
  -4  12  -9   27.10   12.80
   4  12   9   36.10   16.50
   4  12   9   26.80   15.00
   5 -12   9   50.09   14.30
  -5  12  -9  109.39   18.00
   5  12   9  106.29   28.90
   5  12   9   93.29   27.80
   6  12   9   14.20   11.20
  -6  12  -9   12.80    8.50
   6  12   9   27.90   15.60
   7  12   9   19.20   15.10
   7  12   9   42.10   20.00
   8  12   9   -3.80    7.30
   8  12   9    9.60   15.70
   7  13  -9   13.40   17.60
   7  13  -9   26.80   23.90
  -6  13   9   96.99   18.90
   6  13  -9  125.59   34.50
   6  13  -9  155.58   40.60
  -5  13   9   17.20   10.70
   5  13  -9    8.50   13.80
   5  13  -9    5.60   11.20
  -4  13   9   65.89   18.50
   4  13  -9   46.00   22.30
   3  13  -9   -0.20    5.70
  -3  13   9   -0.40    4.50
   3  13  -9    5.50   11.70
  -2  13   9  141.49   22.80
   2  13  -9  149.88   29.50
   2  13  -9  156.18   34.40
   1  13  -9    9.80   12.10
   1  13  -9   20.50   12.20
  -1  13   9    5.80    7.80
   0  13  -9   54.89   14.80
   0  13   9   47.60   26.80
   0  13  -9   19.80   14.40
   1  13   9   25.20   14.20
   1  13   9   33.10   18.10
  -1  13  -9   37.20   11.00
  -1  13  -9   16.80   13.70
  -1  13  -9   55.89   13.30
  -2  13  -9  193.28   28.30
   2  13   9  122.49   29.80
   2  13   9  132.59   31.90
  -2  13  -9  151.08    9.60
   3  13   9   42.10   17.50
   3  13   9    9.60   11.90
  -3  13  -9   17.10   11.40
   4  13   9   71.19   22.70
  -4  13  -9   59.49   17.90
   4  13   9   72.19   21.50
  -5  13  -9   18.00   10.60
   5  13   9   35.90   16.90
   5  13   9   12.40   12.20
   6  13   9    0.20    8.30
  -6  13  -9    0.60    4.80
   6  13   9   15.30   14.50
   7  13   9   21.00   15.30
   7  13   9    6.10   10.30
   6  14  -9   13.90   17.00
  -6  14   9   -2.20    4.80
   6  14  -9   34.50   24.20
   5  14  -9   -5.90    6.10
   5  14  -9   -0.10    9.30
  -5  14   9    1.00    7.10
   4  14  -9   -0.70    6.50
  -4  14   9    1.70    5.70
   4  14  -9    6.10   10.40
   3  14  -9   42.40   19.10
  -3  14   9   57.49   18.70
   3  14  -9   93.59   25.50
   2  14  -9    0.40    5.60
   2  14  -9   -6.00    7.60
  -2  14   9    8.70    8.80
   1  14  -9   65.79   24.70
   1  14  -9   81.89   20.40
  -1  14   9   71.99   20.00
   0  14  -9   36.70   18.60
   0  14   9   13.90    9.80
   0  14  -9   52.89   14.60
   0  14   9   29.90   15.60
  -1  14  -9    0.80    4.50
  -1  14  -9   -2.20    6.80
   1  14   9    3.50    7.70
  -1  14  -9    0.80    7.70
   1  14   9   -2.80    7.70
   2  14   9   21.80   11.80
   2  14   9   22.20   14.10
  -2  14  -9   22.70   13.70
   3  14   9    8.50    8.90
   3  14   9   13.30   12.90
  -3  14  -9   31.50   15.60
   4  14   9    3.20    8.50
  -4  14  -9    2.90    7.70
   4  14   9   -0.90    5.60
   5  14   9   58.99   20.90
  -5  14  -9   18.00   10.90
   5  14   9   73.39   29.10
   6  14   9   11.50   13.40
   6  14   9    6.40    9.60
  -5  15   9   18.60   11.30
   5  15  -9   42.80   19.90
   5  15  -9  110.29   35.50
  -4  15   9   74.69   20.80
   4  15  -9  146.19   32.90
   4  15  -9   79.29   28.20
   3  15  -9   -5.60    6.20
  -3  15   9    1.60    7.20
   3  15  -9    6.80    9.60
  -2  15   9  107.89   26.90
   2  15  -9  144.99   34.10
   2  15  -9  148.09   31.20
  -1  15   9    8.00    9.40
   1  15  -9   20.10   12.70
  -1  15   9    5.70    8.10
   1  15  -9   -8.50    6.10
   0  15  -9    0.30    7.90
   0  15  -9   12.50    7.60
   0  15   9   -2.90    5.00
   0  15   9    2.20    7.00
  -1  15  -9   -0.70    8.50
   1  15   9    3.40   11.20
  -1  15  -9   14.20    7.10
   1  15   9   11.80   12.00
   2  15   9   43.90   22.00
  -2  15  -9   50.29   22.70
   2  15   9   14.00   12.10
  -3  15  -9   52.29   21.40
   3  15   9   66.29   24.90
   3  15   9   55.09   22.00
  -4  15  -9   44.70   18.80
   4  15   9  104.79   30.70
  -2  16   9    3.50    7.90
   2  16  -9   34.60   20.00
   2  16  -9   19.60   15.40
  -2  16   9    3.30    7.60
  -1  16   9   -2.50    5.10
   1  16  -9   16.60   14.70
   1  16  -9   10.80    9.90
  -1  16   9    9.30    8.50
   0  16  -9   -4.10    7.30
   0  16  -9    7.30    8.10
   0  16   9   13.20   12.40
   0  16   9    2.90    8.80
   1  16   9   12.30    9.90
   1  16   9   13.30   12.80
  -1  16  -9   -8.10    6.50
   2  16   9   32.40   17.90
   2  16   9   33.90   16.80
  -2  16  -9   28.20   16.40
  12   0 -10   25.10   13.20
  12   0 -10   34.40   19.40
  11   0 -10    7.20    7.60
  11   0 -10    5.40    9.80
  10   0 -10    7.10    7.70
  10   0 -10   14.60   15.10
   9   0 -10    1.50    6.70
   9   0 -10    5.10   10.90
  -9   0  10    8.70    7.80
   8   0 -10 1271.27   65.49
  -8   0  10 1311.67   61.89
   8   0 -10 1362.06   78.29
   7   0 -10    1.40    9.50
  -7   0  10   -2.70    3.90
   7   0 -10   -4.20    4.10
   6   0 -10 1496.55   75.49
  -6   0  10 1369.06   62.49
   6   0 -10 1402.56   66.69
   5   0 -10    6.90    6.60
  -5   0  10   -1.60    4.10
   5   0 -10    0.50    6.50
  -5   0  10   -4.10    3.10
  -4   0  10  824.82   56.39
  -4   0  10  865.51   45.00
   4   0 -10  741.03   44.80
   4   0 -10  728.73   47.70
  -3   0  10   -4.70    2.00
  -3   0  10   -4.70    2.50
   3   0 -10    2.30    5.30
   3   0 -10   -0.30    3.50
   2   0 -10  117.99   17.00
  -2   0  10   95.59   15.00
   2   0 -10   52.69   12.10
  -2   0  10   98.69   15.00
   1   0 -10    2.30    5.10
  -1   0  10   -4.30    2.40
  -1   0  10   -0.90    4.90
   1   0 -10   -4.90    2.60
   0   0  10 4821.12  148.79
   0   0 -10 4758.02  149.88
   0   0 -10 4790.02  146.59
   0   0  10 4871.11  146.29
   1   0  10    3.00    5.40
  -1   0 -10   -3.20    2.90
   1   0  10   -4.20    3.30
  -1   0 -10   -4.60    3.20
   2   0  10  825.62   42.90
  -2   0 -10  765.72   44.60
   2   0  10  823.72   45.80
  -2   0 -10  801.32   42.80
  -3   0 -10    2.70    4.80
   3   0  10   -3.20    2.80
  -3   0 -10   -2.30    3.30
   3   0  10    1.70    4.30
   4   0  10   30.30   12.00
  -4   0 -10   45.90   14.60
   4   0  10   15.50    8.60
  -5   0 -10   -4.70    2.70
   5   0  10   -0.10    3.30
   5   0  10   -3.90    2.90
   6   0  10  619.04   41.10
   6   0  10  592.24   41.70
   6   0  10  646.94   38.30
  -7   0 -10   11.70    8.00
   7   0  10   -2.10    3.70
   7   0  10    2.80    5.80
   7   0  10    0.40    4.30
   8   0  10  205.38   23.50
   8   0  10  170.08   20.50
   8   0  10  162.58   22.70
   9   0  10    8.10    8.50
   9   0  10   12.30   10.50
   9   0  10   12.70    9.30
  10   0  10   35.70   15.90
  10   0  10   37.70   13.00
  11   0  10    5.40    8.90
  11   0  10    1.80    5.30
  12   0  10   77.99   21.90
  12   0  10   64.99   17.70
  12  -1 -10   36.70   13.30
  12  -1 -10   18.10   13.90
  12   1 -10    0.20    6.00
  12   1 -10   36.40   21.10
  11  -1 -10  219.48   35.50
  11  -1 -10  271.27   28.20
  11   1 -10  217.48   28.80
  11   1 -10  308.17   42.20
  10  -1 -10   54.49   16.40
  10  -1 -10   30.20   16.20
  10   1 -10   65.39   19.80
 -10   1  10   37.50   12.20
  10   1 -10   97.39   27.80
   9  -1 -10   41.40   16.70
   9  -1 -10   43.80   13.60
  -9   1  10   65.79   15.50
   9   1 -10   49.00   18.60
   9   1 -10   43.20   15.70
   8  -1 -10  109.39   27.60
   8  -1 -10   63.29   21.20
  -8  -1  10   78.69   18.40
  -8   1  10   76.99   25.40
   8   1 -10  133.59   21.70
   8   1 -10   84.39   22.70
   7  -1 -10   16.00   12.70
  -7  -1  10    8.30    7.00
   7  -1 -10    1.50    6.40
   7   1 -10   12.90   11.90
  -7   1  10    2.00    4.10
   7   1 -10   -3.30    4.60
   6  -1 -10  121.09   18.00
  -6  -1  10  104.69   16.50
   6  -1 -10  105.19   21.70
   6   1 -10  126.69   24.70
   6   1 -10   57.09   15.90
  -6   1  10  122.39   16.70
   5  -1 -10   81.99   19.00
  -5  -1  10  117.09   17.20
  -5  -1  10   37.50   13.30
   5  -1 -10   98.89   16.10
  -5   1  10   68.59   18.10
   5   1 -10   92.29   21.20
   5   1 -10   71.19   18.40
  -5   1  10   99.39   19.50
  -4  -1  10   26.20   11.90
   4  -1 -10   11.90    9.60
  -4  -1  10   22.90    9.10
   4  -1 -10   14.60    7.80
   4   1 -10   40.70   13.10
   4   1 -10   28.20   12.80
  -4   1  10   26.00   10.80
  -3  -1  10  265.37   24.20
  -3  -1  10  270.07   25.00
   3  -1 -10  253.77   25.60
   3  -1 -10  255.37   24.50
   3   1 -10  273.77   26.00
  -3   1  10  282.97   24.50
   3   1 -10  266.27   26.20
  -2  -1  10    9.60    6.90
  -2  -1  10    3.40    4.20
   2  -1 -10    9.50    7.40
   2  -1 -10    2.10    5.00
   2   1 -10    7.90    5.90
   2   1 -10    2.70    6.60
  -2   1  10   18.70    8.80
  -2   1  10   21.80    9.10
  -1  -1  10   35.80   10.10
  -1  -1  10   21.00    8.90
   1  -1 -10   22.10   10.10
   1  -1 -10   36.30   12.20
  -1   1  10   16.70    8.30
   1   1 -10   17.50    9.00
  -1   1  10   56.59   14.50
   1   1 -10   10.00    8.20
   0  -1 -10   15.30    8.90
   0  -1  10   14.00    7.90
   0  -1 -10   10.20    6.90
   0  -1  10    7.80    6.90
   0   1  10    5.00    5.50
   0   1 -10    2.90    4.90
   0   1 -10   11.80    8.20
   0   1  10   -2.30    3.40
   1  -1  10   54.19   13.70
   1  -1  10   53.89   11.80
  -1  -1 -10   78.79   17.30
  -1  -1 -10   54.79   15.40
  -1   1 -10   24.80   10.10
   1   1  10   56.99   15.20
  -1   1 -10   34.00   10.90
   1   1  10   39.80   11.70
  -2  -1 -10  444.36   33.40
   2  -1  10  403.96   30.40
  -2  -1 -10  444.56   31.50
   2  -1  10  424.16   28.30
   2   1  10  453.95   31.30
  -2   1 -10  433.06   29.00
   2   1  10  411.36   31.70
  -2   1 -10  411.36   31.10
  -3  -1 -10  263.37   26.30
   3  -1  10  269.97   22.60
   3  -1  10  286.37   25.60
   3   1  10  322.37   28.20
   3   1  10  298.87   26.10
  -3   1 -10  288.57   26.00
  -3   1 -10  287.17   23.20
   4  -1  10  392.46   30.40
  -4  -1 -10  346.67   31.10
   4  -1  10  319.27   25.20
   4   1  10  324.07   28.30
   4   1  10  346.77   30.40
  -4   1 -10  372.06   29.90
   5  -1  10  384.96   30.90
   5  -1  10  396.86   29.40
   5   1  10  363.56   30.90
   5   1  10  378.46   38.20
  -5   1 -10  323.67   28.90
   6  -1  10   15.20    9.00
  -6  -1 -10   24.80   12.30
   6  -1  10   44.40   12.00
   6   1  10   44.70   14.30
   6   1  10   38.80   12.30
  -6   1 -10   46.30   14.40
   6   1  10   45.80   15.70
   7  -1  10   85.99   19.20
   7  -1  10  100.39   20.20
   7  -1  10   81.39   18.50
  -7  -1 -10  109.89   23.10
   7   1  10   88.09   20.70
   7   1  10   98.29   22.00
   7   1  10   85.49   18.80
  -7   1 -10   72.99   18.00
   8  -1  10    4.60    6.30
   8  -1  10    9.20    8.80
   8  -1  10    0.70    4.50
   8   1  10    1.90    5.20
  -8   1 -10   -1.50    5.60
   8   1  10   -0.40    5.40
   9  -1  10   25.00   11.30
   9  -1  10    9.50    6.50
   9  -1  10   10.70    7.00
   9   1  10   23.40   10.60
   9   1  10   21.70   12.50
  10  -1  10   -4.70    3.90
  10  -1  10    2.00    4.70
  10  -1  10    5.10    7.30
  10   1  10    1.60    5.80
  10   1  10    6.70    7.80
  11  -1  10  264.67   30.10
  11  -1  10  228.88   23.20
  11   1  10  277.57   28.60
  11   1  10  169.58   44.60
  12  -1  10   32.40   15.60
  12  -1  10   26.50   11.00
  12   1  10   24.10   11.50
  12   1  10   38.30   17.20
  12  -2 -10   58.19   14.90
  12  -2 -10   57.19   23.00
  12   2 -10   45.80   17.10
  12   2 -10   43.20   26.10
  11  -2 -10   23.60   15.40
  11  -2 -10   53.49   21.70
  11   2 -10   41.20   17.00
  11   2 -10   50.89   23.60
  10  -2 -10   14.70    9.00
  10   2 -10   11.00   12.00
  10   2 -10   33.40   15.40
 -10   2  10   13.70   11.40
   9  -2 -10   65.39   15.80
   9  -2 -10   37.20   15.90
  -9   2  10   54.89   13.90
   9   2 -10   64.99   22.60
   9   2 -10   57.59   19.10
   8  -2 -10   99.69   21.00
   8  -2 -10   85.49   24.00
   8   2 -10   35.80   17.90
  -8   2  10   80.79   16.50
   8   2 -10   62.29   19.00
  -7  -2  10   66.39   16.70
   7  -2 -10  103.09   20.70
   7  -2 -10   70.29   21.20
  -7   2  10   91.69   14.40
   7   2 -10  102.29   24.10
   7   2 -10   61.59   18.20
  -6  -2  10 1456.75   67.09
   6  -2 -10 1271.57   70.79
   6  -2 -10 1455.95   64.99
   6   2 -10 1413.96   75.59
   6   2 -10 1575.64   73.29
  -6   2  10 1411.96   61.99
  -5  -2  10  403.36   33.70
   5  -2 -10  320.37   28.30
   5  -2 -10  409.76   35.50
  -5  -2  10  415.66   31.60
   5   2 -10  443.96   37.90
  -5   2  10  379.36   32.70
   5   2 -10  368.76   33.00
  -5   2  10  421.26   30.00
   4  -2 -10  196.58   21.50
   4  -2 -10  232.28   25.50
  -4  -2  10  262.77   25.80
  -4  -2  10  175.68   20.70
  -4   2  10  197.08   27.20
   4   2 -10  249.28   26.30
   4   2 -10  259.07   27.30
  -4   2  10  209.98   21.20
  -3  -2  10  222.18   22.30
  -3  -2  10  244.88   23.70
   3  -2 -10  241.38   25.10
   3  -2 -10  228.88   23.20
  -3   2  10  215.38   21.70
  -3   2  10  186.08   21.70
   3   2 -10  181.38   21.90
   3   2 -10  197.08   23.00
   2  -2 -10  123.79   17.30
  -2  -2  10  134.69   17.10
   2  -2 -10   72.29   16.10
   2   2 -10  102.29   21.20
   2   2 -10  114.89   23.00
  -2   2  10  116.39   16.40
  -2   2  10  118.59   17.10
  -1  -2  10  438.16   29.60
   1  -2 -10  403.96   31.30
  -1  -2  10  462.65   32.30
  -1   2  10  454.05   32.70
   1   2 -10  493.55   32.10
  -1   2  10  473.15   33.20
   0  -2  10 3222.18  107.19
   0  -2 -10 3511.45  116.89
   0  -2 -10 3438.86  116.89
   0  -2  10 3370.16  112.69
   0   2 -10 3285.37  114.49
   0   2  10 3424.86  115.19
   0   2  10 3405.56  115.39
   0   2 -10 3391.76  109.29
   1  -2  10    2.00    4.10
  -1  -2 -10   -0.90    3.20
  -1  -2 -10   -2.30    4.80
   1  -2  10    0.10    4.00
  -1   2 -10   -1.30    4.30
  -1   2 -10   -0.70    3.60
   1   2  10   -1.60    2.50
   1   2  10    2.10    4.30
   2  -2  10  502.65   29.40
  -2  -2 -10  489.05   34.60
   2  -2  10  438.26   31.80
  -2  -2 -10  469.15   35.50
   2   2  10  492.45   34.30
  -2   2 -10  531.65   30.50
   2   2  10  439.26   33.90
  -2   2 -10  460.95   32.90
   3  -2  10   23.30    9.70
  -3  -2 -10    1.80    4.60
   3  -2  10   -0.60    2.70
  -3   2 -10    7.60    5.70
   3   2  10   11.50    7.40
  -3   2 -10   12.40    7.60
   3   2  10   10.20    7.50
   4  -2  10   47.90   11.40
  -4  -2 -10   59.79   21.30
   4  -2  10   45.90   13.60
  -4   2 -10   53.09   15.20
   4   2  10   61.39   20.50
   4   2  10   44.70   14.30
   5  -2  10  130.09   17.70
  -5  -2 -10  148.29   21.40
   5  -2  10  108.79   14.50
  -5   2 -10  148.29   19.10
   5   2  10  121.09   19.30
   5   2  10  153.88   21.20
   6  -2  10  146.19   15.80
   6  -2  10  132.59   17.90
  -6  -2 -10  170.68   23.60
   6  -2  10  139.59   17.60
   6   2  10  125.99   20.50
   6   2  10  119.99   18.00
   6   2  10   74.29   18.70
  -6   2 -10  104.39   20.00
  -7  -2 -10  189.88   26.20
   7  -2  10  226.08   20.90
   7  -2  10  196.98   22.00
   7  -2  10  237.48   23.40
   7   2  10  208.98   24.60
  -7   2 -10  215.58   23.30
   8  -2  10  228.48   24.20
   8  -2  10  183.28   20.20
   8  -2  10  163.18   20.40
   8   2  10  148.49   21.60
   8   2  10  174.28   23.70
  -8   2 -10  201.38   22.50
   9  -2  10   17.70    7.60
   9  -2  10   12.50    9.10
   9  -2  10    3.90    6.50
   9  -2  10    7.30    7.50
   9   2  10   12.50    9.20
   9   2  10    9.60    9.10
  10  -2  10   14.80    8.40
  10  -2  10    4.10    5.00
  10  -2  10   14.60   10.80
  10   2  10    4.30    6.90
  10   2  10   15.10   11.20
  11  -2  10    4.20    8.30
  11  -2  10    4.10    4.60
  11   2  10   -0.10    7.80
  11   2  10    4.70    6.10
  12  -2  10   40.70   16.00
  12   2  10   32.70   16.00
  12   2  10   44.90   16.00
  12  -3 -10  106.79   30.60
  12   3 -10  106.69   26.00
  12   3 -10  147.89   37.70
  11  -3 -10  164.18   34.60
  11  -3 -10  158.08   18.00
  11   3 -10  219.78   31.20
  11   3 -10  162.88   35.20
  10  -3 -10   73.59   16.10
  10  -3 -10   54.29   24.00
  10   3 -10  100.99   26.20
 -10   3  10   78.09   15.30
  10   3 -10   63.89   22.50
   9  -3 -10   14.10   11.50
   9  -3 -10   20.60   10.20
  -9   3  10   18.70    8.40
   9   3 -10   26.50   15.20
   9   3 -10    7.70   10.20
   8  -3 -10  341.57   37.10
   8  -3 -10  322.17   27.30
  -8   3  10  249.97   22.60
   8   3 -10  282.47   35.90
   8   3 -10  281.97   32.20
   7  -3 -10   14.80   11.30
   7  -3 -10   21.60    9.40
  -7   3  10   20.30    8.60
   7   3 -10   19.10   11.50
   7   3 -10   17.00   11.90
  -6  -3  10   17.80    9.80
   6  -3 -10   18.10   10.00
   6  -3 -10   42.60   15.60
   6   3 -10   26.10   12.30
  -6   3  10   41.50   12.00
   6   3 -10   30.40   15.00
   5  -3 -10   95.99   15.70
   5  -3 -10  120.39   25.20
  -5  -3  10  101.79   16.90
  -5   3  10   89.39   17.10
  -5   3  10  120.09   18.80
   5   3 -10  157.88   23.30
   5   3 -10  126.29   26.20
   4  -3 -10  333.17   31.50
  -4  -3  10  364.26   30.90
   4  -3 -10  430.06   31.50
  -4  -3  10  382.06   30.80
  -4   3  10  365.46   28.70
  -4   3  10  374.36   32.00
   4   3 -10  383.96   33.00
   4   3 -10  417.16   35.00
  -3  -3  10  800.02   45.40
  -3  -3  10  793.32   45.70
   3  -3 -10  819.02   45.70
   3  -3 -10  742.63   46.90
   3   3 -10  913.01   57.29
  -3   3  10  775.52   46.50
   3   3 -10  808.32   47.90
  -3   3  10  907.31   46.40
  -2  -3  10   40.20   11.00
  -2  -3  10   23.40    9.80
   2  -3 -10   24.60    9.50
   2  -3 -10   22.90    9.60
  -2   3  10   32.80   11.70
   2   3 -10   31.70   12.60
   2   3 -10   26.80    9.90
  -2   3  10   24.30   11.00
   1  -3 -10   16.20    8.80
  -1  -3  10    4.30    5.90
   1  -3 -10   -0.20    4.10
  -1  -3  10   -0.80    4.10
  -1   3  10   10.20    6.70
  -1   3  10   11.40    7.90
   1   3 -10    4.90    5.60
   1   3 -10   -2.50    3.80
   0  -3  10 1129.49   53.89
   0  -3 -10 1151.18   56.89
   0  -3  10 1060.89   47.40
   0  -3 -10 1106.59   55.39
   0   3 -10 1071.99   48.90
   0   3 -10 1003.60   52.99
   0   3  10  988.10   53.19
   0   3  10 1154.18   56.59
   1  -3  10   86.19   12.10
   1  -3  10   98.49   18.90
  -1  -3 -10   51.99   14.90
  -1  -3 -10  111.59   23.10
   1   3  10  120.69   17.30
   1   3  10   99.19   21.10
  -1   3 -10   89.29   12.60
  -1   3 -10  109.59   20.80
   2  -3  10  257.27   19.70
  -2  -3 -10  241.58   24.90
  -2  -3 -10  260.67   26.80
   2  -3  10  293.57   24.80
  -2   3 -10  296.57   25.70
  -2   3 -10  257.77   20.40
   2   3  10  244.78   25.20
   2   3  10  260.47   26.40
   3  -3  10  265.67   23.80
  -3  -3 -10  223.18   27.70
   3  -3  10  236.78   18.80
  -3   3 -10  276.17   20.30
  -3   3 -10  263.57   24.60
   3   3  10  305.57   29.30
   4  -3  10  160.48   18.70
  -4  -3 -10  158.58   22.60
   4  -3  10  204.08   17.40
  -4   3 -10  212.18   22.00
   4   3  10  141.59   21.10
   4   3  10  212.28   24.40
   5  -3  10  194.78   20.70
   5  -3  10  209.88   18.20
  -5  -3 -10  173.88   24.60
   5  -3  10  203.58   16.50
  -5   3 -10  176.18   20.30
   5   3  10  195.58   25.00
   5   3  10  196.58   25.00
   6  -3  10  104.79   13.90
  -6  -3 -10   82.39   21.60
   6  -3  10  115.39   13.30
   6  -3  10  124.79   17.10
  -6   3 -10   97.89   16.00
   6   3  10  118.69   18.60
   7  -3  10    3.90    4.50
  -7  -3 -10    0.20    5.30
   7  -3  10    3.40    4.80
   7  -3  10    0.00    4.60
  -7   3 -10    4.60    5.40
   7   3  10    0.20    4.70
   7   3  10    2.40    6.60
   8  -3  10    1.10    5.20
   8  -3  10    8.00    5.60
   8  -3  10   -3.70    3.30
   8   3  10    7.10    7.80
  -8   3 -10   19.50    9.30
   8   3  10    2.70    6.20
   9  -3  10   43.00   14.30
   9  -3  10   31.60    9.80
   9  -3  10   46.60   12.30
   9  -3  10   54.69   13.70
   9   3  10   34.20   15.80
   9   3  10   51.79   16.90
  10  -3  10  129.19   16.20
  10  -3  10  140.69   14.90
  10  -3  10  116.39   17.60
  10  -3  10  124.99   19.80
  10   3  10  159.48   24.20
  10   3  10  154.68   31.90
  11  -3  10   46.60   14.00
  11  -3  10   61.89   11.70
  11   3  10   54.29   20.70
  11   3  10   55.19   18.20
  12  -4 -10   70.09   24.50
  12   4 -10   78.39   23.90
  11  -4 -10   28.10   14.40
  11  -4 -10   58.69    9.20
  11   4 -10   83.99   28.90
  11   4 -10   52.19   20.60
  10  -4 -10    0.60    3.60
  10  -4 -10    8.70    8.90
  10   4 -10   -9.20    5.60
  10   4 -10  -10.00    5.40
 -10   4  10    7.10    5.00
   9  -4 -10   33.80   17.50
   9  -4 -10   36.90   11.70
  -9   4  10   25.70    8.00
   9   4 -10   29.00   15.10
   9   4 -10   17.30   15.50
   8  -4 -10  130.99   28.70
   8  -4 -10  106.19   15.60
   8   4 -10  124.29   28.00
  -8   4  10   78.89   15.20
   8   4 -10  128.39   32.70
   7  -4 -10  371.66   29.00
   7  -4 -10  392.36   37.80
  -7   4  10  387.46   28.00
   7   4 -10  385.56   37.70
   7   4 -10  375.36   39.30
   6  -4 -10  435.36   31.60
   6  -4 -10  377.66   36.20
   6   4 -10  423.06   39.40
  -6   4  10  382.46   28.30
   6   4 -10  435.26   38.80
   5  -4 -10  492.55   39.20
  -5  -4  10  553.34   44.50
   5  -4 -10  482.25   33.60
  -5   4  10  409.86   35.00
   5   4 -10  501.75   40.30
   5   4 -10  498.35   40.70
  -5   4  10  428.56   30.80
  -4  -4  10  861.91   50.29
   4  -4 -10  949.21   49.40
  -4  -4  10  874.51   50.29
   4  -4 -10  900.11   53.59
   4   4 -10  919.81   53.39
  -4   4  10  852.71   46.40
   4   4 -10  902.31   53.69
  -4   4  10  889.61   51.99
  -3  -4  10    1.30    5.30
  -3  -4  10   -5.40    2.40
   3  -4 -10    5.40    6.60
   3   4 -10    2.70    7.40
  -3   4  10   10.60    6.60
  -3   4  10    2.90    5.30
   2  -4 -10   45.80   13.60
   2  -4 -10   43.70   14.20
  -2  -4  10   52.89   15.00
  -2  -4  10   72.19   17.00
  -2   4  10   28.80   10.10
  -2   4  10   49.30   14.10
   2   4 -10   42.90   13.50
   1  -4 -10   52.29   13.60
  -1  -4  10   77.19   17.20
  -1  -4  10   82.49   16.50
   1  -4 -10   56.69   15.60
   1   4 -10   69.29   14.10
   1   4 -10   43.90   13.70
  -1   4  10   69.19   17.50
  -1   4  10   71.49   18.00
   0  -4  10  483.65   29.10
   0  -4 -10  431.46   34.20
   0  -4 -10  456.25   35.10
   0  -4  10  422.06   31.40
   0   4 -10  441.36   33.80
   0   4 -10  458.45   29.40
   0   4  10  463.75   34.90
   0   4  10  473.95   35.40
  -1  -4 -10 1221.78   63.49
  -1  -4 -10 1359.06   64.99
   1  -4  10 1278.37   50.79
   1  -4  10 1301.27   58.59
   1   4  10 1295.97   63.29
   1   4  10 1224.68   62.49
  -1   4 -10 1296.57   60.99
  -1   4 -10 1261.17   52.09
   2  -4  10 1297.97   58.89
  -2  -4 -10 1211.68   64.79
   2  -4  10 1319.67   50.09
  -2  -4 -10 1375.36   66.79
   2   4  10 1309.07   74.19
  -2   4 -10 1297.07   51.19
  -2   4 -10 1388.76   62.49
   3  -4  10   48.40   12.80
  -3  -4 -10   18.40   11.50
   3   4  10   21.50    9.10
  -3   4 -10   19.10    7.00
   3   4  10   38.80   13.30
  -3   4 -10   35.80   12.60
  -4  -4 -10   -6.40    3.60
   4  -4  10    0.30    3.60
   4  -4  10   -0.10    4.70
   4   4  10    1.10    5.30
  -4   4 -10    4.20    5.90
   4   4  10   -0.80    5.00
   5  -4  10   66.19   14.80
   5  -4  10   81.09    9.40
  -5  -4 -10  116.59   26.10
  -5   4 -10   87.09   17.60
   6  -4  10  543.85   27.00
   6  -4  10  564.04   29.60
   6  -4  10  588.24   35.00
  -6  -4 -10  608.84   47.80
  -6   4 -10  586.84   36.80
   6   4  10  540.75   40.70
   7  -4  10  576.64   29.20
   7  -4  10  603.84   31.80
   7  -4  10  565.54   34.10
   7   4  10  583.44   43.50
  -7   4 -10  594.54   36.50
   7   4  10  626.44   45.70
   8  -4  10   44.20   10.20
   8  -4  10   47.50   11.80
   8  -4  10   59.19   12.70
   8   4  10   23.60   12.40
   8   4  10   58.79   19.40
  -8   4 -10   45.10   12.10
   9  -4  10  155.08   16.50
   9  -4  10  119.99   15.70
   9  -4  10  130.89   13.70
   9  -4  10  126.39   14.90
   9   4  10  112.79   25.00
   9   4  10   86.69   26.20
  10  -4  10   28.80   11.20
  10  -4  10   30.00    7.70
  10  -4  10   21.10    7.20
  10  -4  10   34.40   10.90
  10   4  10   48.20   17.10
  10   4  10   25.80   15.40
  11  -4  10   33.40   12.30
  11   4  10   44.10   20.50
  11   4  10   12.80   11.50
  12  -5 -10   15.00   13.10
  12   5 -10   37.40   23.60
  12   5 -10  100.69   31.30
  11  -5 -10   26.00   15.50
  11   5 -10   55.59   26.50
  11   5 -10   13.50   11.20
  10  -5 -10  245.68   17.20
  10  -5 -10  273.37   35.60
  10   5 -10  355.36   45.00
  10   5 -10  284.47   37.10
   9  -5 -10  104.29   24.60
   9  -5 -10  139.49   15.60
   9   5 -10  134.89   33.50
   9   5 -10  158.28   33.90
  -9   5  10  140.79   14.40
   8  -5 -10   50.39   12.50
   8  -5 -10   21.70   13.70
   8   5 -10   24.10   18.30
   8   5 -10   31.50   15.60
  -8   5  10   39.10   11.40
   7  -5 -10   15.30   11.70
   7  -5 -10   16.10    7.60
  -7   5  10   17.80    8.20
   7   5 -10   17.10   12.70
   7   5 -10   27.10   16.10
   6  -5 -10    2.00    6.60
   6  -5 -10   -7.30    2.50
  -6   5  10   -4.60    3.70
   6   5 -10   11.00   11.80
   6   5 -10    5.10    9.80
   5  -5 -10   52.79   14.90
   5  -5 -10   43.60   14.40
  -5   5  10   53.69   14.80
   5   5 -10   60.29   18.10
   5   5 -10   20.00   12.30
  -5   5  10   31.20   12.60
  -4  -5  10  410.66   33.90
   4  -5 -10  368.86   33.40
   4  -5 -10  458.65   33.40
   4   5 -10  406.36   35.30
  -4   5  10  398.26   34.00
   4   5 -10  382.46   35.80
  -4   5  10  395.86   30.60
  -3  -5  10  307.47   27.70
   3  -5 -10  359.76   32.00
  -3  -5  10  351.86   30.80
   3  -5 -10  415.56   32.20
   3   5 -10  362.26   33.40
   3   5 -10  360.26   30.90
  -3   5  10  352.86   29.40
  -3   5  10  334.57   30.90
  -2  -5  10  237.98   24.20
   2  -5 -10  230.98   24.30
   2  -5 -10  210.88   25.60
  -2  -5  10  191.08   20.70
   2   5 -10  199.68   24.50
   2   5 -10  234.48   24.00
  -2   5  10  220.98   23.60
   1  -5 -10   11.80    7.40
  -1  -5  10   13.00    6.60
   1   5 -10    4.00    6.20
   1   5 -10   19.50    8.90
  -1   5  10   20.60   10.80
  -1   5  10   21.10   15.30
   0  -5  10   13.60    6.50
   0  -5 -10   -3.50    3.50
   0  -5  10   -0.30    4.40
   0  -5 -10    3.20    5.60
   0   5  10   13.80    9.30
   0   5  10    6.00    7.50
   0   5 -10    8.40    6.20
   0   5 -10   -3.60    3.80
   1  -5  10   45.80   10.40
  -1  -5 -10   17.40   10.70
  -1  -5 -10   47.00   15.60
   1  -5  10   26.30    9.20
   1   5  10   36.40   12.80
  -1   5 -10   11.90    7.80
   1   5  10   20.10    9.90
  -1   5 -10   44.60   10.60
   2  -5  10   81.89   12.30
   2  -5  10  107.99   20.30
  -2  -5 -10   94.99   22.60
   2   5  10   93.79   22.10
  -2   5 -10   90.49   19.00
   2   5  10  103.89   22.10
  -2   5 -10  109.09   12.20
   3  -5  10  171.98   13.50
   3  -5  10  155.38   18.40
  -3  -5 -10  184.98   24.90
  -3   5 -10  211.48   22.50
   3   5  10  154.08   22.30
   3   5  10  167.88   23.60
  -3   5 -10  175.78   14.10
  -4  -5 -10  154.28   23.60
   4  -5  10  169.48   18.40
   4  -5  10  131.19   10.80
  -4   5 -10  113.69   16.90
   5  -5  10   72.89    8.20
  -5  -5 -10  109.79   26.80
   5  -5  10   85.39    7.70
   5  -5  10   76.69   16.10
  -5   5 -10  115.89   16.50
   6  -5  10   35.20   11.60
   6  -5  10   32.20    6.50
   6  -5  10   17.10    4.90
   6   5  10   12.80    8.60
  -6   5 -10   25.70    9.90
   6   5  10   10.80    8.40
   7  -5  10   33.20    7.40
   7  -5  10   46.90   11.40
   7  -5  10   40.10    7.20
  -7   5 -10   69.89   14.80
   7   5  10   43.50   15.90
   7   5  10   44.70   15.10
   8  -5  10  107.59   10.80
   8  -5  10   94.39   12.50
   8  -5  10   86.19    9.80
  -8   5 -10  123.89   14.90
   8   5  10  116.69   27.30
   8   5  10  135.29   30.40
   9  -5  10   20.60    7.90
   9  -5  10   14.80    5.50
   9  -5  10   15.50    6.00
   9   5  10   15.90   10.30
   9   5  10   -4.80    4.10
  10  -5  10  104.29   11.80
  10   5  10  116.59   27.60
  10   5  10  116.09   26.90
  11   5  10   32.80   16.30
  11   5  10    5.10    9.10
  11  -6 -10   40.50   17.60
  11   6 -10    9.60   11.60
  11   6 -10   20.20   16.60
  10  -6 -10    4.90   10.30
  10   6 -10    1.90    9.40
  10   6 -10   -1.50    6.90
   9  -6 -10   23.00    7.20
   9  -6 -10   27.40   15.30
  -9   6  10   10.90    5.80
   9   6 -10    8.30   13.50
   9   6 -10   -9.00    6.00
   8  -6 -10    4.70    7.70
   8  -6 -10    4.50    4.70
   8   6 -10   17.20   15.50
   8   6 -10    2.40    8.80
  -8   6  10    2.40    4.30
   7  -6 -10  260.37   31.30
   7  -6 -10  225.28   21.60
  -7   6  10  186.48   19.00
   7   6 -10  249.97   32.60
   7   6 -10  279.07   36.00
   6  -6 -10  489.35   41.00
   6  -6 -10  454.05   32.10
   6   6 -10  400.36   40.40
  -6   6  10  409.76   29.90
   6   6 -10  416.66   40.70
   5  -6 -10  498.65   40.50
   5  -6 -10  483.15   34.60
   5   6 -10  560.74   45.10
  -5   6  10  507.15   34.70
  -5   6  10  495.45   39.80
   5   6 -10  509.25   42.80
   4  -6 -10   72.19   16.80
   4  -6 -10   83.69   20.10
  -4   6  10   72.19   17.20
   4   6 -10   47.10   14.90
  -4   6  10  117.09   19.10
   4   6 -10   54.99   16.60
   3  -6 -10    5.20    5.60
   3  -6 -10   10.20    8.50
  -3  -6  10    4.10    6.60
   3   6 -10    7.10    7.80
  -3   6  10    4.60    5.80
  -3   6  10    8.90    6.30
   3   6 -10    1.20    6.90
   2  -6 -10   49.99   15.50
   2  -6 -10   85.49   20.10
  -2  -6  10   58.69   14.80
  -2  -6  10   78.29   18.60
   2   6 -10   44.50   15.00
  -2   6  10   63.49   16.50
  -2   6  10   41.60   13.10
   2   6 -10   36.50   12.30
   1  -6 -10  930.11   53.99
  -1  -6  10  850.71   49.00
  -1  -6  10  863.81   43.30
  -1   6  10  800.42   50.79
   1   6 -10  851.81   51.39
   1   6 -10  859.41   45.70
   0  -6  10   31.10    9.70
   0  -6 -10   44.60   14.90
   0  -6  10   22.80    9.40
   0  -6 -10   15.90    9.60
   0   6 -10   17.80    8.10
   0   6 -10   39.50   13.20
   0   6  10   27.30   11.90
   0   6  10   14.10    9.30
   1  -6  10  299.27   26.60
   1  -6  10  294.87   20.30
  -1  -6 -10  324.57   31.10
  -1  -6 -10  265.27   29.20
   1   6  10  281.17   29.70
  -1   6 -10  306.57   29.70
   1   6  10  293.07   30.20
  -1   6 -10  294.87   21.60
   2  -6  10    1.70    4.60
   2  -6  10    0.30    2.70
  -2  -6 -10   -4.20    3.00
  -2   6 -10    7.40    4.10
  -2   6 -10   -0.60    4.20
   2   6  10   -3.60    2.90
   2   6  10    2.20    6.10
   3  -6  10  497.55   34.00
   3  -6  10  543.85   22.40
  -3  -6 -10  556.34   44.90
  -3   6 -10  596.84   38.90
  -3   6 -10  552.44   24.10
  -4  -6 -10   12.60   10.80
   4  -6  10    8.50    2.20
   4  -6  10    7.30    2.40
   4  -6  10   19.70    8.90
  -4   6 -10    4.30    5.80
  -5  -6 -10  410.06   40.60
   5  -6  10  342.17   26.20
   5   6  10  379.16   35.00
  -5   6 -10  297.77   26.40
   5   6  10  311.67   31.70
   6  -6  10    6.90    5.90
  -6   6 -10   14.50    7.70
   6   6  10    9.80    9.30
   6   6  10    1.90    5.40
   7  -6  10  278.27   20.90
   7   6  10  241.88   30.50
   7   6  10  278.67   32.00
  -7   6 -10  281.27   22.90
   8  -6  10   98.79   11.10
   8   6  10   81.09   21.20
  -8   6 -10   97.89   12.40
   8   6  10   68.09   20.70
   9   6  10   52.59   18.60
   9   6  10   42.60   17.10
  10   6  10   35.00   19.30
  10   6  10    5.90    8.70
  11   6  10   -3.40    6.30
  11   6  10    8.60   10.00
  11  -7 -10   34.40   18.40
  11   7 -10   13.00   17.30
  11   7 -10   -2.20    9.60
  10  -7 -10   86.69   24.90
  10   7 -10  112.39   33.30
  10   7 -10   87.79   28.40
   9  -7 -10   20.30   13.70
   9   7 -10   13.50   11.80
  -9   7  10    6.00    3.60
   9   7 -10    9.00   12.00
   8  -7 -10    6.70    5.20
   8  -7 -10    3.90    7.30
  -8   7  10    7.90    5.70
   8   7 -10   -9.10    6.20
   8   7 -10    8.90   11.60
   7  -7 -10   16.50   10.50
   7  -7 -10   -0.90    4.50
  -7   7  10   -4.10    3.10
   7   7 -10    2.80    8.60
   7   7 -10   -8.20    5.30
   6  -7 -10  398.06   29.90
   6  -7 -10  352.16   35.40
  -6   7  10  372.86   28.80
   6   7 -10  357.26   38.80
   6   7 -10  398.06   40.50
   5  -7 -10   -2.40    3.30
   5  -7 -10    6.90    8.70
   5   7 -10    5.40    9.50
   5   7 -10   -4.40    8.50
  -5   7  10    8.10    6.40
   4  -7 -10   73.89   17.90
   4  -7 -10   66.89   19.80
  -4   7  10   86.69   20.10
  -4   7  10  100.89   20.90
   4   7 -10   54.49   19.20
   4   7 -10   46.90   17.30
   3  -7 -10   12.40    8.10
  -3  -7  10   10.90    8.50
   3  -7 -10   63.99   18.50
  -3   7  10   41.20   14.10
  -3   7  10   63.29   17.50
   3   7 -10   50.49   15.60
   3   7 -10   32.10   13.30
   2  -7 -10  135.49   21.20
   2  -7 -10  129.39   20.10
  -2  -7  10  112.89   23.20
  -2   7  10  136.19   26.00
   2   7 -10  165.88   24.10
  -2   7  10  151.28   21.90
   1  -7 -10   21.80   10.50
   1  -7 -10   11.70    9.20
  -1  -7  10   11.00    8.10
  -1  -7  10   11.90    7.20
   1   7 -10   21.10   10.20
  -1   7  10   17.60   10.00
  -1   7  10   13.70   10.10
   1   7 -10   20.40    9.80
   0  -7 -10   62.79   16.80
   0  -7 -10   97.59   21.10
   0  -7  10   96.19   12.90
   0  -7  10   79.79   17.50
   0   7 -10   83.79   18.60
   0   7  10   87.59   20.60
   0   7 -10   87.79   16.50
   0   7  10   57.29   15.70
   1  -7  10   13.90    8.00
  -1  -7 -10   -4.20    3.90
   1  -7  10    5.90    4.50
  -1   7 -10    3.80    6.70
   1   7  10    3.10    8.60
  -1   7 -10   -0.50    3.80
   2  -7  10   13.40    9.30
   2  -7  10   20.40    5.50
  -2  -7 -10   35.40   14.90
  -2   7 -10   14.20    5.70
   3  -7  10   -0.30    4.50
  -3  -7 -10   23.90   12.40
  -3   7 -10   11.40    8.30
   4  -7  10   34.90   11.60
  -4  -7 -10   84.79   22.50
  -4   7 -10   75.39   17.50
   4   7  10   75.89   18.90
   5  -7  10   44.30   11.50
  -5   7 -10   37.80   11.80
   5   7  10   22.10   11.00
   5   7  10   51.39   17.40
   6  -7  10  179.18   17.50
   6   7  10  191.78   27.40
  -6   7 -10  163.48   18.60
   6   7  10  117.19   26.40
   7  -7  10   53.39   11.10
   7   7  10   69.29   33.30
  -7   7 -10   46.30   11.00
   7   7  10   44.20   16.00
   8  -7  10    8.50    4.70
  -8   7 -10   10.70    4.80
   8   7  10   10.70   10.40
   8   7  10    8.10    9.00
   9   7  10  106.69   27.10
   9   7  10  107.99   26.20
  10   7  10   58.09   22.30
  10   7  10   84.19   25.40
  11  -8 -10   36.00   16.70
  11   8 -10   -6.40    7.20
  11   8 -10   19.70   16.70
  10  -8 -10    0.90    7.30
  10   8 -10   -4.00    6.50
  10   8 -10   -4.20    9.10
   9  -8 -10    7.30    9.30
   9   8 -10   -9.00    5.50
   9   8 -10   18.50   16.50
   8  -8 -10   42.90   16.90
   8   8 -10   37.70   19.00
  -8   8  10   21.70    7.60
   8   8 -10   33.40   17.40
   7  -8 -10  473.95   42.20
   7  -8 -10  474.15   30.60
   7   8 -10  394.56   47.20
  -7   8  10  456.15   29.90
   7   8 -10  478.55   48.10
   6  -8 -10   38.30   15.30
   6  -8 -10   46.10   13.10
   6   8 -10   53.29   18.80
  -6   8  10   58.19   14.50
   6   8 -10   54.89   21.40
   5  -8 -10  258.77   25.80
   5  -8 -10  301.47   32.10
   5   8 -10  215.18   29.80
  -5   8  10  280.67   26.50
   5   8 -10  204.88   30.30
   4  -8 -10    0.30    4.90
   4  -8 -10   -3.20    5.80
   4   8 -10   -6.70    5.60
  -4   8  10    5.60    6.30
   4   8 -10   -9.80    4.70
   3  -8 -10   -0.70    8.20
   3  -8 -10    1.50    5.50
  -3  -8  10    8.80    7.60
  -3   8  10    8.70    7.10
   3   8 -10    2.40    7.50
   3   8 -10   -3.60    7.40
  -2  -8  10   48.30   13.20
   2  -8 -10   43.70   16.30
   2  -8 -10   62.59   18.20
   2   8 -10   45.80   18.00
  -2   8  10   64.39   17.80
   2   8 -10   82.89   18.90
   1  -8 -10   95.89   21.80
   1  -8 -10  117.79   24.10
  -1  -8  10  111.99   15.20
   1   8 -10  109.69   23.10
  -1   8  10  127.29   21.00
   1   8 -10  102.49   16.20
   0  -8 -10   94.99   24.30
   0  -8  10   92.29   12.90
   0  -8  10   96.49   24.50
   0   8 -10   83.29   16.20
   0   8 -10  114.69   25.10
  -1  -8 -10  946.41   61.89
   1  -8  10 1045.70   55.59
   1  -8  10 1013.80   42.00
  -1   8 -10 1085.69   45.80
  -1   8 -10 1073.59   59.09
   2  -8  10   21.30    5.90
   2  -8  10   26.00   10.60
  -2  -8 -10   20.70   12.80
  -2   8 -10    7.60    4.40
  -2   8 -10   33.60   13.60
  -3  -8 -10   68.59   19.90
  -3   8 -10   84.09   18.50
   3   8  10   53.69   16.40
   4  -8  10   10.50    8.10
  -4   8 -10   17.00    9.40
   4   8  10    7.50    7.40
   5  -8  10  112.89   15.50
   5   8  10  121.49   26.50
   5   8  10  114.29   27.10
  -5   8 -10  108.99   16.80
   6  -8  10    7.20    5.20
   6   8  10    8.30   10.90
  -6   8 -10    3.00    4.70
   6   8  10    0.00    7.50
   7  -8  10  117.79   12.50
   7   8  10  124.79   28.80
  -7   8 -10  115.09   14.40
   7   8  10  164.88   26.90
   8  -8  10   48.10    5.10
   8   8  10   51.29   18.00
   8   8  10   58.49   20.50
   9   8  10   34.80   19.30
   9   8  10   51.89   22.00
  10   8  10   -0.80    8.00
  10   8  10   14.60   13.80
  10  -9 -10   14.70   12.20
  10   9 -10   28.90   30.60
  10   9 -10   31.10   20.80
   9  -9 -10    0.80    7.70
   9   9 -10   -7.40    6.20
   9   9 -10   -3.20    8.30
   8  -9 -10   29.30   14.30
  -8   9  10   11.90    5.10
   8   9 -10   21.80   15.30
   8   9 -10   27.60   16.00
   7  -9 -10   11.60   11.00
   7   9 -10   15.00   12.30
  -7   9  10   22.90    9.20
   7   9 -10   56.39   21.80
  -7   9  10   34.30    9.80
   6  -9 -10   25.10   12.60
   6   9 -10   16.80   12.10
  -6   9  10   37.90   12.70
   6   9 -10   24.50   15.60
   5  -9 -10  177.58   25.20
   5  -9 -10  162.68   24.10
   5   9 -10  156.08   31.90
  -5   9  10  143.29   21.10
   5   9 -10  151.28   32.00
   4  -9 -10   47.80   14.70
   4  -9 -10   28.90   14.30
   4   9 -10   36.80   15.80
   4   9 -10   25.60   13.20
  -4   9  10   38.30   13.70
   3  -9 -10    3.40    7.70
   3  -9 -10   13.80   11.40
  -3   9  10   -2.10    4.10
   3   9 -10    8.60    9.40
   3   9 -10   -6.40    4.70
  -2  -9  10   31.50   11.60
   2  -9 -10   23.20   12.10
   2  -9 -10   14.40    9.80
  -2   9  10    4.90    8.00
   2   9 -10    5.70    8.20
   2   9 -10   19.90   11.00
   1  -9 -10   12.50   11.50
  -1  -9  10   28.20   10.80
   1   9 -10   17.90   10.40
   1   9 -10   36.60   16.00
   0  -9  10   29.50    9.40
   0  -9 -10   18.80   13.30
   0   9 -10   14.40    7.90
   0   9 -10   16.20   11.20
  -1  -9 -10   20.80   13.00
   1  -9  10    5.20    5.30
  -1   9 -10   21.50    9.00
  -1   9 -10   22.30   12.90
   2  -9  10  135.39   19.20
  -2   9 -10  120.09   11.60
  -2   9 -10   72.99   20.30
   2   9  10  137.69   28.30
   3  -9  10   67.89   16.40
   3   9  10   95.99   24.00
  -3   9 -10   63.09   18.50
   4  -9  10  131.89   25.90
  -4   9 -10  176.98   22.50
   4   9  10  155.28   25.50
   4   9  10  174.58   25.60
   5  -9  10   42.10   12.40
   5   9  10   43.40   18.50
   5   9  10   81.49   24.30
  -5   9 -10   68.39   17.00
   6  -9  10   92.49   13.10
   6   9  10  129.89   29.20
   6   9  10   68.09   20.90
  -6   9 -10   93.09   15.10
   7  -9  10   39.40    9.00
   7   9  10   20.00   13.80
   7   9  10   59.59   22.30
  -7   9 -10   38.60   10.70
   8   9  10    0.10   11.70
   8   9  10   21.20   12.40
   9   9  10   73.19   23.60
   9   9  10   76.59   23.40
  10   9  10    3.60    7.80
  10   9  10   -0.90    7.20
   9 -10 -10    8.70    9.20
   9  10 -10   37.80   22.40
   9  10 -10   -9.90    8.30
   8 -10 -10   29.10   14.60
  -8  10  10   23.60    6.10
   8  10 -10   15.60   15.00
   8  10 -10    0.50   10.60
   7 -10 -10  287.57   33.00
  -7  10  10  267.17   23.20
   7  10 -10  280.37   40.10
  -7  10  10  293.47   22.10
   7  10 -10  281.97   38.90
   6 -10 -10   58.69   20.40
  -6  10  10   59.29   14.10
  -6  10  10   15.60    8.10
   6  10 -10   26.80   15.30
   6  10 -10   76.99   25.30
   5 -10 -10  116.49   25.70
  -5  10  10  137.29   20.60
   5  10 -10  101.19   26.70
  -5  10  10  111.89   16.60
   5  10 -10   93.99   26.20
   4 -10 -10    5.30    8.80
   4  10 -10   -4.10    6.10
  -4  10  10    2.30    6.30
   4  10 -10   -8.00    5.50
  -4  10  10    1.70    4.60
   3 -10 -10    9.80   10.80
  -3  10  10   -3.00    3.40
   3  10 -10    8.10   10.70
   3  10 -10    5.20    8.10
  -2 -10  10  383.46   31.70
   2  10 -10  401.66   40.60
  -2  10  10  383.46   33.60
   2  10 -10  402.16   34.80
  -1 -10  10  834.22   45.20
   1  10 -10  693.33   44.10
   1  10 -10  716.63   53.49
  -1  10  10  806.42   50.99
   0 -10  10  103.89   14.00
   0  10 -10  136.59   30.60
   0  10  10  122.69   20.40
   0  10 -10  124.49   17.00
   1  10  10   47.80   15.50
  -1  10 -10   35.50   14.70
  -1  10 -10   38.00   10.00
  -2  10 -10  177.18   24.50
   2  10  10  140.39   29.80
  -2  10 -10  149.19   12.50
   3 -10  10   73.99   17.50
   3  10  10   74.39   21.80
  -3  10 -10   62.39   18.40
   4 -10  10    2.90    5.20
   4  10  10   37.90   18.90
   4  10  10   -1.20    8.80
  -4  10 -10   11.50    9.70
   5 -10  10   99.69   23.20
   5  10  10   99.69   24.00
  -5  10 -10  117.39   32.30
   5  10  10   88.69   22.40
   6 -10  10   72.29   14.60
   6  10  10   58.99   21.40
  -6  10 -10   62.99   16.30
   6  10  10   58.09   22.40
   7 -10  10   58.09   10.90
  -7  10 -10   64.39   12.60
   7  10  10   40.80   16.70
   7  10  10   36.70   17.70
   8  10  10   45.00   21.20
   8  10  10   67.99   23.00
   9  10  10    9.10   11.60
   9 -11 -10  269.47   33.40
   9  11 -10  281.47   79.89
   9  11 -10  311.97   49.70
   8 -11 -10    7.00    8.00
   8  11 -10    7.50   14.40
   8  11 -10   -6.60    6.50
   7 -11 -10   15.20   11.80
   7  11 -10    8.80   12.60
  -7  11  10    1.20    3.70
   7  11 -10   -9.40    5.50
   6 -11 -10    7.80    9.80
   6  11 -10   -6.60    6.90
  -6  11  10   -0.40    4.10
   6  11 -10    7.60   10.50
   5 -11 -10   -0.60    5.60
  -5  11  10    4.00    6.70
  -5  11  10    4.60    7.40
   5  11 -10   -0.10    7.40
   5  11 -10    0.10    9.70
   4 -11 -10   28.90   14.10
  -4  11  10   38.00   12.90
   4  11 -10   55.89   23.70
   4  11 -10   69.19   22.10
  -3  11  10  152.28   21.70
   3  11 -10  138.19   29.10
   3  11 -10  136.39   38.50
   2  11 -10   21.30   14.90
   2  11 -10   44.10   16.10
  -2  11  10   20.70   11.00
  -1 -11  10  174.28   20.60
  -1  11  10  231.08   27.80
   1  11 -10  219.38   24.70
   1  11 -10  209.88   30.30
   0  11 -10    5.50    9.60
   0  11 -10    5.60    6.70
   0  11  10    8.60    8.80
   1  11  10    2.60    6.80
  -1  11 -10   -5.10    4.50
  -1  11 -10    9.20    6.40
  -2  11 -10    4.40    7.20
  -2  11 -10    9.90    4.50
   2  11  10   -5.80    4.70
   3  11  10   32.70   17.30
  -3  11 -10   21.70   12.20
   4 -11  10   86.99   19.30
   4  11  10  112.69   26.70
   4  11  10   95.89   25.80
  -4  11 -10  118.99   25.00
   5 -11  10  109.89   16.20
   5  11  10   88.19   22.40
  -5  11 -10  125.39   19.50
   5  11  10  116.29   29.00
   6 -11  10   31.70   10.40
   6  11  10   16.50   12.70
   6  11  10   30.00   16.80
  -6  11 -10   15.70    8.80
  -7  11 -10    3.50    4.10
   7  11  10   -2.90    6.50
   7  11  10   -5.70    5.10
   8  11  10    5.20   10.00
   8  11  10   -1.30    5.90
   8 -12 -10   38.90   16.30
   8  12 -10   25.60   24.70
   8  12 -10   40.00   22.10
   7 -12 -10    8.60    9.10
   7  12 -10   -1.50    7.80
  -7  12  10    1.90    4.70
   7  12 -10   26.50   17.50
   6 -12 -10  167.98   31.50
   6  12 -10  118.59   31.20
   6  12 -10  175.48   37.10
  -6  12  10  152.18   18.70
  -5  12  10  102.89   20.90
   5  12 -10  126.19   34.60
   5  12 -10  147.49   31.60
   4  12 -10   66.19   22.50
   4  12 -10   25.80   17.30
  -4  12  10   83.09   20.20
  -3  12  10    8.40    9.60
   3  12 -10   12.90    9.70
   3  12 -10   30.20   18.20
   2  12 -10  129.89   26.60
  -2  12  10  112.29   23.40
   2  12 -10  140.09   31.50
   1  12 -10   33.50   13.50
  -1  12  10   25.30   14.60
   1  12 -10   21.80   13.90
   0  12 -10   57.29   15.40
   0  12  10   35.20   14.70
   0  12 -10   35.30   15.60
  -1  12 -10  194.68   18.90
   1  12  10  340.57   46.70
  -1  12 -10  263.87   33.10
  -2  12 -10  189.68   12.10
   2  12  10  203.78   30.60
  -2  12 -10  176.48   12.90
  -2  12 -10  209.08   28.70
   3  12  10   38.60   17.80
  -3  12 -10   42.10   17.40
   3  12  10   71.49   22.90
   4  12  10   48.60   20.90
   4  12  10   61.89   21.90
  -4  12 -10   42.70   15.10
   5 -12  10    2.20    5.70
  -5  12 -10   12.10   10.00
   5  12  10    5.70    7.80
   5  12  10   13.70   13.50
  -6  12 -10  103.39   26.00
   6  12  10   69.89   21.40
   6  12  10   63.19   20.80
   7  12  10   22.00   14.70
   7  12  10    4.00   10.80
   8  12  10    5.80   11.30
   8  12  10    4.20    8.50
   7  13 -10    7.10   16.40
   7  13 -10    5.90   14.80
  -6  13  10    1.90    6.20
   6  13 -10   11.80   11.80
   6  13 -10   -7.10    6.60
   5  13 -10  100.69   30.60
  -5  13  10  114.39   23.00
   5  13 -10   67.59   23.80
  -4  13  10   -4.10    4.40
   4  13 -10   13.30   11.50
   4  13 -10    2.00   10.60
   3  13 -10   50.69   22.60
   3  13 -10   24.60   13.40
  -3  13  10   71.69   20.40
   2  13 -10   -0.10    9.60
  -2  13  10   47.80   15.80
   2  13 -10   12.40   10.90
  -1  13  10  202.38   28.40
   1  13 -10  160.48   22.60
   1  13 -10  168.18   37.60
   0  13 -10    5.40    7.10
   0  13  10   20.10   12.40
  -1  13 -10   57.39   13.40
  -1  13 -10   92.49   24.80
   1  13  10   55.99   20.00
  -2  13 -10    2.70    8.00
   2  13  10   20.80   12.10
   2  13  10    5.40    7.40
  -3  13 -10  125.99   27.20
   3  13  10  142.19   30.60
   3  13  10  154.18   35.20
   4  13  10   19.70   14.50
   4  13  10   10.80   12.50
  -4  13 -10    7.40    9.50
   5  13  10   27.40   17.00
  -5  13 -10   97.99   23.10
   5  13  10   34.00   18.60
   6  13  10   -0.30    6.20
   6  13  10   -1.50    7.40
  -6  13 -10    3.80    5.90
   7  13  10   61.89   26.50
   7  13  10   32.00   19.10
   6  14 -10   42.40   20.90
   6  14 -10   42.90   22.50
  -6  14  10   36.20   13.80
   5  14 -10    8.30   13.50
  -5  14  10   24.80   13.50
   5  14 -10   26.80   19.90
  -4  14  10   53.59   18.10
   4  14 -10   33.80   17.70
   4  14 -10   62.59   27.30
   3  14 -10    8.20    9.10
   3  14 -10    3.90    8.60
  -3  14  10    6.40    8.00
   2  14 -10   27.10   14.70
  -2  14  10    1.90    5.60
   2  14 -10   33.10   20.80
   1  14 -10    6.60    8.40
  -1  14  10    1.00    6.50
   1  14 -10   -4.90    4.60
   0  14 -10   96.29   28.20
   0  14 -10  114.29   18.10
   0  14  10  122.59   32.80
  -1  14 -10   52.99   13.10
  -1  14 -10   31.90   15.80
   1  14  10   67.99   21.60
   1  14  10   21.00   13.20
   2  14  10   -1.20    5.60
  -2  14 -10   -5.60    5.00
   2  14  10   16.70   13.10
  -3  14 -10   85.49   24.90
   3  14  10   35.80   18.00
   3  14  10   33.50   15.30
  -4  14 -10    6.10    8.10
   4  14  10   71.79   25.80
   4  14  10   31.60   19.60
   5  14  10    1.20    7.80
  -5  14 -10   18.80   10.70
   5  14  10    9.70   19.80
  -4  15  10    9.20   10.70
   4  15 -10   15.20   13.20
   3  15 -10   18.00   14.60
   3  15 -10   74.69   29.20
  -3  15  10   28.60   14.80
  -2  15  10   83.09   24.30
   2  15 -10   77.19   23.50
   2  15 -10  108.39   33.90
   1  15 -10    0.60    7.40
  -1  15  10    6.60   10.30
   1  15 -10   19.30   16.00
  -1  15  10   -3.50    4.40
   0  15  10    2.40   10.10
   0  15  10   -0.90    7.00
   0  15 -10    6.20    7.10
   0  15 -10  -10.60    7.10
   1  15  10   -2.50    6.00
  -1  15 -10   26.10   15.30
   1  15  10    1.80    5.60
  -1  15 -10    2.60    5.10
  -2  15 -10   -4.00    7.40
   2  15  10    3.40    6.10
   2  15  10    2.10    6.60
  -3  15 -10   13.60   10.70
   3  15  10   -4.50    6.40
   3  15  10    9.90   12.00
   4  15  10   58.99   30.60
  -4  15 -10   34.00   16.00
   4  15  10   -0.70   10.10
   2  16 -10    8.80   13.50
  -2  16  10   34.70   17.00
  -1  16  10  130.99   31.50
   1  16 -10  123.39   34.30
   1  16 -10  145.59   23.50
  -1  16  10  157.78   34.20
   0  16  10   60.39   22.50
   0  16  10   30.30   16.30
   0  16 -10  108.99   31.60
   1  16  10   24.00   15.40
   1  16  10   36.60   18.30
  -1  16 -10   35.20   18.80
  12   0 -11   10.60    8.80
  12   0 -11   -5.10    6.80
  11   0 -11   35.60   15.20
  11   0 -11   40.00   19.40
  10   0 -11   -5.60    4.40
  10   0 -11   -6.80    7.30
   9   0 -11    9.20    9.90
   9   0 -11    5.50    7.20
  -8   0  11   -0.30    4.50
   8   0 -11   -1.00    8.70
   8   0 -11    9.60    7.70
   7   0 -11   90.29   21.60
  -7   0  11   53.79   15.10
   7   0 -11  128.19   29.20
   6   0 -11   -5.60    4.20
  -6   0  11   12.00    7.80
   6   0 -11   16.90   10.50
  -5   0  11  177.48   24.80
  -5   0  11  114.29   19.10
   5   0 -11  195.68   25.40
  -4   0  11    0.20    4.00
   4   0 -11   -3.50    3.70
  -4   0  11    3.30    5.50
   4   0 -11   -3.00    3.70
  -3   0  11   37.70   13.40
   3   0 -11   60.89   16.90
  -3   0  11   68.39   16.60
  -2   0  11    0.70    4.10
  -2   0  11    7.00    6.60
   2   0 -11   -4.40    3.20
   2   0 -11   -5.00    1.90
  -1   0  11    3.00    4.90
   1   0 -11    4.40    5.40
  -1   0  11   -1.10    3.30
   1   0 -11    3.50    5.50
   0   0  11   -1.40    3.90
   0   0 -11    1.70    4.40
   0   0 -11   -1.40    4.00
   0   0  11    2.40    5.80
  -1   0 -11   -0.20    3.80
  -1   0 -11    5.70    6.50
   1   0  11   13.60    8.60
   1   0  11    0.90    3.70
   2   0  11    3.00    4.50
  -2   0 -11   -1.80    3.80
   2   0  11   -4.10    2.30
  -2   0 -11    2.30    4.50
  -3   0 -11  258.77   24.00
   3   0  11  231.78   22.90
  -3   0 -11  231.38   25.30
   3   0  11  257.07   25.90
   4   0  11   -3.80    3.00
  -4   0 -11    0.20    3.90
   4   0  11   -4.00    2.20
   5   0  11  151.98   20.00
   5   0  11  158.48   38.80
  -5   0 -11  168.58   22.10
   6   0  11   -1.00    4.50
   6   0  11   -4.10    3.10
   6   0  11    9.00    7.40
  -6   0 -11   -2.00    6.20
  -7   0 -11  351.36   33.60
   7   0  11  375.56   34.20
   7   0  11  495.25   34.90
   7   0  11  377.76   33.90
   8   0  11    6.10    6.30
  -8   0 -11    8.30    7.70
   8   0  11   -0.40    5.60
   9   0  11  110.09   22.20
   9   0  11   71.39   18.70
  10   0  11   -5.10    4.10
  10   0  11    1.20    5.70
  11   0  11   40.00   16.80
  11   0  11   14.20    9.10
  12  -1 -11   -5.40    7.30
  12  -1 -11   10.30    8.50
  12   1 -11    4.10   11.00
  12   1 -11    8.90    9.70
  11  -1 -11   11.20    9.00
  11  -1 -11    7.20   14.90
  11   1 -11   -3.00    6.70
  11   1 -11   14.30   15.20
  10  -1 -11  402.46   35.50
  10  -1 -11  375.06   43.40
  10   1 -11  417.26   39.10
  10   1 -11  334.77   42.80
   9  -1 -11   -0.90    4.80
   9  -1 -11   -8.10    5.10
   9   1 -11   12.20   17.90
  -9   1  11    5.60    7.00
   9   1 -11    5.10    8.30
   8  -1 -11  262.47   34.30
   8  -1 -11  322.37   31.30
   8   1 -11  301.77   32.30
   8   1 -11  292.17   36.60
  -8   1  11  299.37   27.50
   7  -1 -11  104.39   26.90
   7  -1 -11   98.79   21.40
  -7  -1  11  110.89   18.20
   7   1 -11  113.79   25.90
  -7   1  11   96.09   15.80
   7   1 -11   98.29   22.60
   6  -1 -11   11.90    9.80
  -6  -1  11   36.40   13.10
   6  -1 -11   11.90   15.70
  -6   1  11    7.70    7.30
   6   1 -11    6.60    8.70
   6   1 -11   21.60   11.90
   5  -1 -11  140.69   20.30
  -5  -1  11  120.19   18.20
   5  -1 -11  160.98   23.50
   5   1 -11  141.99   22.40
   5   1 -11  129.99   20.20
  -5   1  11  165.68   19.90
  -5   1  11  158.48   21.90
  -4  -1  11 2007.70   89.19
   4  -1 -11 1811.22   82.29
  -4  -1  11 1694.03   77.79
   4  -1 -11 1865.01   79.49
  -4   1  11 1887.61   76.79
  -4   1  11 1787.12   79.79
   4   1 -11 1957.70   84.49
  -3  -1  11  284.37   26.10
   3  -1 -11  274.37   26.50
  -3  -1  11  223.08   25.00
   3   1 -11  326.67   29.50
  -3   1  11  261.87   33.10
  -3   1  11  272.37   25.40
  -2  -1  11  752.72   44.70
   2  -1 -11  837.32   48.10
   2  -1 -11  819.52   47.90
  -2  -1  11  843.22   46.10
   2   1 -11  812.32   48.10
  -2   1  11  821.92   46.90
   2   1 -11  910.61   49.20
  -2   1  11  904.61   48.50
   1  -1 -11  163.68   20.70
  -1  -1  11  154.88   18.70
   1  -1 -11  146.19   19.20
  -1  -1  11  178.48   20.50
  -1   1  11  162.18   19.90
  -1   1  11  146.19   18.80
   1   1 -11  156.08   20.20
   1   1 -11  156.98   19.30
   0  -1 -11  127.09   18.20
   0  -1 -11  135.29   17.90
   0  -1  11  125.89   17.80
   0  -1  11  154.88   18.10
   0   1  11  114.09   16.70
   0   1  11  138.09   18.60
   0   1 -11  123.79   18.20
   0   1 -11  124.59   16.70
  -1  -1 -11  290.67   27.70
  -1  -1 -11  298.17   26.60
   1  -1  11  322.77   25.50
   1  -1  11  300.37   26.90
  -1   1 -11  325.27   28.40
  -1   1 -11  297.07   25.20
   1   1  11  356.96   30.10
   1   1  11  329.37   27.50
   2  -1  11 1475.25   61.79
  -2  -1 -11 1386.06   67.59
   2  -1  11 1376.66   64.59
  -2  -1 -11 1458.15   65.49
  -2   1 -11 1506.05   62.29
  -2   1 -11 1417.36   66.19
   2   1  11 1395.46   66.09
   2   1  11 1476.45   65.19
   3  -1  11    6.40    6.70
  -3  -1 -11    2.20    5.10
  -3  -1 -11   -0.60    4.50
   3  -1  11    7.40    5.90
   3   1  11    0.70    4.30
  -3   1 -11    4.80    6.20
  -3   1 -11    2.80    4.80
   3   1  11    9.20    8.00
  -4  -1 -11  743.23   48.50
   4  -1  11  827.92   44.00
   4  -1  11  806.42   47.40
   4   1  11  807.82   57.99
   4   1  11  811.42   47.90
  -4   1 -11  820.72   48.30
   5  -1  11    4.40    6.80
   5  -1  11   -2.10    3.20
  -5  -1 -11    8.70    7.90
   5   1  11   -2.60    3.10
  -5   1 -11    0.20    5.00
   5   1  11    1.40    6.80
   6  -1  11   98.19   16.30
  -6  -1 -11   89.39   22.30
   6  -1  11  131.79   16.40
  -6   1 -11  115.29   23.60
   6   1  11  122.39   24.20
   6   1  11  116.89   22.30
   6   1  11  112.09   17.10
   7  -1  11    3.40    5.20
   7  -1  11   13.10    7.40
  -7  -1 -11    2.60    6.50
   7  -1  11   18.00    9.20
   7   1  11    1.80    5.60
  -7   1 -11    2.90    5.90
   8  -1  11   14.80    9.80
   8  -1  11   17.40    9.40
   8  -1  11   32.70   12.90
  -8  -1 -11   10.00    9.90
   8   1  11   12.10    8.60
  -8   1 -11    6.50    7.70
   8   1  11   17.40   10.10
   9  -1  11   56.29   16.40
   9  -1  11   62.29   15.80
   9  -1  11   53.89   16.90
   9   1  11   43.40   16.30
   9   1  11   61.99   17.10
  10  -1  11   29.70   13.00
  10  -1  11   24.10    9.80
  10   1  11   55.99   17.80
  10   1  11   27.70   11.80
  11  -1  11   12.80    8.30
  11  -1  11   21.30   13.00
  11   1  11    3.90    7.60
  11   1  11    7.20    8.90
  12  -2 -11   14.00   10.30
  12  -2 -11   36.10   17.50
  12   2 -11    5.40    9.70
  12   2 -11    4.30   12.80
  11  -2 -11   43.00   13.60
  11  -2 -11   48.40   24.50
  11   2 -11   40.10   19.60
  11   2 -11   36.30   16.50
  10  -2 -11   14.10    9.50
  10  -2 -11   11.50   12.50
  10   2 -11   30.10   18.00
  10   2 -11   15.00   12.70
 -10   2  11   16.00    9.70
   9  -2 -11    0.50    9.20
   9  -2 -11   -5.10    4.00
   9   2 -11    9.60    9.90
   9   2 -11    5.10   10.20
  -9   2  11    8.10    7.60
   8  -2 -11  108.49   22.20
   8  -2 -11  122.99   29.80
  -8   2  11  101.89   20.10
   8   2 -11  131.99   28.50
   8   2 -11   94.19   24.80
   7  -2 -11   81.39   22.00
   7  -2 -11  107.49   23.20
   7   2 -11  104.09   24.40
   7   2 -11  115.59   27.80
  -7   2  11   78.09   17.30
  -6  -2  11   98.59   19.60
   6  -2 -11   98.49   19.70
   6  -2 -11  112.69   25.30
  -6   2  11  126.59   17.70
   6   2 -11  127.19   28.10
   6   2 -11   75.69   20.20
  -5  -2  11  386.06   32.00
   5  -2 -11  369.36   31.10
   5  -2 -11  390.26   35.90
  -5   2  11  364.56   29.60
   5   2 -11  314.97   32.80
   5   2 -11  329.37   32.30
  -5   2  11  352.76   32.60
   4  -2 -11   28.30   12.20
  -4  -2  11   20.00   10.90
  -4  -2  11   14.10    8.90
   4  -2 -11   19.10   10.90
  -4   2  11   18.90   10.10
   4   2 -11   25.90   12.60
  -4   2  11   21.00    9.70
   4   2 -11   39.90   15.00
  -3  -2  11  312.77   32.40
   3  -2 -11  246.68   25.30
   3  -2 -11  333.17   30.50
  -3   2  11  288.27   33.40
   3   2 -11  279.67   33.10
  -3   2  11  262.87   25.30
  -2  -2  11   18.10    8.60
   2  -2 -11    4.50    5.20
  -2  -2  11   19.20    8.30
   2  -2 -11    8.50    6.70
   2   2 -11   16.40    8.90
  -2   2  11    4.60    5.10
   2   2 -11   23.80   11.00
  -2   2  11   12.00    6.50
   1  -2 -11    6.30    6.80
  -1  -2  11    9.00    7.10
   1  -2 -11    0.90    5.40
  -1  -2  11    7.10    5.30
  -1   2  11    3.00    5.60
  -1   2  11   -4.20    2.80
   1   2 -11    4.70    6.50
   1   2 -11    0.10    4.30
   0  -2  11  852.01   47.10
   0  -2 -11  877.91   49.50
   0  -2  11  870.41   44.50
   0  -2 -11  833.92   49.00
   0   2  11  807.62   47.50
   0   2  11  912.41   50.39
   0   2 -11  891.01   50.09
   0   2 -11  916.71   46.30
  -1  -2 -11  770.42   46.90
  -1  -2 -11  719.73   43.70
   1  -2  11  680.73   41.80
   1  -2  11  687.33   37.80
   1   2  11  611.74   41.60
   1   2  11  705.53   43.30
  -1   2 -11  663.93   38.10
  -1   2 -11  723.83   43.60
   2  -2  11   50.49   11.80
   2  -2  11   37.10   11.60
  -2  -2 -11   42.20   13.70
  -2  -2 -11   40.50   13.60
  -2   2 -11   61.89   13.90
  -2   2 -11   21.60    9.80
   2   2  11   69.39   18.60
   2   2  11   31.30    9.90
   3  -2  11   77.09   16.90
  -3  -2 -11  105.29   23.00
   3  -2  11   43.60   11.70
  -3   2 -11   65.69   16.50
  -3   2 -11   36.80   11.00
   3   2  11   32.70   12.90
   3   2  11   79.49   21.50
  -4  -2 -11  168.48   23.00
   4  -2  11  144.39   19.00
   4  -2  11  138.79   16.70
   4   2  11  176.48   22.50
  -4   2 -11  144.29   19.60
   4   2  11  160.88   22.30
   5  -2  11  136.89   18.80
   5  -2  11  105.09   14.80
  -5  -2 -11  110.59   22.80
   5   2  11   91.19   22.00
  -5   2 -11  108.49   17.70
   5   2  11  103.99   21.30
   6  -2  11   88.39   14.40
  -6  -2 -11  126.99   28.40
   6  -2  11   81.69   15.80
   6  -2  11   75.29   17.20
   6   2  11   71.69   16.90
  -6   2 -11  100.99   20.50
   7  -2  11  325.07   28.40
   7  -2  11  283.97   24.30
  -7  -2 -11  314.87   33.90
   7  -2  11  319.47   30.30
   7   2  11  359.16   32.20
   8  -2  11  127.49   21.30
   8  -2  11  117.69   22.90
   8  -2  11  102.19   16.50
  -8   2 -11  118.09   18.60
   8   2  11  126.09   20.30
   8   2  11  100.29   24.20
   9  -2  11  215.08   21.70
   9  -2  11  228.88   24.00
   9  -2  11  251.77   27.40
   9  -2  11  196.88   23.50
   9   2  11  227.28   28.40
   9   2  11  222.48   26.80
  10  -2  11   14.90    8.30
  10  -2  11    9.70    9.00
  10  -2  11   18.30    9.90
  10   2  11   19.40   13.70
  10   2  11   18.00   12.60
  11  -2  11   14.50   10.20
  11  -2  11   17.90    9.80
  11   2  11   -1.20    6.60
  11   2  11   25.40   13.40
  12  -3 -11   32.10   17.10
  12   3 -11   80.99   42.30
  12   3 -11   46.10   19.10
  11  -3 -11   46.60   20.80
  11  -3 -11    8.70    7.20
  11   3 -11   14.70   15.00
  11   3 -11    5.10    9.20
  10  -3 -11  138.39   31.10
  10  -3 -11  138.39   18.90
  10   3 -11  162.78   39.80
 -10   3  11  129.69   17.10
  10   3 -11  127.99   28.40
   9  -3 -11  137.59   31.40
   9  -3 -11  113.79   18.10
   9   3 -11   83.99   25.40
  -9   3  11  104.09   19.40
   9   3 -11  159.18   31.90
   8  -3 -11  129.09   30.10
   8  -3 -11  143.79   19.80
  -8   3  11  141.59   18.10
   8   3 -11  121.39   26.20
   8   3 -11  132.69   32.10
   7  -3 -11  367.96   31.10
   7  -3 -11  387.56   38.70
  -7   3  11  367.66   29.10
   7   3 -11  357.26   36.10
   7   3 -11  368.26   39.70
   6  -3 -11   21.50   10.10
   6  -3 -11   23.70   11.50
   6   3 -11   13.40   13.10
  -6   3  11   30.50   10.60
   6   3 -11   33.70   15.20
  -5  -3  11   53.99   16.70
   5  -3 -11   66.99   17.90
   5  -3 -11   44.50   16.00
   5   3 -11   53.79   16.90
  -5   3  11   52.79   13.50
  -5   3  11   96.39   22.60
   5   3 -11   26.10   13.00
   4  -3 -11 1037.30   54.59
   4  -3 -11 1060.89   59.39
  -4  -3  11 1129.09   57.69
  -4  -3  11  972.20   54.89
   4   3 -11  945.41   57.39
  -4   3  11 1082.99   54.29
  -4   3  11  961.40   56.09
   4   3 -11 1020.90   58.99
  -3  -3  11  448.46   35.30
  -3  -3  11  504.35   36.90
   3  -3 -11  521.45   39.40
   3  -3 -11  540.95   37.60
   3   3 -11  536.05   40.20
  -3   3  11  472.45   34.60
  -3   3  11  461.25   36.20
   3   3 -11  569.24   39.70
   2  -3 -11  269.97   26.70
  -2  -3  11  356.46   28.60
  -2   3  11  329.77   31.60
  -2   3  11  317.57   28.30
   2   3 -11  333.87   28.90
   2   3 -11  309.77   35.80
  -1  -3  11  406.56   31.60
   1  -3 -11  386.36   32.40
   1  -3 -11  350.26   31.00
  -1  -3  11  458.75   31.00
  -1   3  11  391.86   32.10
   1   3 -11  430.16   31.00
   1   3 -11  379.16   32.40
  -1   3  11  372.16   31.30
   0  -3 -11   53.99   16.10
   0  -3  11   36.50   12.00
   0  -3 -11   51.99   15.70
   0  -3  11   47.60   11.10
   0   3 -11   87.99   16.90
   0   3  11   40.40   12.30
   0   3  11   73.59   18.60
   0   3 -11   51.09   15.20
  -1  -3 -11  103.59   21.80
   1  -3  11  100.79   16.00
   1  -3  11  132.09   15.50
  -1  -3 -11   80.59   16.90
  -1   3 -11   90.99   18.50
   1   3  11  127.19   24.10
   1   3  11   96.39   20.70
  -1   3 -11  123.29   15.30
   2  -3  11   78.29   12.00
  -2  -3 -11   54.99   17.30
  -2  -3 -11   65.09   19.20
   2  -3  11   72.19   15.50
  -2   3 -11   86.19   16.20
   2   3  11   80.89   19.60
  -2   3 -11   74.29   17.20
  -3  -3 -11  165.18   22.90
   3  -3  11  222.98   18.90
   3  -3  11  189.48   21.30
   3   3  11  156.38   22.30
   3   3  11  128.19   19.70
  -3   3 -11  232.18   19.70
  -3   3 -11  159.78   20.40
   4  -3  11  254.57   24.70
  -4  -3 -11  223.28   27.20
   4  -3  11  258.67   21.00
  -4   3 -11  256.47   25.50
   4   3  11  283.07   29.80
   4   3  11  256.47   27.90
   5  -3  11  149.29   16.80
   5  -3  11  165.68   20.40
  -5  -3 -11  179.98   25.20
  -5   3 -11  206.78   23.00
   6  -3  11   96.29   19.40
   6  -3  11   66.79   11.10
  -6  -3 -11   52.89   17.10
   6  -3  11   69.69   15.10
   6   3  11   66.29   18.20
  -6   3 -11  104.39   21.10
   7  -3  11   21.10    9.90
   7  -3  11   12.80    6.30
  -7  -3 -11   21.60   12.70
   7  -3  11   21.20    9.20
  -7   3 -11    2.40    5.90
   7   3  11   13.20   10.50
   8  -3  11    0.00    5.40
   8  -3  11    1.00    4.80
   8  -3  11   -1.40    4.40
   8   3  11    1.50    5.10
  -8   3 -11    0.60    4.40
   8   3  11    2.90    7.10
   9  -3  11   -0.50    4.60
   9  -3  11    1.40    5.50
   9  -3  11   -1.30    2.90
   9  -3  11    3.60    5.30
   9   3  11    6.50    8.80
   9   3  11    4.20    7.90
  10  -3  11   52.39   14.60
  10  -3  11   69.49   19.40
  10  -3  11   52.29   12.00
  10  -3  11   50.69   14.10
  10   3  11   47.30   16.90
  10   3  11   40.50   16.40
  11  -3  11  127.69   19.50
  11  -3  11  118.79   13.90
  11   3  11  210.88   28.80
  11   3  11   43.50   17.60
  12  -4 -11   13.00   12.60
  12   4 -11   19.30   16.50
  12   4 -11   35.20   18.70
  11  -4 -11    1.90    4.30
  11  -4 -11    8.20   10.50
  11   4 -11   -3.70    6.90
  11   4 -11   -4.20    8.30
  10  -4 -11   32.20   11.50
  10  -4 -11   42.80   18.30
  10   4 -11   55.29   21.80
  10   4 -11   47.40   21.20
 -10   4  11   35.20   10.50
   9  -4 -11   29.30   15.30
   9  -4 -11   16.70    9.00
  -9   4  11   17.00    8.50
   9   4 -11   21.10   14.80
   9   4 -11   30.00   18.30
   8  -4 -11  108.69   20.60
   8  -4 -11   51.49   17.40
   8   4 -11   73.89   22.20
  -8   4  11   99.79   14.80
   8   4 -11   87.49   23.90
   7  -4 -11  212.48   23.30
   7  -4 -11  177.68   26.80
   7   4 -11  217.78   30.80
  -7   4  11  199.98   21.30
   7   4 -11  218.68   29.70
   6  -4 -11   73.69   21.50
   6  -4 -11   37.40   12.40
  -6   4  11   48.40   13.70
   6   4 -11   95.19   25.10
   6   4 -11   45.60   17.40
   5  -4 -11  174.18   24.90
   5  -4 -11  159.48   20.60
  -5   4  11  148.79   18.90
   5   4 -11  158.78   24.20
   5   4 -11  142.89   23.60
   4  -4 -11  328.37   32.20
  -4  -4  11  287.47   28.70
  -4  -4  11  325.57   30.20
   4  -4 -11  273.87   27.20
  -4   4  11  376.96   33.50
  -4   4  11  350.56   29.40
   4   4 -11  352.26   33.30
   4   4 -11  334.67   33.20
  -3  -4  11  165.48   21.60
   3  -4 -11  189.58   22.60
  -3  -4  11  211.08   23.50
   3  -4 -11  208.28   24.60
   3   4 -11  202.08   25.20
   3   4 -11  164.28   22.40
  -3   4  11  200.98   24.20
  -3   4  11  208.68   22.90
  -2  -4  11   50.19   13.90
   2  -4 -11   44.70   15.90
  -2  -4  11   39.40   13.00
   2  -4 -11   42.90   13.30
  -2   4  11   19.30    9.20
  -2   4  11   73.89   17.90
   2   4 -11   48.40   16.40
   2   4 -11   33.80   12.40
   1  -4 -11    6.90    5.40
  -1  -4  11    8.80    6.60
  -1  -4  11   13.40    8.60
   1  -4 -11    8.00    6.20
   1   4 -11    8.10    6.70
  -1   4  11   16.80   11.80
   1   4 -11   20.80   10.40
  -1   4  11    4.30    6.60
   0  -4  11   48.70   12.90
   0  -4  11   46.40   12.30
   0  -4 -11   66.09   17.90
   0   4 -11   46.70   12.60
   0   4  11   49.80   17.00
   0   4 -11   82.09   20.60
   0   4  11   89.49   23.00
   1  -4  11  166.48   20.10
  -1  -4 -11  140.99   20.60
  -1  -4 -11  146.79   21.20
   1  -4  11  137.79   15.50
  -1   4 -11  153.08   20.40
  -1   4 -11  170.48   17.70
   1   4  11  131.99   19.60
   1   4  11  179.28   22.90
   2  -4  11  250.07   24.50
  -2  -4 -11  298.17   30.20
  -2  -4 -11  258.47   27.40
   2  -4  11  249.68   19.90
   2   4  11  266.47   28.00
  -2   4 -11  252.37   20.70
   2   4  11  258.47   28.10
  -2   4 -11  229.38   24.90
  -3  -4 -11  485.25   40.20
   3  -4  11  482.15   34.10
   3  -4  11  474.45   27.30
  -3   4 -11  480.25   35.50
   3   4  11  450.25   38.00
   3   4  11  528.65   41.60
  -3   4 -11  566.74   29.90
   4  -4  11   35.80    9.20
  -4  -4 -11   31.20   14.20
   4  -4  11   20.70    9.40
  -4   4 -11    6.80    7.60
   5  -4  11   16.00    7.10
   5  -4  11   -3.40    3.70
   5  -4  11   16.00    6.20
  -5   4 -11    8.60    7.90
   6  -4  11  248.98   23.80
   6  -4  11  285.77   21.30
   6  -4  11  285.37   19.20
  -6  -4 -11  229.28   30.50
  -6   4 -11  294.47   27.00
   6   4  11  322.57   31.60
   7  -4  11  240.98   20.30
   7  -4  11  269.87   19.10
   7  -4  11  199.08   21.20
   7   4  11  202.98   26.50
  -7   4 -11  237.98   24.00
   7   4  11  281.57   30.70
   8  -4  11  217.18   18.50
   8  -4  11  184.28   19.80
   8  -4  11  197.58   19.00
   8   4  11  212.38   28.10
  -8   4 -11  187.78   20.80
   8   4  11  221.78   28.10
   9  -4  11  200.98   18.20
   9  -4  11  189.28   18.40
   9  -4  11  191.58   19.50
   9  -4  11  268.57   22.80
   9   4  11  238.98   30.10
   9   4  11  197.68   28.70
  10  -4  11   62.79   12.20
  10  -4  11   82.79   13.60
  10   4  11   88.39   25.30
  10   4  11  125.79   28.70
  11  -4  11   26.90   11.20
  11   4  11   69.99   20.80
  11   4  11   22.00   13.70
  11  -5 -11  217.78   34.20
  11   5 -11  169.18   35.90
  11   5 -11  148.49   34.80
  10  -5 -11   15.90    6.70
  10  -5 -11   35.10   18.20
  10   5 -11   25.90   17.60
  10   5 -11   29.20   15.70
   9  -5 -11  436.96   30.20
   9  -5 -11  468.85   46.20
   9   5 -11  492.45   47.10
  -9   5  11  375.26   26.60
   9   5 -11  470.65   50.39
   8  -5 -11  109.99   26.90
   8  -5 -11  101.59   15.40
   8   5 -11   89.59   25.30
  -8   5  11   90.99   14.00
   8   5 -11   78.89   24.10
   7  -5 -11   11.50    8.90
   7  -5 -11   10.30    7.70
  -7   5  11   12.20    8.40
   7   5 -11    2.00   10.70
   7   5 -11   -4.70    6.90
   6  -5 -11   68.79   17.00
   6  -5 -11   65.19   20.00
   6   5 -11   83.29   23.60
  -6   5  11  115.29   16.80
   6   5 -11   66.39   21.80
   5  -5 -11  242.08   25.20
   5  -5 -11  269.67   30.30
   5   5 -11  265.27   31.50
  -5   5  11  250.17   24.90
   5   5 -11  241.88   29.90
   4  -5 -11  155.18   20.60
   4  -5 -11  150.18   22.40
   4   5 -11  144.29   22.40
   4   5 -11  114.99   23.50
  -4   5  11  130.09   20.50
  -4   5  11  136.29   18.80
  -3  -5  11  673.03   48.00
   3  -5 -11  629.74   44.80
   3  -5 -11  729.43   45.60
  -3  -5  11  585.14   40.20
  -3   5  11  636.24   42.40
   3   5 -11  673.03   45.10
   3   5 -11  684.93   47.60
  -3   5  11  655.83   45.30
  -2  -5  11   88.79   17.30
   2  -5 -11  107.79   20.90
  -2  -5  11  126.59   18.90
   2  -5 -11   70.59   17.00
  -2   5  11  102.19   17.10
   2   5 -11   80.49   17.50
   2   5 -11   98.49   21.00
  -2   5  11   99.69   20.90
  -1  -5  11  226.88   24.20
   1  -5 -11  226.28   26.60
   1  -5 -11  221.98   25.50
  -1  -5  11  210.28   21.10
  -1   5  11  242.98   34.60
  -1   5  11  207.28   24.70
   1   5 -11  185.18   24.00
   1   5 -11  220.28   22.30
   0  -5  11   -2.70    2.80
   0  -5 -11    6.30    6.20
   0  -5 -11    5.20    7.00
   0  -5  11    4.30    6.20
   0   5 -11   19.60   10.50
   0   5  11    5.30    6.00
   0   5 -11    5.50    7.00
   0   5  11   23.10   11.50
   1  -5  11   46.30   10.90
   1  -5  11   44.30   12.90
  -1  -5 -11   27.50   13.50
  -1  -5 -11   39.80   14.00
  -1   5 -11   43.70   11.70
   1   5  11   75.29   19.70
   1   5  11   47.00   15.60
   2  -5  11   26.30    7.90
  -2  -5 -11   14.30    9.20
   2  -5  11    5.50    6.70
   2   5  11   26.30   12.20
  -2   5 -11   19.30    7.30
   2   5  11    6.60    6.60
  -2   5 -11   18.50   10.10
   3  -5  11  218.38   18.70
  -3  -5 -11  216.68   27.60
   3  -5  11  196.08   21.40
  -3   5 -11  216.38   23.70
  -3   5 -11  224.98   17.20
   4  -5  11  120.09   17.10
   4  -5  11  105.09   11.10
  -4  -5 -11  113.99   26.60
  -4   5 -11  135.19   24.60
   5  -5  11  261.07   15.00
  -5  -5 -11  239.18   31.20
   5  -5  11  243.18   16.10
   5  -5  11  239.68   23.10
  -5   5 -11  234.08   24.40
   6  -5  11   17.40    5.20
  -6  -5 -11   11.90   12.30
   6  -5  11   28.40   10.90
   6  -5  11   22.50    6.20
   6   5  11   31.70   13.90
  -6   5 -11   17.20    8.60
   7  -5  11   10.80    7.60
   7  -5  11   13.00    5.20
   7  -5  11   19.70    6.00
   7   5  11    9.40    8.80
   7   5  11   29.00   13.30
  -7   5 -11   25.80    9.90
   8  -5  11   58.09   12.80
   8  -5  11   55.09    8.40
   8  -5  11   73.79   15.00
  -8   5 -11   62.49   14.30
   8   5  11   90.59   24.00
   8   5  11   52.79   23.20
   9  -5  11   -1.40    4.50
   9  -5  11    0.70    2.90
   9  -5  11    3.00    4.00
   9   5  11   -3.80    4.00
   9   5  11    3.30    7.50
  10  -5  11   37.70    7.00
  10  -5  11   38.90    8.90
  10   5  11   31.40   15.90
  10   5  11   24.80   12.30
  11   5  11   80.69   24.40
  11   5  11  101.79   27.30
  11  -6 -11    4.40    9.50
  11   6 -11   -0.60   11.70
  11   6 -11    7.00   10.70
  10  -6 -11    5.80    8.90
  10  -6 -11   15.70    5.40
  10   6 -11   20.20   14.60
  10   6 -11   29.30   18.50
   9  -6 -11   51.89   18.20
   9  -6 -11   49.60   11.40
   9   6 -11   47.90   18.60
   9   6 -11   46.90   19.10
  -9   6  11   51.69   11.40
   8  -6 -11   -3.40    6.70
   8  -6 -11    5.50    5.60
   8   6 -11   -5.80    6.10
   8   6 -11  -10.20    4.40
  -8   6  11    2.00    5.20
   7  -6 -11    0.60    6.50
   7  -6 -11   14.70    8.60
   7   6 -11   10.60   11.30
  -7   6  11   -2.70    4.30
   7   6 -11   -7.10    4.70
   6  -6 -11  141.19   28.70
   6  -6 -11  112.19   17.50
   6   6 -11  103.59   25.80
  -6   6  11  103.19   20.10
   6   6 -11   93.59   25.40
   5  -6 -11   21.00   11.10
   5  -6 -11   27.80   13.90
  -5   6  11   19.30    9.80
   5   6 -11   17.60   12.00
   5   6 -11   32.60   15.90
   4  -6 -11  185.88   23.10
   4  -6 -11  140.79   22.40
  -4   6  11  166.28   21.40
   4   6 -11  190.98   27.10
   4   6 -11  248.18   29.10
   3  -6 -11   73.69   20.70
  -3  -6  11  102.79   20.50
  -3   6  11   94.09   22.50
   3   6 -11   66.19   17.30
   3   6 -11   61.59   17.90
  -3   6  11   57.89   17.30
   2  -6 -11   53.49   15.80
   2  -6 -11   15.20   10.00
  -2  -6  11   31.00   15.40
   2   6 -11   52.49   15.90
   2   6 -11   30.50   14.00
  -2   6  11   39.20   15.60
  -2   6  11   50.89   15.40
   1  -6 -11    2.40    5.90
   1  -6 -11   -6.20    2.80
  -1  -6  11    9.70    8.10
  -1  -6  11   -1.70    3.20
  -1   6  11   -6.50    3.20
  -1   6  11   -4.10    3.00
   1   6 -11   -6.00    2.90
   1   6 -11    7.50    7.80
   0  -6 -11  468.25   39.20
   0  -6 -11  514.35   41.00
   0  -6  11  480.35   36.30
   0  -6  11  515.75   30.90
   0   6  11  439.46   37.70
   0   6 -11  502.05   32.30
   0   6  11  468.75   38.80
   0   6 -11  468.35   38.00
   1  -6  11  160.68   20.40
  -1  -6 -11  157.28   23.60
  -1  -6 -11  125.89   20.60
   1  -6  11  163.58   15.80
  -1   6 -11  145.39   16.40
   1   6  11  204.98   29.80
   1   6  11  174.78   24.10
  -1   6 -11  161.98   21.80
   2  -6  11  357.26   21.70
  -2  -6 -11  324.67   34.30
  -2   6 -11  343.77   31.90
  -2   6 -11  371.36   23.50
   3  -6  11    5.40    7.50
  -3  -6 -11   -2.90    5.00
   3  -6  11    6.40    4.30
  -3   6 -11    8.90    4.50
  -3   6 -11    9.00    7.90
   4  -6  11  134.99   18.20
   4  -6  11  123.89    9.30
  -4  -6 -11  115.99   27.10
  -4   6 -11  118.59   22.40
  -5  -6 -11   60.29   19.80
   5  -6  11   41.50   12.50
  -5   6 -11   50.49   15.10
   6  -6  11   37.00   11.20
  -6   6 -11   38.40   12.70
   6   6  11   48.20   17.20
   6   6  11   52.89   19.70
   7  -6  11    2.70    4.20
   7   6  11    4.50    9.00
   7   6  11   -7.10    3.30
  -7   6 -11    0.80    5.20
   8  -6  11  236.08   19.20
   8   6  11  220.08   30.80
   8   6  11  349.57   69.59
  -8   6 -11  230.98   20.70
   9  -6  11   12.90    4.80
   9   6  11    8.70    8.20
   9   6  11   -1.00    8.30
  10   6  11  136.19   29.40
  10   6  11   81.79   26.60
  11   6  11    0.30    6.20
  11   6  11   -0.60    6.70
  11  -7 -11   75.09   24.40
  11   7 -11   54.49   24.60
  11   7 -11   78.29   27.50
  10  -7 -11   15.90   13.60
  10   7 -11   -1.90    9.50
  10   7 -11   10.20   12.90
   9  -7 -11  351.26   21.90
   9  -7 -11  339.87   38.60
   9   7 -11  269.17   40.10
   9   7 -11  357.76   44.00
  -9   7  11  299.17   19.90
   8  -7 -11   15.00    7.50
   8  -7 -11   -2.60    5.00
   8   7 -11   10.30   10.20
   8   7 -11   34.20   17.60
  -8   7  11    5.90    5.50
   7  -7 -11   72.69   16.40
   7  -7 -11   40.00   15.40
  -7   7  11   45.40   13.40
   7   7 -11   55.49   20.10
   6  -7 -11    4.20    5.80
   6  -7 -11   -2.40    4.60
  -6   7  11   -3.70    3.40
   6   7 -11   -4.50    5.10
   6   7 -11    8.80   11.30
   5  -7 -11  529.15   37.90
   5  -7 -11  424.26   39.80
   5   7 -11  487.55   43.90
  -5   7  11  543.45   37.70
   5   7 -11  529.35   47.10
   4  -7 -11   56.39   19.50
   4  -7 -11   60.19   19.60
   4   7 -11   45.00   16.60
   4   7 -11   56.99   17.00
  -3  -7  11  422.36   34.40
   3  -7 -11  464.25   39.30
   3  -7 -11  472.25   37.80
   3   7 -11  375.56   34.70
   3   7 -11  464.65   41.70
  -3   7  11  458.95   36.90
   2  -7 -11  303.97   32.10
  -2  -7  11  280.17   25.90
   2  -7 -11  249.38   28.20
   2   7 -11  261.47   27.20
   2   7 -11  286.47   32.10
  -2   7  11  227.28   26.80
   1  -7 -11  544.25   42.80
  -1  -7  11  527.25   34.40
   1  -7 -11  632.44   46.10
   1   7 -11  666.73   47.10
  -1   7  11  558.04   43.10
   1   7 -11  568.94   37.80
   0  -7 -11   80.89   19.80
   0  -7  11   85.69   19.00
   0  -7  11   86.89   13.00
   0  -7 -11  105.19   22.90
   0   7 -11   87.29   14.10
   0   7 -11   87.19   20.20
   1  -7  11    6.90    5.10
  -1  -7 -11    8.70   10.10
   1  -7  11   16.30    9.80
  -1   7 -11   -1.60    4.00
  -1   7 -11   -4.50    3.90
   2  -7  11    1.70    3.60
  -2  -7 -11   -2.90    6.00
   2  -7  11    3.20    5.00
  -2   7 -11    4.80    5.20
  -2   7 -11   -1.80    3.00
   3  -7  11  373.26   17.10
   3  -7  11  346.27   30.00
  -3  -7 -11  407.36   40.50
  -3   7 -11  379.66   19.10
  -3   7 -11  377.56   32.70
   4  -7  11  126.89   17.60
  -4  -7 -11  118.39   25.80
  -4   7 -11  159.48   32.50
   5  -7  11   95.29   14.80
  -5   7 -11  110.89   22.60
   5   7  11   68.69   18.00
   5   7  11   71.19   20.10
   6  -7  11    9.60    6.20
   6   7  11    3.00    7.50
  -6   7 -11    7.20    6.30
   6   7  11    3.20    8.30
   7  -7  11   -0.40    4.20
  -7   7 -11    8.00    6.30
   7   7  11   -4.40    4.00
   8  -7  11   26.10    8.00
  -8   7 -11   61.99   12.60
   8   7  11   13.60   10.50
   8   7  11   25.50   14.60
   9   7  11    7.40   11.20
   9   7  11   29.70   15.80
  10   7  11   57.89   23.00
  10   7  11   44.50   19.00
  10  -8 -11    4.20   10.00
  10   8 -11    7.20   11.60
  10   8 -11   -4.30   10.40
   9  -8 -11   -1.30    6.80
   9   8 -11   -7.10    6.00
  -9   8  11    3.80    3.40
   9   8 -11   -0.80    7.60
   8  -8 -11   18.50    8.10
   8  -8 -11   12.20   11.50
   8   8 -11    0.30    7.70
  -8   8  11    5.90    6.30
   8   8 -11   12.20   12.40
   7  -8 -11   -1.90    5.20
   7  -8 -11   13.90   10.90
   7   8 -11   -3.90    5.70
   7   8 -11   -7.40    5.70
  -7   8  11   -3.70    3.70
   6  -8 -11  103.49   26.10
   6  -8 -11   94.79   19.60
   6   8 -11   96.49   26.50
   6   8 -11   67.09   22.20
  -6   8  11  112.99   17.30
   5  -8 -11  142.49   22.20
   5  -8 -11  121.79   25.80
   5   8 -11  188.98   29.70
   5   8 -11  196.48   29.60
  -5   8  11  153.18   32.30
   4  -8 -11    3.90    6.30
   4  -8 -11   -2.60    5.40
   4   8 -11   -1.20    6.80
  -4   8  11   16.60   10.40
   4   8 -11   12.90   10.10
   3  -8 -11   11.80    9.70
   3  -8 -11   16.50   11.40
  -3   8  11   33.30   13.90
   3   8 -11    6.70    8.50
   3   8 -11   24.40   13.70
   2  -8 -11   38.60   15.50
  -2  -8  11   34.20   12.60
   2  -8 -11   34.30   13.20
  -2   8  11   33.20   14.10
   2   8 -11   22.80   13.50
   2   8 -11   33.40   12.50
   1  -8 -11   64.69   18.40
   1  -8 -11   37.50   15.40
  -1  -8  11   49.50   13.10
   1   8 -11   28.70   13.30
   1   8 -11   33.30   12.10
   0  -8 -11    5.00    7.50
   0  -8 -11    2.00    7.20
   0  -8  11    2.10    4.40
   0   8 -11   -7.30    3.50
   0   8 -11   -9.00    4.50
  -1  -8 -11  268.17   32.60
   1  -8  11  232.28   18.40
   1  -8  11  271.97   36.90
  -1   8 -11  235.78   28.30
  -1   8 -11  223.58   20.00
  -2  -8 -11  617.34   50.99
   2  -8  11  621.74   41.70
  -2   8 -11  683.23   31.60
  -2   8 -11  646.04   45.70
  -3  -8 -11  153.38   32.80
   3  -8  11  128.89   18.30
  -3   8 -11  145.99   20.90
   4  -8  11    1.00    4.30
   4   8  11    7.10    9.20
  -4   8 -11   -3.10    5.00
   5  -8  11   19.80    9.60
  -5   8 -11   19.70   10.90
   5   8  11   17.70   11.20
   5   8  11   23.30   12.20
   6  -8  11   38.00   11.60
  -6   8 -11   50.79   14.70
   6   8  11   37.40   15.90
   6   8  11   57.09   27.00
   7  -8  11    2.50    4.50
  -7   8 -11    6.80    6.60
   7   8  11   12.60   11.60
   7   8  11   -1.70    5.20
  -8   8 -11  124.39   13.00
   8   8  11  103.99   25.50
   8   8  11  138.89   32.10
   9   8  11   40.60   19.10
   9   8  11   57.49   22.50
  10   8  11   14.80   16.00
  10   8  11   31.30   18.30
  10  -9 -11   89.99   24.00
  10   9 -11   78.39   29.60
  10   9 -11  113.89   35.30
   9  -9 -11   92.89   27.30
   9   9 -11  138.09   37.60
   9   9 -11  163.18   43.00
   8  -9 -11   25.30   14.40
  -8   9  11    4.10    4.50
   8   9 -11   11.00   12.10
   8   9 -11   20.40   19.10
  -8   9  11   11.10   10.20
   7  -9 -11   26.60   15.10
  -7   9  11   17.60    8.60
   7   9 -11   28.00   16.70
   7   9 -11   -0.20    7.20
   6  -9 -11   -4.90    4.70
   6  -9 -11   23.80   13.40
   6   9 -11   19.30   15.20
  -6   9  11    5.60    6.50
   5  -9 -11    1.00    5.80
   5  -9 -11    1.90    6.50
  -5   9  11   -0.80    5.00
   5   9 -11    8.60   11.70
   5   9 -11   -5.30    5.00
   4  -9 -11    6.40    8.80
   4  -9 -11    5.50    7.70
  -4   9  11   22.30   11.90
   4   9 -11    4.80    9.40
   4   9 -11   15.60   13.30
   3  -9 -11  201.28   27.50
   3  -9 -11  195.38   26.00
   3   9 -11  192.48   29.30
   3   9 -11  206.18   26.80
   2  -9 -11  324.17   34.40
   2  -9 -11  264.37   31.40
  -2  -9  11  269.57   26.80
   2   9 -11  332.97   37.00
   2   9 -11  353.06   32.40
   1  -9 -11    3.10    8.10
   1  -9 -11   36.10   16.40
   1   9 -11   31.40   13.40
   1   9 -11   26.40   11.70
   0  -9  11   -1.90    3.10
   0  -9 -11    2.70    8.70
   0   9 -11   -5.30    6.30
   0   9 -11    3.20    5.70
  -1  -9 -11  187.18   28.50
   1  -9  11  181.08   16.00
  -1   9 -11  151.18   23.70
  -1   9 -11  184.78   18.30
  -2  -9 -11    2.20    7.60
   2  -9  11    2.10    2.90
  -2   9 -11   -5.60    4.70
   2   9  11   -4.30    4.40
  -2   9 -11    1.40    3.30
   3  -9  11  142.19   20.00
   3   9  11  160.98   25.20
  -3   9 -11  206.88   25.70
   4  -9  11  108.99   21.20
   4   9  11   56.59   18.40
  -4   9 -11   45.10   15.90
   5  -9  11  109.49   24.80
   5   9  11   92.39   24.20
  -5   9 -11  119.39   18.80
   5   9  11  136.99   31.20
   6  -9  11  175.28   18.70
   6   9  11  172.58   28.90
   6   9  11  253.97   33.10
  -6   9 -11  162.38   20.20
   7  -9  11   -1.40    3.10
   7   9  11   -1.70    6.60
  -7   9 -11    8.30    7.00
   7   9  11    0.80    6.50
   8  -9  11    5.00    3.90
   8   9  11    7.10   11.90
  -8   9 -11   13.70    5.50
   8   9  11   21.60   15.90
   9   9  11    0.00    7.20
   9   9  11   28.50   18.80
   9 -10 -11   15.40   11.10
   9  10 -11   18.00   17.10
   9  10 -11   11.40   15.20
   8 -10 -11   14.30   12.80
   8  10 -11   -7.20    6.80
  -8  10  11    9.20    5.10
   8  10 -11   -7.30    6.10
   7 -10 -11   44.60   18.50
  -7  10  11   46.50   13.90
  -7  10  11   37.20   10.90
   7  10 -11   49.70   23.70
   7  10 -11   33.10   17.80
   6 -10 -11  164.38   27.00
   6  10 -11  195.28   32.20
  -6  10  11  235.98   22.60
  -6  10  11  157.98   21.40
   6  10 -11  130.39   33.40
   5 -10 -11  194.98   28.60
  -5  10  11  224.28   26.80
   5  10 -11  238.68   34.90
   5  10 -11  229.28   32.50
  -5  10  11  221.78   23.50
   4 -10 -11   62.19   18.60
   4 -10 -11   90.99   23.40
   4  10 -11   40.00   17.00
   4  10 -11   20.80   23.00
   3 -10 -11   23.20   12.90
   3 -10 -11   60.59   21.00
   3  10 -11   34.80   18.50
   3  10 -11   52.69   18.00
   2 -10 -11    3.60    7.10
   2 -10 -11    9.80    8.70
   2  10 -11    8.70    9.10
   2  10 -11   11.40   11.80
  -1 -10  11   55.59   14.10
   1 -10 -11   73.29   22.80
   1  10 -11   65.09   17.20
   1  10 -11   77.39   23.80
   0 -10  11    3.80    4.30
   0 -10 -11   13.20   13.10
   0  10 -11   -1.50    8.30
   0  10  11    9.40    8.70
   0  10 -11   19.30    9.40
   1 -10  11  151.58   14.70
   1  10  11  132.09   26.90
  -1  10 -11  136.09   16.00
  -1  10 -11  155.28   24.60
  -2  10 -11  325.57   19.80
  -2  10 -11  366.86   36.20
   2  10  11  399.26   38.80
   3  10  11  249.68   32.00
  -3  10 -11  145.69   23.00
   4 -10  11   87.99   19.10
  -4  10 -11  117.79   25.70
   4  10  11   91.89   25.80
   4  10  11  108.99   28.40
   5 -10  11    8.80    7.40
   5  10  11    3.90    8.70
   5  10  11   22.40   13.50
  -5  10 -11   17.00   10.30
   6 -10  11   27.00   10.40
   6  10  11   75.09   23.00
   6  10  11   42.00   17.00
  -6  10 -11   81.79   19.10
   7 -10  11   44.50   12.20
  -7  10 -11   27.20    9.50
   7  10  11   35.00   17.20
   7  10  11    5.40   10.10
   8  10  11   25.80   15.40
   8  10  11   33.70   15.00
   9  10  11   84.59   31.50
   9  10  11   33.40   18.00
   9 -11 -11   67.49   34.40
   9  11 -11   44.00   23.10
   9  11 -11    8.00   12.80
   8 -11 -11  259.47   33.50
   8  11 -11  281.37   42.60
   8  11 -11  224.98   48.80
   7 -11 -11    1.80    6.80
   7  11 -11   -3.60    6.50
   7  11 -11   -2.50    6.50
  -7  11  11    6.90    5.40
   6 -11 -11    3.30    7.90
  -6  11  11   -1.50    5.00
   6  11 -11    1.50    8.70
  -6  11  11   -0.50    5.80
   6  11 -11    3.20   11.20
   5 -11 -11   61.49   20.00
  -5  11  11   56.49   16.00
   5  11 -11   23.20   15.00
   5  11 -11   56.29   23.70
   4 -11 -11   49.20   19.80
   4  11 -11   29.70   15.70
  -4  11  11   48.50   15.70
   4  11 -11  143.29   33.10
   3 -11 -11  149.59   30.50
   3  11 -11   76.79   22.30
  -3  11  11  124.09   25.30
   3  11 -11  152.08   35.50
   2  11 -11  322.27   32.60
   2  11 -11  369.16   41.20
  -2  11  11  344.77   34.00
  -1 -11  11   28.70   11.40
  -1  11  11   15.50   11.90
   1  11 -11   10.80    9.80
   1  11 -11   30.10   15.60
   0 -11  11   78.79   13.20
   0  11 -11  109.89   20.80
   0  11  11  115.99   25.00
   0  11 -11  118.19   26.90
   1  11  11   45.00   16.90
  -1  11 -11   47.70   11.60
  -1  11 -11   36.70   14.90
  -2  11 -11   29.70    7.30
  -2  11 -11    2.30    5.80
   3  11  11   42.90   18.10
  -3  11 -11   16.80   10.20
  -4  11 -11  140.59   22.20
   4  11  11  132.39   30.00
   4  11  11   97.99   24.20
   5 -11  11   49.30   14.50
  -5  11 -11   70.79   19.10
   5  11  11   56.09   19.60
   5  11  11  117.69   31.40
   6  11  11  150.78   32.60
  -6  11 -11  126.09   26.40
   6  11  11  131.89   32.30
  -7  11 -11   10.90    6.50
   7  11  11    2.40    8.10
   7  11  11    2.00    7.90
   8  11  11    4.60   12.90
   8  11  11   16.20   23.30
   8 -12 -11    0.30    8.30
   8  12 -11   35.90   27.10
   8  12 -11    7.70   12.90
   7 -12 -11  127.99   29.50
   7  12 -11   56.59   24.40
   7  12 -11   44.60   22.50
   6 -12 -11   59.69   19.70
   6  12 -11   28.10   19.10
  -6  12  11   25.90   10.30
   6  12 -11   49.40   22.30
   5 -12 -11   10.60    8.60
   5  12 -11   18.00   13.50
  -5  12  11   12.50    9.10
   5  12 -11   16.60   13.20
  -4  12  11    4.60    7.40
   4  12 -11   -6.10    5.80
   4  12 -11    5.20   11.40
   3  12 -11    6.70   10.50
  -3  12  11   34.90   14.80
   3  12 -11   44.10   17.60
   2  12 -11   29.40   13.00
  -2  12  11   77.69   22.10
   2  12 -11   40.10   17.70
  -1 -12  11   -0.70    4.90
   1  12 -11    6.60    7.20
  -1  12  11   11.70   11.20
   0  12  11   85.29   22.50
   0  12 -11   72.69   23.80
  -1  12 -11   81.59   25.10
  -1  12 -11   68.09   14.30
   1  12  11   72.69   20.30
  -2  12 -11   51.89    7.40
  -2  12 -11   45.40   18.40
   2  12  11   62.89   23.80
  -2  12 -11   40.50    6.00
   3  12  11   11.30   10.10
   3  12  11   31.40   15.60
  -3  12 -11   31.60   15.90
  -4  12 -11   73.99   20.00
   4  12  11   82.69   25.50
   4  12  11   49.60   19.00
   5  12  11   18.40   13.40
  -5  12 -11   -1.90    5.20
   5  12  11   -4.40    6.80
   6  12  11   -4.10    5.80
   6  12  11   10.40   13.80
  -6  12 -11    4.30    6.80
   7  12  11   89.09   33.90
   7  12  11   61.99   41.30
   7  13 -11    7.60   11.50
   7  13 -11    8.10   11.80
   6  13 -11    2.20    9.60
  -6  13  11    3.60    6.20
   6  13 -11   30.50   20.20
   5  13 -11   35.20   17.30
   5  13 -11   29.40   17.80
  -5  13  11   69.09   18.60
   4  13 -11    7.70   12.60
  -4  13  11   38.50   15.30
   4  13 -11   25.20   13.90
   3  13 -11    3.80    7.50
  -3  13  11   -0.80    4.90
   3  13 -11   -1.20    9.20
   2  13 -11  110.29   24.90
   2  13 -11  155.38   35.40
  -2  13  11  158.38   25.20
  -1  13  11   10.70   10.10
   1  13 -11    4.20    8.20
   1  13 -11   -9.30    6.20
   0  13 -11   33.50   13.00
   0  13  11   25.80   13.90
   0  13 -11   54.69   22.90
   1  13  11   20.20   14.90
  -1  13 -11    5.10    5.60
  -1  13 -11   -1.40    7.50
  -2  13 -11   14.70   13.20
   2  13  11    5.90   10.50
   2  13  11   12.00    9.80
  -3  13 -11   65.79   21.00
   3  13  11   58.99   19.80
   3  13  11   68.59   22.30
  -4  13 -11   82.19   22.10
   4  13  11   33.20   14.60
   4  13  11   25.70   16.40
  -5  13 -11    6.60    8.70
   5  13  11    5.00    8.30
   5  13  11   -0.60    6.60
   6  13  11   18.40   22.20
  -6  13 -11   38.00   13.60
   6  13  11   -7.30    8.80
  -6  14  11   13.00   10.10
   6  14 -11    5.90   11.80
   6  14 -11   37.40   22.00
   5  14 -11   58.89   31.60
   5  14 -11  177.88   38.60
  -5  14  11  146.99   27.20
  -4  14  11   13.00    8.90
   4  14 -11   12.10   12.60
   4  14 -11    6.60    9.80
  -3  14  11   18.10   14.60
   3  14 -11   32.20   19.70
   3  14 -11  101.59   40.50
  -2  14  11   36.60   16.20
   2  14 -11   65.79   26.40
   2  14 -11   56.29   18.20
   1  14 -11   21.60   11.40
  -1  14  11   38.90   16.00
   1  14 -11   60.89   24.30
   0  14  11    9.10    7.20
   0  14 -11   12.10   12.80
   0  14 -11   27.40   11.10
  -1  14 -11  103.49   14.00
   1  14  11  136.09   32.80
   1  14  11  106.79   27.50
  -1  14 -11  109.39   27.80
   2  14  11   97.49   27.90
  -2  14 -11  121.09   28.70
   2  14  11  115.79   29.40
   3  14  11  148.09   35.10
   3  14  11   87.79   27.20
  -3  14 -11  102.29   26.50
  -4  14 -11    4.20    8.90
   4  14  11   -6.20    8.10
   4  14  11    9.20   12.40
   5  14  11    4.30    9.80
  -5  14 -11    0.50    6.20
   5  14  11   11.70   13.70
  -4  15  11   54.19   18.30
   4  15 -11   67.79   24.80
   4  15 -11   64.99   28.00
  -3  15  11   20.20   13.80
   3  15 -11   32.00   21.40
   3  15 -11   16.10   13.40
   2  15 -11   12.00   14.10
   2  15 -11   55.39   19.10
  -2  15  11   46.00   18.90
  -1  15  11   10.70    9.20
   1  15 -11    2.90   10.40
   1  15 -11   -1.40    5.70
   0  15 -11   -4.20    6.40
   0  15  11   -0.20    5.30
   0  15 -11    9.70    8.40
   0  15  11   -2.40    5.50
   1  15  11    0.80    8.60
   1  15  11    0.90    6.70
  -1  15 -11   10.70   14.60
   2  15  11    4.30    7.70
   2  15  11   22.70   14.00
  -2  15 -11    6.10   10.60
   3  15  11   -2.90    5.30
  -3  15 -11   -0.60    6.20
  12   0 -12   38.10   15.80
  12   0 -12   33.10   20.50
  11   0 -12   -2.20    5.50
  11   0 -12   -8.40    5.80
  10   0 -12   51.49   18.70
  10   0 -12   41.10   15.50
   9   0 -12   -2.70    4.90
   9   0 -12   -9.90    5.30
   8   0 -12  750.12   59.49
   8   0 -12  972.30   58.29
  -7   0  12   -5.00    3.30
   7   0 -12   -4.50    5.70
   7   0 -12    1.60    5.40
   6   0 -12  270.57   32.90
  -6   0  12  309.67   29.00
   6   0 -12  277.07   30.00
   5   0 -12    8.70    7.90
   5   0 -12    3.10    6.70
  -5   0  12   -1.70    4.10
  -4   0  12   15.80    9.70
   4   0 -12   -4.50    5.00
   4   0 -12   -3.70    4.40
  -4   0  12    6.00    5.60
   3   0 -12   -2.00    9.10
  -3   0  12   -3.30    3.00
   3   0 -12    1.40    4.30
   2   0 -12  107.09   21.60
  -2   0  12  182.18   22.20
  -2   0  12  175.68   21.30
   1   0 -12    2.00    5.80
  -1   0  12    0.70    4.90
  -1   0  12   -4.90    2.10
   1   0 -12    3.90    5.00
   0   0  12  325.17   29.10
   0   0  12  320.37   27.60
   0   0 -12  311.77   29.30
   0   0 -12  270.27   26.10
   1   0  12    0.30    3.50
  -1   0 -12   -5.20    2.70
  -1   0 -12   -5.20    2.40
   1   0  12   10.80    8.60
  -2   0 -12   16.50    9.00
   2   0  12   -0.30    4.30
   2   0  12    9.40    7.50
  -2   0 -12   -1.00    4.50
  -3   0 -12    6.90    8.00
  -3   0 -12    3.90    4.60
   3   0  12   -2.10    3.00
   3   0  12   -1.90    3.40
   4   0  12  253.47   27.30
   4   0  12  240.78   24.70
  -4   0 -12  281.27   29.20
   5   0  12    7.40    7.30
  -5   0 -12   -3.30    4.00
   6   0  12  145.59   20.90
   6   0  12  181.08   20.80
  -6   0 -12  150.08   22.60
   6   0  12  162.28   22.90
  -7   0 -12    1.60    6.20
   7   0  12   -3.60    3.70
   7   0  12    0.20    4.00
   8   0  12  165.88   22.10
  -8   0 -12  156.48   23.90
   9   0  12   -1.10    4.10
   9   0  12    7.70    8.30
  10   0  12  156.08   21.80
  10   0  12  132.39   25.50
  11   0  12    5.10    7.80
  11   0  12    0.50    5.50
  12  -1 -12   34.50   14.50
  12  -1 -12   46.90   22.00
  12   1 -12   34.80   20.20
  12   1 -12   46.70   17.30
  11  -1 -12   -0.40    6.30
  11  -1 -12   -3.90    6.70
  11   1 -12   13.40   10.80
  11   1 -12    4.50   10.60
  10  -1 -12    8.10    8.70
  10  -1 -12   42.20   22.10
  10   1 -12   20.60   15.80
  10   1 -12   24.90   14.60
   9  -1 -12  198.08   26.40
   9   1 -12  269.87   37.20
   9   1 -12  310.97   34.00
   8  -1 -12    9.40   11.20
   8  -1 -12   20.80   12.30
  -8   1  12   13.70    9.20
   8   1 -12   11.30   10.70
   8   1 -12   16.40   13.60
   7  -1 -12  801.92   58.39
   7  -1 -12  707.03   48.30
   7   1 -12  709.73   50.59
  -7   1  12  811.22   47.70
   7   1 -12  743.13   56.79
   6  -1 -12   -4.40    4.90
   6  -1 -12   15.90   11.80
  -6  -1  12   13.40    8.90
   6   1 -12   -2.40    6.40
   6   1 -12    0.70    6.30
  -6   1  12    0.00    6.70
   5  -1 -12   51.99   15.70
  -5  -1  12   59.89   17.50
   5  -1 -12   36.60   13.00
   5   1 -12   64.69   18.60
  -5   1  12   51.29   14.30
   5   1 -12   61.89   19.10
  -4  -1  12    6.80    8.50
   4  -1 -12   11.60   11.00
   4  -1 -12    6.00    6.10
  -4  -1  12    1.40    4.70
   4   1 -12   -5.80    4.90
  -4   1  12    3.40    5.90
   4   1 -12   -3.10    4.50
  -3  -1  12  505.45   36.80
  -3  -1  12  506.65   37.40
   3  -1 -12  511.15   39.70
   3  -1 -12  439.56   37.10
   3   1 -12  516.55   39.30
  -3   1  12  549.45   37.90
   3   1 -12  542.85   40.40
  -3   1  12  525.25   38.90
  -2  -1  12  151.88   19.40
   2  -1 -12  162.78   21.40
  -2  -1  12  133.69   26.90
   2   1 -12  141.09   20.40
  -2   1  12  106.19   29.30
  -2   1  12  138.59   19.30
  -1  -1  12  303.67   27.90
  -1  -1  12  275.97   25.80
   1  -1 -12  282.57   28.20
   1  -1 -12  326.57   29.30
   1   1 -12  234.48   24.50
  -1   1  12  351.36   29.80
  -1   1  12  265.47   26.50
   0  -1 -12    1.00    4.20
   0  -1  12    3.40    4.50
   0  -1 -12    1.90    5.70
   0  -1  12   -5.30    3.00
   0   1  12   -1.80    2.90
   0   1  12   -3.50    2.70
   0   1 -12   -3.30    3.60
   0   1 -12    1.40    6.00
   1  -1  12  399.76   32.70
   1  -1  12  380.56   29.30
  -1  -1 -12  452.25   34.00
  -1  -1 -12  383.46   39.40
  -1   1 -12  399.86   30.80
  -1   1 -12  377.96   32.60
   1   1  12  435.86   33.30
   1   1  12  438.96   34.90
   2  -1  12    9.30    6.00
  -2  -1 -12    5.30    6.30
   2  -1  12   -3.10    3.10
  -2  -1 -12   -2.50    2.50
  -2   1 -12    1.90    5.50
   2   1  12    9.90    9.70
  -2   1 -12   15.10    8.90
   2   1  12   14.60    9.30
  -3  -1 -12 1258.17   62.39
   3  -1  12 1292.37   64.59
  -3  -1 -12 1407.26   69.29
   3  -1  12 1258.77   58.69
  -3   1 -12 1307.07   59.69
   3   1  12 1204.58   63.89
   3   1  12 1227.88   61.59
   4  -1  12    1.40    5.40
   4  -1  12   16.50    8.50
  -4  -1 -12    5.90    6.50
   4   1  12    4.70    4.90
   4   1  12   -0.30    3.40
  -4   1 -12   -1.20    4.40
   5  -1  12 1029.40   57.39
   5  -1  12 1007.70   52.99
  -5  -1 -12 1086.29   61.99
  -5   1 -12  999.20   57.29
   5   1  12 1047.50   60.39
   5   1  12 1018.20   57.99
   6  -1  12   54.89   18.60
   6  -1  12   49.60   15.30
  -6  -1 -12   50.69   16.70
   6  -1  12   40.90   13.60
   6   1  12   88.69   19.90
   6   1  12   21.90   12.00
  -6   1 -12   75.59   20.20
  -7  -1 -12  279.07   31.90
   7  -1  12  355.36   28.70
   7  -1  12  328.77   30.80
   7  -1  12  307.07   31.10
   7   1  12  284.17   28.10
  -7   1 -12  270.67   29.50
   8  -1  12   -2.70    4.00
   8  -1  12   16.60   12.00
   8  -1  12   27.60   15.20
  -8  -1 -12    4.40    7.20
   8   1  12   24.60   12.50
  -8   1 -12   17.20    9.70
   9  -1  12    3.40    5.70
   9  -1  12    0.70    4.50
   9   1  12   -0.40    4.40
   9   1  12    5.70    6.80
  10  -1  12   46.20   14.70
  10  -1  12   27.00   11.40
  10   1  12   38.50   14.10
  10   1  12   19.80   12.20
  11  -1  12  204.28   23.10
  11  -1  12  228.98   28.00
  11   1  12  198.78   29.30
  11   1  12  218.98   27.20
  12  -2 -12   75.09   28.00
  12  -2 -12   76.89   18.40
  12   2 -12   33.50   16.50
  12   2 -12   53.69   42.90
  11  -2 -12   30.20   17.70
  11  -2 -12   41.70   14.20
  11   2 -12   33.80   19.10
  11   2 -12   42.30   18.10
  10  -2 -12  126.19   24.80
  10  -2 -12   53.09   21.70
 -10   2  12   56.29   16.50
  10   2 -12   73.29   22.70
  10   2 -12  128.29   33.00
   9  -2 -12   12.80   13.40
   9  -2 -12   -0.80    6.70
   9   2 -12    6.90    8.90
   9   2 -12  -10.10    5.70
  -9   2  12   10.50    7.60
   8  -2 -12   96.49   27.40
   8  -2 -12   64.99   19.00
   8   2 -12   59.59   18.70
   8   2 -12   61.99   20.10
  -8   2  12   35.20   13.30
   7  -2 -12   12.10   12.70
   7  -2 -12    9.40    9.20
   7   2 -12   17.50   12.10
  -7   2  12   18.20    9.70
   7   2 -12   14.10   11.30
   6  -2 -12  144.99   31.90
   6  -2 -12  112.69   22.90
  -6   2  12  102.19   17.20
   6   2 -12  134.89   27.50
   6   2 -12  158.88   32.50
  -5  -2  12  134.19   20.20
   5  -2 -12  146.29   23.60
   5  -2 -12  151.88   22.30
   5   2 -12  122.19   26.40
   5   2 -12  118.29   25.00
  -4  -2  12   10.90    8.50
   4  -2 -12   13.60   10.20
  -4  -2  12   22.20   10.80
   4  -2 -12   14.30   10.80
  -4   2  12    1.50    5.30
  -4   2  12   16.60    8.40
   4   2 -12   15.90   11.60
   4   2 -12   25.00   11.60
  -3  -2  12   55.89   16.20
   3  -2 -12   60.39   17.00
  -3  -2  12   73.49   18.40
   3  -2 -12   36.30   13.00
   3   2 -12   48.50   15.20
   3   2 -12   42.60   14.60
  -3   2  12   61.39   15.50
  -3   2  12   32.80   11.20
  -2  -2  12  246.28   24.80
   2  -2 -12  246.28   26.60
  -2  -2  12  230.18   24.60
   2  -2 -12  228.38   25.20
   2   2 -12  230.38   26.30
  -2   2  12  221.88   24.10
   2   2 -12  188.78   23.40
  -2   2  12  185.68   22.90
  -1  -2  12   76.79   16.30
   1  -2 -12  105.29   32.60
   1  -2 -12  107.59   17.60
  -1   2  12   90.29   24.10
   1   2 -12   82.39   17.90
  -1   2  12  100.29   20.40
   1   2 -12  124.69   30.20
   0  -2  12  435.06   33.90
   0  -2 -12  432.06   37.20
   0  -2  12  464.25   32.30
   0   2  12  480.75   37.60
   0   2  12  463.25   35.50
   0   2 -12  434.76   37.00
   0   2 -12  400.36   31.30
  -1  -2 -12   14.90   11.00
   1  -2  12   -1.10    4.90
   1  -2  12   10.60    6.90
  -1   2 -12   21.40    8.90
  -1   2 -12    1.10    5.30
   1   2  12   13.90    9.40
   1   2  12   11.00    7.80
  -2  -2 -12   91.69   20.10
   2  -2  12   89.39   18.20
  -2  -2 -12   80.89   20.40
   2  -2  12   82.19   18.00
  -2   2 -12   87.39   14.10
   2   2  12   91.89   18.90
  -2   2 -12   74.19   18.10
   3  -2  12  208.58   23.20
  -3  -2 -12  137.49   21.10
   3  -2  12  160.08   17.90
  -3   2 -12  171.98   22.60
   3   2  12  173.18   22.80
   3   2  12  115.79   18.50
  -3   2 -12  128.29   16.80
  -4  -2 -12   51.19   16.30
   4  -2  12   44.60   13.70
   4  -2  12   70.69   16.20
   4   2  12   87.79   22.20
   4   2  12   76.19   18.50
  -5  -2 -12   12.60    9.50
   5  -2  12    7.00    8.20
   5  -2  12   36.10   11.40
   5   2  12    6.60    6.80
  -5   2 -12   12.30    9.10
   6  -2  12   78.79   17.30
   6  -2  12   85.19   13.40
  -6  -2 -12   94.19   23.40
   6  -2  12   73.89   18.20
  -6   2 -12   82.59   19.50
   6   2  12   88.79   20.50
  -7  -2 -12    1.00    5.80
   7  -2  12   20.90   10.80
   7  -2  12   12.50    6.70
   7  -2  12    8.30    7.00
  -7   2 -12   -0.30    4.80
   7   2  12    8.40    7.30
   8  -2  12  114.19   21.40
  -8  -2 -12   94.59   24.90
   8  -2  12  109.09   21.80
   8  -2  12  107.09   22.50
  -8   2 -12  124.69   24.80
   8   2  12  119.19   24.50
   8   2  12   97.09   21.50
   9  -2  12    3.60    6.30
   9  -2  12    0.70    6.10
   9  -2  12   10.90    8.60
   9  -2  12    4.60    7.40
   9   2  12   13.10    9.90
   9   2  12   -0.80    5.10
  10  -2  12   33.20   13.70
  10  -2  12   35.70   11.80
  10   2  12   47.30   17.10
  10   2  12   46.30   16.50
  11  -2  12   54.49   14.80
  11  -2  12   24.20   12.50
  11   2  12   29.40   15.00
  11   2  12   12.50    9.00
  12  -3 -12   13.20   14.50
  12   3 -12   15.20   13.60
  12   3 -12   10.80   15.40
  11  -3 -12   -3.40    6.50
  11  -3 -12   30.80   12.50
  11   3 -12    7.70   10.20
  11   3 -12   29.00   19.60
  10  -3 -12   90.39   19.60
  10  -3 -12   51.39   22.20
  10   3 -12  120.79   31.60
  10   3 -12   73.19   26.30
 -10   3  12   71.49   17.00
   9  -3 -12   70.09   23.00
   9  -3 -12   94.79   21.00
   9   3 -12   87.29   24.40
  -9   3  12   86.59   18.30
   9   3 -12   64.09   21.80
   8  -3 -12  111.59   27.10
   8  -3 -12   87.09   18.80
   8   3 -12   88.49   25.30
  -8   3  12  100.69   19.80
   8   3 -12   71.89   20.60
   7  -3 -12   45.10   16.00
   7  -3 -12   30.70   15.90
  -7   3  12   15.00    8.80
   7   3 -12   36.10   17.00
   7   3 -12   10.20   13.40
   6  -3 -12  221.98   29.60
   6  -3 -12  219.38   31.10
   6   3 -12  174.98   27.30
   6   3 -12  147.39   24.60
   5  -3 -12    3.90    8.00
   5   3 -12   -5.00    5.00
  -5   3  12    0.00    4.00
   5   3 -12    4.30    6.90
   4  -3 -12  170.58   24.30
   4  -3 -12  207.88   27.50
  -4  -3  12  238.58   48.80
  -4  -3  12  210.28   24.80
  -4   3  12  222.88   26.90
   4   3 -12  218.28   27.10
   4   3 -12  258.37   29.40
  -4   3  12  172.98   22.00
  -3  -3  12  319.27   29.40
   3  -3 -12  250.47   28.60
  -3  -3  12  289.97   29.00
   3  -3 -12  354.36   32.40
  -3   3  12  314.37   29.10
   3   3 -12  415.96   36.30
   3   3 -12  359.96   32.50
  -3   3  12  278.97   28.90
   2  -3 -12  521.35   39.60
   2  -3 -12  559.04   46.50
  -2  -3  12  504.45   35.70
  -2  -3  12  484.05   36.60
  -2   3  12  486.25   37.90
   2   3 -12  455.75   38.00
   2   3 -12  535.55   45.60
  -2   3  12  480.75   37.20
   1  -3 -12  636.54   53.79
  -1  -3  12  711.33   41.80
  -1  -3  12  728.03   44.90
   1   3 -12  770.52   44.50
  -1   3  12  708.83   46.00
   1   3 -12  702.33   46.70
   0  -3 -12 1381.86   67.59
   0  -3  12 1207.78   84.99
   0  -3  12 1421.16   60.09
   0  -3 -12 1369.26   68.59
   0   3  12 1330.07   66.79
   0   3 -12 1346.87   68.39
   0   3 -12 1437.06   62.29
   0   3  12 1251.97   64.99
   1  -3  12  250.77   22.30
   1  -3  12  259.27   26.40
  -1  -3 -12  231.08   27.00
  -1  -3 -12  284.97   28.90
   1   3  12  235.18   26.00
  -1   3 -12  236.68   22.30
   1   3  12  248.58   27.20
   2  -3  12    1.90    4.20
  -2  -3 -12   -5.30    2.50
  -2  -3 -12    2.20    5.90
   2  -3  12    6.10    6.40
   2   3  12    3.60    5.10
   2   3  12    5.80    6.60
  -2   3 -12   -3.20    4.80
  -2   3 -12   -5.00    2.60
   3  -3  12  205.08   23.00
  -3  -3 -12  197.18   25.80
   3  -3  12  160.18   17.50
  -3   3 -12  175.88   23.10
  -3   3 -12  196.68   19.20
   3   3  12  173.58   23.30
   3   3  12  252.77   28.40
  -4  -3 -12   32.00   12.80
   4  -3  12   47.50   14.90
   4  -3  12   57.09   13.00
   4   3  12   40.60   14.20
  -4   3 -12   29.90   13.90
   5  -3  12  117.49   15.50
   5  -3  12  150.68   20.70
  -5  -3 -12  147.59   24.10
   6  -3  12  441.06   30.80
   6  -3  12  432.46   27.60
  -6  -3 -12  425.56   40.90
  -6   3 -12  472.65   37.70
   6   3  12  508.85   39.00
   7  -3  12  123.09   18.90
  -7  -3 -12  162.68   33.30
   7  -3  12  106.79   15.90
   7  -3  12  140.59   16.00
  -7   3 -12  108.79   22.20
   7   3  12  138.19   21.90
   8  -3  12    8.40    6.60
   8  -3  12    6.50    7.10
   8  -3  12   19.80    9.40
   8   3  12   21.20   12.50
   8   3  12   -6.60    3.10
  -8   3 -12   -2.20    5.40
   9  -3  12   51.69   17.40
   9  -3  12   53.99   15.60
   9  -3  12   34.20   14.10
   9   3  12   51.79   19.40
  -9   3 -12   39.40   14.40
   9   3  12   22.00   12.30
  10  -3  12   28.80   11.80
  10   3  12   57.19   20.90
  10   3  12   34.10   15.40
  11  -3  12  126.59   23.20
  11  -3  12  119.59   15.20
  11   3  12  138.29   29.70
  11   3  12  112.89   28.10
  11  -4 -12  116.19   16.10
  11  -4 -12  173.38   36.70
  11   4 -12  140.49   33.30
  11   4 -12  188.38   43.60
  10  -4 -12   53.49   14.60
  10  -4 -12   50.89   19.10
  10   4 -12   60.59   23.80
  10   4 -12   57.59   21.50
   9  -4 -12   15.10   12.60
   9  -4 -12   26.00   13.20
  -9   4  12   46.20   19.80
   9   4 -12   14.90   15.50
   9   4 -12   39.50   18.50
   8  -4 -12   -4.20    7.30
   8   4 -12    0.20    6.90
   8   4 -12   -1.10    8.60
   7  -4 -12  223.98   30.90
   7   4 -12  237.68   31.80
   7   4 -12  229.08   33.30
   6  -4 -12  674.83   63.99
   6  -4 -12  578.24   47.50
   6   4 -12  594.84   49.80
   6   4 -12  546.35   46.50
  -6   4  12  613.44   47.10
   5  -4 -12  250.37   52.49
   5  -4 -12  282.47   31.90
  -5   4  12  216.78   24.80
   5   4 -12  211.48   28.60
   5   4 -12  230.38   29.80
   4  -4 -12  149.09   23.00
   4  -4 -12  169.48   45.70
   4   4 -12  108.69   23.30
  -4   4  12  141.39   27.30
   4   4 -12  138.49   26.90
  -3  -4  12    3.80    5.90
  -3  -4  12    0.50    5.00
   3  -4 -12   -1.00    6.30
  -3   4  12    4.30    6.50
   3   4 -12   12.00    9.20
   3   4 -12    8.30    7.20
   2  -4 -12  208.28   25.40
   2  -4 -12  192.58   24.20
  -2  -4  12  149.79   21.00
   2   4 -12  139.59   21.90
   2   4 -12  184.28   27.00
  -2   4  12  205.78   28.00
  -2   4  12  212.78   25.20
   1  -4 -12   40.70   13.90
  -1  -4  12   42.10   12.80
   1  -4 -12   43.90   15.30
  -1  -4  12   61.79   15.70
   1   4 -12   46.20   12.80
  -1   4  12   62.79   15.60
   1   4 -12   29.40   11.00
  -1   4  12   36.50   12.60
   0  -4 -12  143.59   21.00
   0  -4  12  124.69   16.30
   0  -4  12  130.29   19.10
   0  -4 -12  130.29   20.40
   0   4 -12  111.19   24.20
   0   4  12  117.89   19.40
   0   4  12  141.89   20.90
   0   4 -12  112.69   16.40
   1  -4  12  925.61   52.29
   1  -4  12  953.00   45.30
  -1  -4 -12  960.60   57.69
  -1  -4 -12  988.30   57.09
  -1   4 -12  966.80   54.99
   1   4  12  938.91   56.69
   1   4  12  925.71   55.19
  -1   4 -12  902.21   46.10
   2  -4  12   87.09   16.00
  -2  -4 -12   59.29   16.10
  -2  -4 -12   36.80   14.60
  -2   4 -12   77.29   16.80
   2   4  12   76.09   18.50
  -2   4 -12   80.19   23.80
   2   4  12   70.39   20.30
   3  -4  12   33.60   12.30
  -3  -4 -12   45.90   15.50
   3  -4  12   78.09   14.80
  -3   4 -12   52.49   12.60
   4  -4  12  175.18   21.60
  -4  -4 -12  179.68   26.00
   4  -4  12  231.38   19.40
  -4   4 -12  177.18   27.10
  -5  -4 -12   74.29   20.80
   5  -4  12   98.69   13.00
   5  -4  12   76.39   17.90
  -5   4 -12   46.10   17.60
   6  -4  12  115.29   14.30
  -6  -4 -12  132.79   28.10
   6  -4  12  138.49   13.80
   6  -4  12  122.09   18.10
  -6   4 -12  135.69   32.10
   6   4  12  103.69   21.30
   7  -4  12  113.09   13.40
   7  -4  12  121.59   15.00
  -7  -4 -12  112.79   26.80
   7  -4  12  131.69   18.40
  -7   4 -12   92.49   31.20
   7   4  12  148.19   23.20
   8  -4  12   40.50   13.50
   8  -4  12   45.10   11.20
   8  -4  12   36.40   11.20
  -8   4 -12   35.10   16.90
   8   4  12   15.30   11.00
   8   4  12   67.49   21.20
   9  -4  12   98.69   19.10
   9  -4  12   80.89   12.90
   9  -4  12   87.69   17.00
   9   4  12  104.09   27.30
   9   4  12   92.19   24.10
  -9   4 -12   56.19   14.50
  10  -4  12   83.79   12.40
  10  -4  12   84.09   16.20
  10   4  12   58.09   19.70
  10   4  12   91.49   23.40
  11  -4  12   43.50   18.30
  11   4  12   31.30   17.00
  11   4  12   46.20   17.20
  11  -5 -12   22.20   15.70
  11   5 -12   28.60   19.70
  11   5 -12    4.40   11.70
  10  -5 -12   25.30   15.40
  10  -5 -12   28.30   11.10
  10   5 -12   30.40   17.20
  10   5 -12   46.70   22.60
   9  -5 -12   -3.40    5.30
   9  -5 -12    1.90    5.40
   9   5 -12    0.80    7.70
  -9   5  12   -3.60    4.10
   9   5 -12   14.40   14.00
   8  -5 -12  178.18   21.70
   8  -5 -12  137.69   28.30
  -8   5  12  116.49   17.30
   8   5 -12  282.47   36.00
   8   5 -12  212.88   42.50
   7  -5 -12   59.39   20.70
   7  -5 -12   57.69   16.60
   7   5 -12   63.29   22.10
  -7   5  12   75.59   17.10
   7   5 -12   36.50   16.70
   6  -5 -12   95.09   24.60
   6  -5 -12  102.69   24.20
   6   5 -12   79.99   23.90
   6   5 -12  106.29   23.90
  -6   5  12  121.49   22.90
   5  -5 -12   21.10   12.70
   5   5 -12   -2.60    5.80
   5   5 -12   18.40   11.50
   4  -5 -12    2.80    7.50
   4  -5 -12   -6.00    3.00
   4   5 -12    2.00    7.40
   4   5 -12   -7.00    4.50
  -4   5  12    2.00    7.20
   3  -5 -12   77.49   20.70
   3  -5 -12   84.09   18.60
  -3  -5  12  111.29   21.90
  -3   5  12  108.39   23.00
   3   5 -12   99.99   23.60
   3   5 -12  127.69   25.70
   2  -5 -12  537.15   42.10
   2  -5 -12  519.65   40.40
  -2  -5  12  544.55   37.50
  -2   5  12  488.85   39.80
  -2   5  12  560.84   41.00
   2   5 -12  512.85   37.90
   2   5 -12  529.75   42.70
  -1  -5  12  114.39   18.80
   1  -5 -12  146.29   27.90
   1  -5 -12  138.69   21.40
  -1  -5  12  147.39   18.40
  -1   5  12  161.18   22.20
  -1   5  12   97.99   21.40
   1   5 -12  139.49   22.10
   1   5 -12  125.39   18.00
   0  -5  12  535.45   33.50
   0  -5  12  473.55   37.10
   0  -5 -12  542.05   42.70
   0  -5 -12  498.65   41.10
   0   5 -12  561.24   35.50
   0   5 -12  523.15   40.70
   0   5  12  563.14   42.70
   0   5  12  520.55   41.30
   1  -5  12   52.99   12.70
  -1  -5 -12   55.29   18.10
   1  -5  12   85.79   20.50
  -1  -5 -12   26.70   13.20
  -1   5 -12   47.30   12.40
   1   5  12  100.69   24.20
   1   5  12   62.79   17.80
  -1   5 -12   89.49   21.40
   2  -5  12   70.69   11.30
  -2  -5 -12   88.19   19.90
   2  -5  12   99.59   21.50
  -2   5 -12   90.79   20.80
  -2   5 -12   81.39   12.40
   3  -5  12   17.20   11.00
   3  -5  12   18.00    7.50
  -3  -5 -12   10.10    9.00
  -3   5 -12   11.50    6.20
  -3   5 -12    3.90    6.30
   4  -5  12  303.47   20.40
   4  -5  12  318.67   34.10
  -4  -5 -12  273.87   33.00
  -4   5 -12  357.36   37.80
   5  -5  12  243.48   24.50
  -5  -5 -12  204.28   29.80
   5  -5  12  252.77   16.00
  -5   5 -12  177.98   27.30
  -6  -5 -12  151.18   31.10
   6  -5  12   93.39   19.90
   6  -5  12   93.99    9.90
  -6   5 -12   78.99   18.30
   6   5  12   78.39   22.20
   7  -5  12   50.49   14.80
   7  -5  12   56.99    8.10
   7   5  12   41.80   17.10
   7   5  12   37.00   14.40
  -7   5 -12   35.40   12.80
   8  -5  12    4.80    6.30
   8  -5  12    3.70    3.80
   8   5  12  -11.00    4.00
   8   5  12   15.40   13.40
  -8   5 -12    2.20    4.40
   9  -5  12    4.10    4.10
   9  -5  12    3.60    6.40
   9   5  12    0.50    5.90
  -9   5 -12    7.30    6.90
   9   5  12    0.10    7.70
  10  -5  12   -0.10    3.70
  10  -5  12   11.90    6.10
  10   5  12   11.60   11.10
  10   5  12    7.60    9.60
  11   5  12    9.40   11.80
  11   5  12    0.20    7.60
  11  -6 -12   94.79   27.20
  11   6 -12  132.29   39.60
  11   6 -12   82.89   26.90
  10  -6 -12    2.10    8.10
  10  -6 -12    0.70    3.80
  10   6 -12   -2.20    7.60
  10   6 -12   -3.40    8.00
   9  -6 -12    6.60   12.20
   9  -6 -12    5.50    5.20
   9   6 -12   -5.20    7.90
  -9   6  12   -1.80    4.40
   9   6 -12  -10.70    5.00
   8  -6 -12   14.30   12.10
   8  -6 -12   33.00   12.00
  -8   6  12   26.90   10.60
   8   6 -12   37.00   18.90
   8   6 -12   -0.70   10.50
   7  -6 -12  206.38   23.40
   7  -6 -12  185.58   28.90
  -7   6  12  215.48   22.90
   7   6 -12  187.98   37.10
   7   6 -12  141.79   35.70
   6  -6 -12   39.70   16.60
   6  -6 -12   30.60   19.90
   6   6 -12   76.49   23.30
   6   6 -12   56.19   20.60
  -6   6  12   25.80   17.70
   5  -6 -12  264.67   31.50
   5  -6 -12  245.78   26.90
   5   6 -12  251.67   32.30
  -5   6  12  206.88   25.00
   5   6 -12  226.38   30.30
   4  -6 -12  185.38   24.20
   4  -6 -12  167.88   25.10
   4   6 -12  134.79   28.50
   4   6 -12  196.38   26.80
  -4   6  12  185.68   23.60
   3  -6 -12   39.10   14.50
   3  -6 -12   42.60   15.10
  -3  -6  12   44.90   13.50
   3   6 -12   36.40   16.60
   3   6 -12   83.59   23.60
  -3   6  12   37.50   13.80
   2  -6 -12    0.90    6.70
   2  -6 -12    3.70    6.80
  -2  -6  12    5.10    6.30
   2   6 -12   -9.40    3.80
   2   6 -12    5.10    6.70
  -2   6  12    8.00    8.30
   1  -6 -12   52.19   18.00
   1  -6 -12   88.19   20.20
  -1  -6  12   92.09   14.90
   1   6 -12  102.89   20.60
  -1   6  12  126.39   26.60
   1   6 -12   47.40   14.60
   0  -6  12  132.39   16.60
   0  -6 -12  142.69   28.30
   0  -6  12  153.08   21.10
   0  -6 -12  163.38   23.90
   0   6  12  134.99   31.10
   0   6 -12  123.39   16.80
   0   6 -12  105.09   21.90
   1  -6  12  583.34   40.80
   1  -6  12  592.14   33.00
  -1  -6 -12  563.84   45.40
  -1  -6 -12  565.44   44.60
  -1   6 -12  568.24   42.60
  -1   6 -12  585.54   34.50
  -2  -6 -12    2.00    7.20
   2  -6  12    1.70    4.20
   2  -6  12   11.60    9.30
  -2   6 -12    0.30    3.60
  -2   6 -12   -0.50    5.70
   3  -6  12   93.59   20.00
  -3  -6 -12   93.99   24.80
   3  -6  12   93.39   11.30
  -3   6 -12   81.49   20.90
  -3   6 -12   79.49   11.20
   4  -6  12   57.69    8.00
   4  -6  12   79.29   18.10
  -4  -6 -12   71.49   21.70
  -4   6 -12   49.30   14.90
  -5  -6 -12    6.00    9.00
   5  -6  12   22.80   13.10
   5  -6  12   22.40    4.90
  -5   6 -12   23.50   16.10
  -6  -6 -12   33.50   17.90
   6  -6  12   24.20   10.20
   6   6  12   29.40   14.00
  -6   6 -12   34.80   12.40
   6   6  12   40.30   16.60
   7  -6  12   -0.60    4.20
   7   6  12    0.80   11.80
  -7   6 -12    6.30    6.20
   7   6  12    3.30    5.10
   8  -6  12   87.89   16.80
   8   6  12   63.29   21.10
  -8   6 -12   89.69   17.70
   8   6  12   53.79   18.80
   9  -6  12  117.79   18.80
   9   6  12   57.49   20.80
   9   6  12  157.88   34.70
  10   6  12   10.60    9.70
  10   6  12   -2.30    4.80
  10  -7 -12   79.89   25.90
  10   7 -12  106.79   35.40
  10   7 -12   62.39   23.70
   9  -7 -12   -3.40    6.70
   9  -7 -12    7.30    5.60
   9   7 -12    1.70    8.90
   9   7 -12   -7.70    6.20
   8  -7 -12  171.58   35.60
   8  -7 -12  144.49   18.50
   8   7 -12  217.68   34.60
   8   7 -12  159.08   37.30
  -8   7  12  159.18   19.30
   7  -7 -12   17.00   14.80
   7  -7 -12   23.50    9.90
   7   7 -12   25.20   15.30
  -7   7  12   15.80    9.90
   7   7 -12   44.30   23.10
   6  -7 -12   56.69   20.30
   6  -7 -12   43.90   17.00
   6   7 -12   80.59   26.00
  -6   7  12   49.40   18.90
   6   7 -12   28.90   15.90
   5  -7 -12    2.60    5.70
   5  -7 -12   -0.60    6.20
   5   7 -12    5.50    9.60
  -5   7  12   -3.70    4.10
   5   7 -12   -4.60    6.10
   4  -7 -12   73.79   19.50
   4  -7 -12   54.69   17.30
   4   7 -12   43.30   16.90
   4   7 -12   55.59   19.50
  -4   7  12   47.20   15.40
   3  -7 -12    7.70    9.30
   3  -7 -12    7.40    9.00
   3   7 -12   18.70   11.40
   3   7 -12   30.20   15.30
  -3   7  12   21.70   10.90
   2  -7 -12  489.95   41.50
   2  -7 -12  556.74   45.00
  -2  -7  12  606.54   39.70
   2   7 -12  556.74   41.10
  -2   7  12  566.14   43.60
   2   7 -12  522.55   44.60
   1  -7 -12    2.60    6.10
  -1  -7  12    6.80    6.60
   1  -7 -12    6.90    6.90
   1   7 -12    8.90    7.70
   1   7 -12   -2.80    5.10
   0  -7 -12  732.23   52.29
   0  -7 -12  756.92   52.69
   0  -7  12  699.73   38.50
   0   7 -12  643.14   39.30
   0   7 -12  595.84   46.40
   1  -7  12  112.19   13.90
   1  -7  12  124.29   26.20
  -1  -7 -12   94.39   22.70
  -1   7 -12  107.79   22.30
  -1   7 -12   88.19   13.80
  -2  -7 -12   -7.20    3.50
   2  -7  12   -0.30    5.80
   2  -7  12    1.10    3.90
  -2   7 -12   10.90    5.90
  -2   7 -12   -7.90    3.30
  -3  -7 -12  180.98   28.40
   3  -7  12  194.98   23.10
   3  -7  12  183.48   13.20
  -3   7 -12  237.68   27.40
  -3   7 -12  175.08   14.30
   4  -7  12  436.46   33.40
  -4  -7 -12  394.06   42.30
  -4   7 -12  445.46   36.30
  -5  -7 -12   39.30   18.50
   5  -7  12   37.80   14.90
   5   7  12   52.69   18.00
  -5   7 -12   55.79   16.40
   6  -7  12  174.98   19.80
   6   7  12  180.08   39.00
  -6   7 -12  221.28   25.90
   6   7  12  175.88   27.50
   7  -7  12   -1.80    3.90
   7   7  12   -2.00    4.70
  -7   7 -12    6.80    6.10
   7   7  12   -5.10    3.60
   8  -7  12   11.60    6.80
   8   7  12    5.40   10.30
  -8   7 -12   23.80    9.50
   8   7  12   26.60   14.30
   9   7  12   10.00   12.50
   9   7  12    3.10    7.40
  10   7  12   13.40   12.70
  10   7  12   38.30   19.10
  10  -8 -12   23.90   15.50
  10   8 -12   16.40   16.70
   9  -8 -12   11.90   13.50
   9   8 -12   18.40   15.10
   9   8 -12   16.90   14.60
   8  -8 -12    6.60    5.70
   8  -8 -12   16.40   11.90
  -8   8  12   -0.40    5.20
   8   8 -12   -2.60    6.70
   8   8 -12   -4.60    6.70
   7  -8 -12  169.68   21.00
   7  -8 -12  177.48   28.30
   7   8 -12  161.98   36.20
   7   8 -12  124.69   31.50
  -7   8  12  151.88   19.90
   6  -8 -12   43.30   17.00
   6  -8 -12   31.20   13.30
   6   8 -12   55.39   22.00
   6   8 -12   40.50   20.00
  -6   8  12   15.80   10.60
   5  -8 -12   96.39   22.00
   5  -8 -12   18.30   11.20
   5   8 -12   35.10   18.50
   5   8 -12   53.59   19.40
  -5   8  12   31.60   13.80
   4  -8 -12  346.37   33.40
   4  -8 -12  304.87   34.20
   4   8 -12  345.97   36.40
   4   8 -12  341.57   38.90
  -4   8  12  306.87   31.60
   3  -8 -12   21.00   12.10
   3  -8 -12   39.60   14.00
   3   8 -12   55.19   17.40
   3   8 -12   33.50   15.70
  -2  -8  12  141.29   19.10
   2  -8 -12  142.39   28.70
   2  -8 -12  179.08   25.50
   2   8 -12  127.09   26.00
   2   8 -12  129.69   21.20
   1  -8 -12   22.20   12.50
   1  -8 -12   17.00   11.10
   1   8 -12   18.70   14.00
   1   8 -12   36.10   13.60
   0  -8 -12   47.50   17.40
   0  -8 -12   37.50   14.90
   0  -8  12   51.19   12.80
   0   8 -12   62.49   15.40
   0   8 -12   82.89   24.70
  -1  -8 -12   -6.80    3.90
   1  -8  12    7.70    5.90
  -1   8 -12   -2.70    5.20
  -1   8 -12    0.70    4.20
   2  -8  12    1.30    3.60
  -2  -8 -12    7.10   11.80
  -2   8 -12    1.80    4.40
  -2   8 -12   15.00   10.80
   3  -8  12  149.29    9.90
  -3  -8 -12  139.19   29.50
   3  -8  12  149.59   20.50
  -3   8 -12  169.68   11.70
  -3   8 -12  145.39   22.20
   4  -8  12   63.19   17.10
  -4  -8 -12   80.69   24.30
  -4   8 -12   73.59   19.60
   4   8  12   31.10   14.40
   5  -8  12   64.69   16.00
  -5   8 -12   25.50   11.40
   5   8  12   65.79   22.90
   5   8  12   54.29   20.20
   6  -8  12    5.30    6.50
   6   8  12   21.30   12.70
   6   8  12   20.80   13.20
   7  -8  12    2.50    4.70
   7   8  12    1.80    6.50
   7   8  12    2.50    7.40
  -7   8 -12    1.50    5.10
   8  -8  12   48.10   12.10
  -8   8 -12   87.59   12.90
   8   8  12   94.79   27.80
   8   8  12  157.48   36.60
   9   8  12   97.09   26.70
   9   8  12  161.58   37.20
  10   8  12    3.40    8.30
  10   8  12    9.30   10.70
  10  -9 -12   50.69   20.50
  10   9 -12   41.50   21.50
  10   9 -12   53.69   27.10
   9  -9 -12   50.69   21.10
   9   9 -12    2.70   11.30
   9   9 -12   70.69   27.80
   8  -9 -12  248.48   34.20
   8   9 -12  314.87   43.50
   8   9 -12  294.87   42.20
   7  -9 -12   19.40   14.00
   7  -9 -12   12.70   10.80
  -7   9  12   17.50   13.40
   7   9 -12   51.29   22.10
   7   9 -12    9.90   14.30
   6  -9 -12    5.50    9.90
   6  -9 -12   15.40   10.30
   6   9 -12   15.90   14.30
  -6   9  12    7.80    7.10
   6   9 -12   21.10   17.00
   5  -9 -12   10.50    9.50
   5  -9 -12   12.60    9.80
   5   9 -12   -1.20    7.60
   5   9 -12    8.50   10.80
  -5   9  12    4.70    6.70
   4  -9 -12    8.80    8.90
   4  -9 -12    7.80    9.10
   4   9 -12    5.20   11.50
   4   9 -12   -0.60    6.80
   3  -9 -12   -1.00    4.90
   3  -9 -12    5.40    8.30
   3   9 -12   -4.50    5.20
   3   9 -12   -1.40    6.50
   2  -9 -12  452.45   41.20
   2  -9 -12  406.56   40.20
   2   9 -12  381.16   35.00
   2   9 -12  438.26   43.20
   1  -9 -12  171.98   33.50
  -1  -9  12  123.79   17.60
   1  -9 -12  149.79   24.90
   1   9 -12  250.87   32.10
   1   9 -12  172.48   22.10
   0  -9  12  142.29   16.80
   0  -9 -12  176.38   35.50
   0   9 -12   95.39   22.50
   0   9 -12  142.99   18.80
   1  -9  12   29.80    8.90
  -1  -9 -12   47.50   19.20
  -1   9 -12   38.70   11.60
  -1   9 -12   31.30   16.70
   2  -9  12    6.30    4.00
  -2  -9 -12   12.50   12.20
  -2   9 -12   11.10   10.60
  -2   9 -12   16.20    6.50
  -3  -9 -12   22.70   16.00
  -3   9 -12    1.60    6.60
   3   9  12    0.70    6.00
   4  -9  12  420.56   34.30
  -4   9 -12  548.15   41.90
   4   9  12  528.45   58.59
   5  -9  12  154.78   19.90
  -5   9 -12  148.19   21.70
   5   9  12  108.69   23.60
   5   9  12  150.18   33.50
  -6   9 -12  225.98   24.90
   6   9  12  242.18   33.90
   6   9  12  238.08   34.00
   7  -9  12  138.99   16.30
  -7   9 -12  149.69   18.80
   7   9  12  104.19   25.90
   7   9  12   95.99   27.10
   8   9  12   44.20   20.10
  -8   9 -12   41.00   10.00
   8   9  12   46.50   20.00
   9   9  12    3.40    7.90
   9   9  12   -1.80    6.10
   9 -10 -12   23.40   12.70
   9  10 -12   -1.60   12.00
   8 -10 -12   11.30   11.50
   8  10 -12   -6.00    7.90
   8  10 -12    5.90   11.60
  -8  10  12    4.30    5.30
   7 -10 -12   -3.30    5.00
  -7  10  12    4.90    5.40
   7  10 -12   18.70   15.00
   7  10 -12   -2.50    7.20
   6 -10 -12   58.69   19.80
   6  10 -12   49.60   20.10
  -6  10  12   27.70   11.30
   6  10 -12   51.09   21.50
   5 -10 -12   18.30   11.80
   5 -10 -12   19.60   13.20
   5  10 -12    1.70    9.70
   5  10 -12    5.20   11.40
   4 -10 -12   79.69   22.40
   4 -10 -12   96.09   24.20
   4  10 -12  102.99   26.10
   4  10 -12   77.19   22.20
   3 -10 -12   38.60   14.70
   3 -10 -12   37.30   16.50
   3  10 -12   31.10   18.20
   3  10 -12   29.30   14.10
   2 -10 -12   42.80   17.30
   2 -10 -12   52.19   18.10
   2  10 -12   50.29   18.70
   2  10 -12   64.49   18.30
   1 -10 -12   75.69   23.80
  -1 -10  12   79.29   17.60
   1  10 -12   63.59   17.50
   1  10 -12   53.59   17.90
   0 -10  12    5.30    5.90
   0 -10 -12   -0.30   10.00
   0  10 -12    5.50    8.50
   0  10 -12   21.20    9.80
  -1 -10 -12   43.00   16.50
   1 -10  12   40.70    9.80
  -1  10 -12   38.90   17.10
  -1  10 -12   46.20   11.80
   1  10  12   17.50   11.50
  -2  10 -12  101.49   25.30
   2  10  12  107.89   26.00
  -2  10 -12  105.29   11.70
   3  10  12   -3.40    6.00
  -3  10 -12    6.60    8.30
   4  10  12   41.90   14.60
   4  10  12  101.69   26.80
  -4  10 -12   87.69   22.40
   5 -10  12    0.00    5.30
   5  10  12   -3.10    4.80
  -5  10 -12    0.90    5.60
   5  10  12    4.40    8.00
   6 -10  12   44.80   13.70
   6  10  12   27.80   14.40
  -6  10 -12   46.40   14.00
   6  10  12   30.50   16.40
   7  10  12    7.30    9.40
  -7  10 -12   -0.80    4.20
   7  10  12    9.60   12.40
   8  10  12   -1.00    8.70
   8  10  12   22.40   16.60
   8 -11 -12   15.30   14.40
   8  11 -12    8.40   13.60
   8  11 -12   50.99   22.70
   7 -11 -12   90.79   25.90
   7  11 -12   94.99   29.90
  -7  11  12   59.89   14.50
   7  11 -12  109.19   34.20
   6 -11 -12   32.80   17.00
   6  11 -12   26.80   18.10
  -6  11  12   25.80   10.10
   6  11 -12    3.90    9.50
   5 -11 -12   49.50   18.40
   5  11 -12   55.19   24.30
  -5  11  12   51.59   14.90
   5  11 -12   81.99   25.60
   4 -11 -12   15.20   11.70
   4  11 -12   30.50   18.90
   4  11 -12    1.30    7.60
  -4  11  12    0.70    5.00
   3 -11 -12  180.98   35.90
  -3  11  12  199.38   26.10
   3  11 -12  253.17   37.30
   3  11 -12  245.68   31.00
  -2  11  12   72.49   20.80
   2  11 -12   91.59   31.60
   2  11 -12   72.29   20.50
  -1 -11  12  166.98   20.50
   1  11 -12  243.68   33.80
  -1  11  12  181.68   26.50
   1  11 -12  230.98   26.20
   0 -11  12  120.69   16.00
   0  11  12  141.09   29.00
   0  11 -12   99.79   24.10
   0  11 -12   72.89   22.90
  -1  11 -12  113.59   26.20
   1  11  12  155.38   33.80
  -1  11 -12   85.59   13.60
   2  11  12   15.60   10.20
  -2  11 -12   10.30    4.70
  -2  11 -12    7.00    8.30
   3  11  12   26.10   14.20
  -3  11 -12   -3.60    6.70
   4  11  12  103.39   28.90
  -4  11 -12  105.19   25.40
   4  11  12  109.69   27.60
  -5  11 -12  235.98   27.60
   5  11  12  270.47   37.20
   5  11  12  203.08   32.10
  -6  11 -12    5.40    6.80
   6  11  12   33.50   19.00
   6  11  12   54.09   22.80
   7  11  12    4.20    8.40
   7  11  12   15.00   14.70
  -7  11 -12   11.30    7.90
   8  11  12   11.90   12.20
   8  11  12    7.20   12.10
   7 -12 -12    9.90   14.40
   7  12 -12   31.00   22.90
  -7  12  12   16.00    9.80
   7  12 -12    4.80   11.60
   6 -12 -12  395.86   42.80
   6  12 -12  268.27   39.70
   6  12 -12  346.77   47.00
  -6  12  12  336.67   30.30
   5 -12 -12   12.40   11.80
   5  12 -12   30.00   16.10
   5  12 -12    5.00   11.50
  -5  12  12    2.20    7.70
  -4  12  12   81.99   21.70
   4  12 -12   88.79   32.60
  -3  12  12    0.60    5.30
   3  12 -12    8.10   10.40
   3  12 -12   -3.50    7.60
   2  12 -12   19.40   14.80
  -2  12  12   -2.80    4.10
   2  12 -12   16.80   12.80
  -1  12  12    2.20    7.50
   1  12 -12    0.20    7.80
   1  12 -12   13.40    9.60
   0  12  12    5.70   10.70
   0  12 -12   10.90    7.60
   0  12 -12   26.50   16.60
  -1  12 -12   -5.30    5.50
  -1  12 -12    5.70    4.60
   1  12  12    3.80    8.30
  -2  12 -12  229.58   31.30
  -2  12 -12  209.58   14.10
   2  12  12  275.57   35.70
  -3  12 -12    8.10   10.60
   3  12  12   -2.90    5.80
   3  12  12   -0.60    7.00
   4  12  12    0.80    7.50
  -4  12 -12   15.10   11.40
   4  12  12   19.50   13.60
   5  12  12   11.80   11.10
  -5  12 -12    4.00    7.30
   5  12  12   18.70   12.50
  -6  12 -12    0.90    6.10
   6  12  12    5.00   10.00
   6  12  12    0.20    6.50
   7  12  12    0.00    8.20
   7  12  12   -6.00    5.50
   6  13 -12   45.20   30.90
  -6  13  12   59.29   16.70
   6  13 -12   36.60   20.50
   5  13 -12    5.00   11.10
  -5  13  12   24.20   12.60
   5  13 -12   -9.00    6.20
   4  13 -12   32.80   21.20
   4  13 -12    4.70    9.40
  -4  13  12    8.80    7.80
   3  13 -12   14.50   14.00
  -3  13  12   36.80   17.40
   3  13 -12   20.00   14.80
   2  13 -12   24.60   14.20
  -2  13  12   21.70   14.80
   2  13 -12   -5.30    7.50
  -1  13  12  315.97   36.30
   1  13 -12  314.67   41.10
   1  13 -12  322.87   32.50
   0  13  12   20.90   14.10
   0  13 -12   69.99   16.90
   0  13 -12   31.70   18.50
  -1  13 -12   10.70   11.80
  -1  13 -12   11.90    6.90
   1  13  12   27.30   14.50
   2  13  12   10.70   12.00
  -2  13 -12    4.30    7.30
   3  13  12    1.70    8.80
   3  13  12   11.10   11.20
  -3  13 -12    5.30    7.20
   4  13  12    0.10   10.10
  -4  13 -12   -4.40    4.90
   4  13  12    0.40    7.80
   5  13  12  154.18   35.70
  -5  13 -12  216.68   28.40
   5  13  12  125.09   32.80
   6  13  12    4.50    9.30
  -6  13 -12    6.50    8.70
   6  13  12    8.90   12.50
   5  14 -12    7.40   12.30
   5  14 -12   -6.20    7.40
  -5  14  12   14.70   11.00
   4  14 -12   82.09   26.30
   4  14 -12   94.89   29.10
   3  14 -12   29.20   17.80
  -3  14  12   29.50   13.90
   3  14 -12    3.20    8.90
  -2  14  12   38.20   16.50
   2  14 -12   72.69   25.50
   2  14 -12   56.29   20.10
   1  14 -12   -2.10    5.50
  -1  14  12    4.40    7.10
   1  14 -12   -4.60    8.20
   0  14  12   12.50   12.30
   0  14 -12   57.79   24.70
   0  14 -12   24.00   12.10
   1  14  12   21.30   14.70
  -1  14 -12   41.00   20.50
  -1  14 -12    8.60    6.80
  -2  14 -12   36.40   15.70
   2  14  12   29.60   16.00
   2  14  12   22.50   14.50
   3  14  12    4.50   10.60
   3  14  12   -2.40    5.60
  -3  14 -12   19.20   13.80
   4  14  12   22.80   14.20
  -4  14 -12    5.00    8.60
   4  14  12   -1.70    8.40
   5  14  12   14.80   16.30
  -5  14 -12    3.90    8.60
   5  14  12    5.10    8.10
   3  15 -12   18.60   12.70
   3  15 -12   21.80   27.60
  -3  15  12   37.10   17.20
   2  15 -12   68.79   26.80
  -2  15  12   41.40   17.30
   2  15 -12   69.69   22.40
   1  15 -12   83.59   22.00
   1  15 -12   51.19   24.10
  -1  15  12   35.40   17.10
   0  15  12    5.80   10.30
   0  15 -12   26.90   18.50
   0  15 -12    8.30    7.40
   1  15  12   37.70   19.80
   1  15  12   22.80   17.30
  -1  15 -12   19.00   14.80
  -2  15 -12   12.90   11.40
   2  15  12    8.50   10.40
   2  15  12   16.60   12.50
  -3  15 -12    4.20    9.30
   3  15  12    1.50   12.80
   3  15  12   -1.10    6.20
  12   0 -13   -3.40    6.40
  12   0 -13    1.00    9.10
  11   0 -13  166.28   36.30
  11   0 -13  176.38   27.10
  10   0 -13    5.70    9.00
  10   0 -13   14.40   12.90
   9   0 -13  115.59   30.70
   9   0 -13   99.99   24.20
   8   0 -13   14.60   12.60
   8   0 -13    7.00    8.00
   7   0 -13   29.50   16.70
   7   0 -13   40.40   15.70
   6   0 -13   -4.50    5.10
   6   0 -13    2.50    8.00
   5   0 -13 1923.81   92.89
  -5   0  13 1949.10   84.49
   5   0 -13 2011.60   90.49
   4   0 -13    3.40    5.70
   4   0 -13    0.70    6.10
  -4   0  13    9.80    7.70
  -3   0  13   19.60    9.00
   3   0 -13   50.19   17.30
  -3   0  13   30.90   13.60
   3   0 -13   32.70   14.10
  -2   0  13   -2.50    3.30
   2   0 -13   -0.10    4.40
  -2   0  13    6.10    6.60
   2   0 -13   -4.00    3.40
   1   0 -13   31.50   11.60
   1   0 -13   49.99   15.90
  -1   0  13   73.39   18.50
  -1   0  13   58.69   17.00
   0   0 -13   -0.10    3.40
   0   0  13   -0.20    3.70
   0   0 -13    4.60    7.70
   0   0  13   11.30    8.20
  -1   0 -13 1187.78   62.99
   1   0  13 1117.09   57.49
  -1   0 -13 1022.60   56.59
   1   0  13 1289.27   64.19
  -2   0 -13    2.70    4.90
  -2   0 -13    0.20    3.80
   2   0  13   -1.70    3.40
   2   0  13   -1.50    3.00
   3   0  13  342.97   30.20
  -3   0 -13  321.77   32.30
  -3   0 -13  359.66   31.90
   3   0  13  311.77   31.10
   4   0  13   -5.10    3.60
   4   0  13   -1.00    3.70
  -4   0 -13   -4.20    4.90
   5   0  13   46.60   16.30
  -5   0 -13   27.20   13.50
   5   0  13   21.90   11.40
   6   0  13   15.10    9.10
  -6   0 -13    2.90    7.50
   7   0  13  186.38   22.40
  -7   0 -13  178.58   25.60
  -8   0 -13   -1.90    4.20
   8   0  13    6.00    7.10
   9   0  13   25.60   11.30
   9   0  13   14.10   11.30
  10   0  13    3.90    6.90
  10   0  13    0.40    6.10
  11   0  13  124.39   32.90
  11   0  13  135.59   26.30
  11  -1 -13   -5.50    6.30
  11  -1 -13    5.70    9.10
  11   1 -13    3.40    8.90
  11   1 -13   -0.10    6.90
  10  -1 -13  159.98   39.30
  10  -1 -13  132.29   27.60
  10   1 -13  134.69   29.10
  10   1 -13  151.98   36.90
   9  -1 -13   -2.60    5.50
   9  -1 -13    4.20    7.70
   9   1 -13    5.70   11.70
   9   1 -13    8.90    9.90
   8  -1 -13  265.47   36.00
   8  -1 -13  241.48   29.20
   8   1 -13  221.78   33.10
   8   1 -13  241.18   31.10
   7  -1 -13   23.40   12.10
   7  -1 -13    7.10    9.30
   7   1 -13   26.00   15.50
   7   1 -13   43.40   17.00
   6  -1 -13  118.69   29.60
   6  -1 -13  149.19   22.80
   6   1 -13  167.68   25.10
  -6   1  13  114.19   19.10
   6   1 -13  126.29   30.60
   5  -1 -13   77.19   22.90
   5  -1 -13  107.09   23.30
   5   1 -13  104.59   24.40
   5   1 -13  103.89   22.60
  -5   1  13  113.79   23.80
  -4  -1  13  116.79   18.90
   4  -1 -13  133.39   20.70
   4  -1 -13  140.09   29.10
   4   1 -13  108.49   22.80
   4   1 -13  141.29   22.50
  -4   1  13  119.29   18.90
   3  -1 -13   -0.90    5.60
  -3  -1  13   11.90    8.00
  -3  -1  13   28.40   13.00
   3  -1 -13   27.20   13.30
  -3   1  13   11.00    7.20
   3   1 -13   15.90   10.20
  -3   1  13    4.50    5.40
   3   1 -13   25.60   12.90
   2  -1 -13   12.20    8.60
  -2  -1  13    4.30    6.90
  -2  -1  13    2.80    5.60
   2  -1 -13    6.40    7.00
   2   1 -13   -7.60    3.00
  -2   1  13    3.70    4.90
  -2   1  13   12.20    8.50
   2   1 -13    7.00    6.90
   1  -1 -13  112.09   24.80
   1  -1 -13   95.89   21.40
  -1  -1  13  104.49   21.60
  -1  -1  13  109.79   21.70
   1   1 -13   66.49   17.70
  -1   1  13  106.99   17.50
  -1   1  13   58.29   14.70
   0  -1  13  398.96   31.10
   0  -1  13  370.26   32.50
   0  -1 -13  379.46   33.70
   0  -1 -13  375.96   32.80
   0   1 -13  375.26   31.20
   0   1 -13  382.76   34.10
   0   1  13  347.57   32.10
   0   1  13  344.27   36.30
   1  -1  13  100.79   21.10
  -1  -1 -13  123.99   28.80
  -1  -1 -13  128.99   25.90
   1  -1  13  115.69   23.70
   1   1  13   69.69   18.70
  -1   1 -13   82.49   17.10
  -1   1 -13   58.29   16.70
  -2  -1 -13    6.40    6.50
   2  -1  13    8.50    7.80
   2  -1  13   21.30    9.40
  -2  -1 -13    8.20    8.90
   2   1  13    7.30    7.40
  -2   1 -13    4.30    6.10
   2   1  13   -0.90    4.80
  -2   1 -13   17.30   10.70
  -3  -1 -13   32.80   12.30
   3  -1  13   11.80    7.20
   3  -1  13   34.50   14.20
  -3  -1 -13    0.60    4.80
  -3   1 -13   30.10   12.90
  -3   1 -13   19.40    9.20
   3   1  13   36.20   13.50
   3   1  13   19.70   11.70
   4  -1  13  245.68   24.90
   4  -1  13  230.28   26.40
  -4  -1 -13  190.98   25.80
   4   1  13  209.08   26.40
   4   1  13  215.58   25.40
  -4   1 -13  209.98   25.80
   5  -1  13    0.20    5.40
  -5  -1 -13    0.90    7.10
   5  -1  13    9.10    7.30
  -5   1 -13   -0.60    5.10
   5   1  13    4.00    7.80
   6  -1  13  386.56   35.20
   6  -1  13  397.86   33.30
  -6  -1 -13  375.06   36.90
  -6   1 -13  308.57   32.40
   7  -1  13   -2.70    4.10
  -7  -1 -13   16.00   11.10
   7  -1  13   11.90    8.30
   7   1  13    0.70    5.70
  -7   1 -13   -2.80    4.10
   8  -1  13  122.79   23.00
  -8  -1 -13  153.08   30.70
  -8   1 -13   99.69   22.00
   8   1  13  112.79   24.10
   9  -1  13   11.00    9.50
   9   1  13    4.20    6.10
  -9   1 -13    3.10    6.30
   9   1  13   16.00   11.10
  10  -1  13   18.90   10.60
  10  -1  13    7.90    8.40
  10   1  13   10.50   10.50
  10   1  13   16.60   10.30
  11  -1  13   63.39   16.90
  11  -1  13   28.60   13.40
  11   1  13   34.10   14.00
  11   1  13   30.20   15.50
  11  -2 -13  109.09   30.20
  11  -2 -13   91.39   20.80
  11   2 -13  121.19   44.00
  11   2 -13  126.99   35.20
  10  -2 -13   72.49   27.70
  10  -2 -13   42.60   15.90
  10   2 -13   97.69   30.10
  10   2 -13   73.89   21.50
   9  -2 -13    5.00    9.00
   9  -2 -13   18.60   10.90
   9   2 -13   24.20   18.20
   9   2 -13   23.20   14.80
   8  -2 -13   -0.30    6.00
   8  -2 -13   12.10   13.70
   8   2 -13   -1.70    6.40
   7  -2 -13  873.71   63.59
   7  -2 -13 1041.30   59.49
   7   2 -13 1018.50   68.59
   7   2 -13  960.90   62.59
  -7   2  13  937.91   53.89
   6  -2 -13   24.40   13.80
   6  -2 -13   22.90   15.20
  -6   2  13   45.60   13.90
   6   2 -13   38.50   16.20
   6   2 -13   -0.90    7.30
   5  -2 -13  203.98   28.30
   5  -2 -13  161.98   23.10
   5   2 -13  204.88   28.20
   5   2 -13  233.98   29.20
  -5   2  13  209.68   24.80
   4  -2 -13  659.03   46.20
   4  -2 -13  715.43   50.89
  -4   2  13  647.44   44.00
   4   2 -13  754.82   51.79
   4   2 -13  746.43   50.89
   3  -2 -13 1089.89   59.59
  -3  -2  13  897.11   53.49
   3  -2 -13  944.21   58.19
  -3  -2  13  889.21   53.29
  -3   2  13  978.60   57.79
   3   2 -13 1095.39   60.29
   3   2 -13  962.20   58.49
  -3   2  13  961.30   54.99
   2  -2 -13   54.39   18.00
  -2  -2  13   56.19   16.90
  -2  -2  13   83.99   19.90
   2  -2 -13   57.79   18.40
  -2   2  13   56.69   16.20
  -2   2  13   48.10   15.90
   2   2 -13   25.30   13.20
   2   2 -13   35.70   11.60
   1  -2 -13  104.59   22.20
   1  -2 -13   57.99   17.70
  -1  -2  13   58.69   15.70
  -1  -2  13   71.69   18.20
   1   2 -13   36.80   12.90
  -1   2  13   54.29   15.90
   1   2 -13   52.79   14.40
  -1   2  13   87.19   18.80
   0  -2 -13  272.67   28.60
   0  -2 -13  187.98   24.70
   0  -2  13  297.97   26.60
   0  -2  13  285.47   28.10
   0   2  13  267.07   28.30
   0   2  13  265.97   27.50
   0   2 -13  237.98   27.00
   0   2 -13  214.98   23.70
   1  -2  13 1036.60   51.59
  -1  -2 -13 1060.99   58.19
   1  -2  13 1008.30   56.29
  -1   2 -13  955.40   51.49
   1   2  13  969.10   57.49
   1   2  13 1032.10   57.19
  -1   2 -13 1066.89   59.09
   2  -2  13  269.57   24.50
  -2  -2 -13  253.47   28.90
   2  -2  13  300.37   29.20
  -2  -2 -13  260.27   28.10
   2   2  13  263.07   28.80
  -2   2 -13  303.87   26.40
   2   2  13  286.67   28.90
  -2   2 -13  281.07   29.20
   3  -2  13  570.44   36.40
  -3  -2 -13  562.54   41.30
  -3  -2 -13  615.24   45.60
   3  -2  13  529.85   39.70
   3   2  13  497.65   39.50
  -3   2 -13  589.14   42.50
   3   2  13  510.35   41.50
  -3   2 -13  543.25   36.50
   4  -2  13  172.78   22.80
   4  -2  13  188.08   20.80
  -4  -2 -13  160.68   24.60
  -4   2 -13  149.99   22.00
   4   2  13  155.88   22.50
  -5  -2 -13   -8.60    3.80
   5  -2  13    7.50    8.20
   5  -2  13    0.60    4.40
  -5   2 -13    6.20    8.10
   6  -2  13  177.88   23.40
   6  -2  13  122.99   16.30
  -6  -2 -13  155.78   25.10
   6  -2  13  136.79   18.90
  -6   2 -13  138.49   21.80
   7  -2  13  207.88   23.80
   7  -2  13  177.08   24.20
  -7  -2 -13  241.08   31.20
   7  -2  13  244.68   23.40
   7   2  13  167.18   23.70
  -7   2 -13  251.07   28.50
   8  -2  13   21.30   10.50
   8  -2  13   18.80    9.60
  -8  -2 -13    9.20   10.20
   8   2  13   20.60   12.00
  -8   2 -13   18.70   10.80
   9  -2  13  142.59   19.90
   9   2  13  123.19   26.10
   9   2  13  164.78   25.30
  -9   2 -13  159.38   23.10
  10  -2  13    5.60    7.10
  10  -2  13   19.90   10.80
  10   2  13    1.40    6.20
  10   2  13    9.50   10.30
  11  -2  13   45.60   15.40
  11  -2  13   31.30   12.90
  11   2  13   43.50   19.00
  11   2  13   49.30   19.00
  11  -3 -13   29.60   16.30
  11  -3 -13   11.50    9.20
  11   3 -13   20.40   13.40
  11   3 -13   50.69   23.00
  10  -3 -13   10.70   12.00
  10  -3 -13   35.30   14.30
  10   3 -13   23.30   17.70
   9  -3 -13   91.39   25.70
   9  -3 -13  172.88   23.40
   9   3 -13  154.28   35.90
  -9   3  13  128.99   19.30
   9   3 -13  152.18   31.50
   8  -3 -13   71.99   19.00
   8  -3 -13   77.39   22.80
   8   3 -13   53.39   20.80
   8   3 -13   80.39   23.70
  -8   3  13  110.29   18.00
   7  -3 -13   -1.90    4.70
   7  -3 -13   -0.40    7.80
   7   3 -13    3.70    9.50
  -7   3  13    3.70    7.70
   7   3 -13    9.50    9.90
   6  -3 -13   36.70   17.60
   6  -3 -13   22.10   11.70
   6   3 -13   16.00   12.60
  -6   3  13    2.40    6.90
   6   3 -13   14.10   11.70
   5  -3 -13   45.70   17.80
   5  -3 -13   53.29   17.50
   5   3 -13   45.90   18.70
   5   3 -13   23.40   13.70
  -5   3  13   42.10   15.50
   4  -3 -13   56.59   18.30
   4  -3 -13   48.30   15.50
  -4   3  13   53.69   17.10
   4   3 -13   83.79   23.00
   4   3 -13   30.80   14.60
   3  -3 -13    9.40    7.40
  -3  -3  13    2.30    7.50
   3  -3 -13   -3.90    3.00
   3   3 -13    2.40    6.70
   3   3 -13   -6.40    3.70
  -3   3  13    5.10    6.40
  -2  -3  13    5.90    6.10
  -2  -3  13    4.70    7.40
   2  -3 -13   -2.70    3.70
   2  -3 -13   -2.60    4.20
  -2   3  13    8.40    7.80
   2   3 -13   -0.70    5.20
  -2   3  13   -1.90    3.10
   2   3 -13   -0.40    5.70
   1  -3 -13  173.78   23.90
  -1  -3  13  199.08   22.60
  -1  -3  13  248.58   26.50
   1  -3 -13  237.18   27.50
  -1   3  13  197.88   24.90
  -1   3  13  255.67   27.80
   1   3 -13  239.58   25.10
   1   3 -13  254.57   28.30
   0  -3 -13  103.49   22.00
   0  -3  13  149.19   20.90
   0  -3 -13  150.58   22.50
   0  -3  13   97.99   15.50
   0   3  13  116.89   19.10
   0   3 -13  167.48   20.30
   0   3  13  123.79   20.00
   0   3 -13  152.98   29.10
  -1  -3 -13  201.28   25.20
   1  -3  13  220.98   21.70
  -1  -3 -13  180.38   24.70
   1  -3  13  153.88   21.20
   1   3  13  205.38   25.20
  -1   3 -13  168.38   20.10
   1   3  13  213.48   26.00
  -1   3 -13  239.98   27.20
   2  -3  13   -3.40    3.30
  -2  -3 -13    4.00    7.60
  -2  -3 -13   -3.50    3.00
   2  -3  13    9.10    8.00
  -2   3 -13    7.10    8.40
   2   3  13   -1.00    3.50
  -2   3 -13   18.10    9.30
   2   3  13   12.30    9.40
   3  -3  13   13.90    8.60
  -3  -3 -13   29.60   13.40
   3  -3  13    2.60    5.30
  -3   3 -13   14.50    7.70
  -3   3 -13   19.30   10.40
   3   3  13    8.60    9.10
   4  -3  13   40.20   12.00
  -4  -3 -13   35.00   15.20
   4  -3  13   42.60   14.60
  -4   3 -13   37.70   13.10
  -5  -3 -13    8.80   10.00
   5  -3  13   24.20   10.60
   5  -3  13   15.80    9.10
  -5   3 -13   30.30   12.80
   6  -3  13  161.18   19.30
   6  -3  13  120.49   19.30
   6  -3  13  161.88   17.00
  -6  -3 -13  183.08   36.20
  -6   3 -13  168.08   23.10
  -7  -3 -13  152.08   32.20
   7  -3  13  128.79   18.00
   7  -3  13  156.68   17.30
   7  -3  13  131.19   20.10
  -7   3 -13  188.58   24.30
   7   3  13  199.48   26.10
   8  -3  13  111.89   20.90
   8  -3  13  109.29   15.20
   8  -3  13  123.19   23.80
  -8  -3 -13   74.89   23.70
  -8   3 -13   50.29   16.20
   8   3  13  111.29   24.60
   8   3  13   70.69   21.60
   9  -3  13   12.10    9.40
   9  -3  13    8.10    6.30
   9  -3  13    2.10    6.30
  -9   3 -13   -2.90    4.70
   9   3  13   16.80   10.30
   9   3  13   -2.50    4.40
  10  -3  13    6.50    5.80
  10  -3  13    0.70    4.80
  10   3  13    7.10    9.00
  10   3  13   -2.80    4.30
  11  -3  13   53.59   15.70
  11  -3  13   41.60   12.60
  11   3  13   13.80   12.00
  11   3  13   15.50   12.50
  11  -4 -13  154.48   34.90
  11   4 -13  134.09   35.90
  11   4 -13  163.18   36.70
  10  -4 -13   90.59   19.50
  10  -4 -13   79.19   25.70
  10   4 -13  145.49   32.90
  10   4 -13  151.08   40.20
   9  -4 -13   23.60   17.10
   9  -4 -13   -2.40    5.30
  -9   4  13   19.90   10.80
   9   4 -13   19.70   16.80
   9   4 -13   -8.50    5.70
   8  -4 -13   21.00   10.40
   8  -4 -13   16.00   14.40
   8   4 -13    4.00    9.10
   8   4 -13   16.30   12.80
  -8   4  13   12.30    8.60
   7  -4 -13   48.10   15.40
   7  -4 -13   75.99   21.80
   7   4 -13   58.29   21.30
   7   4 -13   55.69   20.90
  -7   4  13   26.50   11.80
   6  -4 -13   92.89   20.70
   6  -4 -13   48.80   18.70
   6   4 -13   36.30   17.00
   6   4 -13  104.19   25.30
  -6   4  13   77.49   18.20
   5  -4 -13  409.76   35.20
   5  -4 -13  335.47   36.60
   5   4 -13  347.37   37.20
   5   4 -13  341.77   37.10
  -5   4  13  356.06   31.70
   4  -4 -13  664.13   49.50
   4  -4 -13  704.73   47.50
   4   4 -13  600.74   48.60
   4   4 -13  727.13   50.89
  -4   4  13  622.24   44.00
   3  -4 -13  261.07   29.10
   3  -4 -13  294.87   31.90
  -3  -4  13  258.87   27.70
   3   4 -13  291.87   30.50
   3   4 -13  242.78   30.50
  -3   4  13  292.67   29.50
   2  -4 -13   -1.20    4.80
   2  -4 -13    3.10    5.70
  -2  -4  13    1.60    6.00
   2   4 -13    1.20    5.80
   2   4 -13   -0.20    5.90
  -2   4  13    2.70    6.60
  -2   4  13    3.90    5.60
   1  -4 -13   19.40   10.80
   1  -4 -13   49.80   17.40
  -1  -4  13   26.90   12.50
  -1  -4  13    0.20    5.00
  -1   4  13   22.20   10.00
   1   4 -13   34.60   13.40
  -1   4  13    4.50    7.10
   1   4 -13   -2.20    5.40
   0  -4 -13   74.39   20.50
   0  -4  13   48.50   13.40
   0  -4  13   63.79   17.80
   0  -4 -13   46.40   15.90
   0   4 -13   59.49   18.60
   0   4  13   38.90   14.10
   0   4 -13   52.89   14.60
   0   4  13   40.20   14.30
  -1  -4 -13  379.36   35.30
   1  -4  13  396.86   33.60
   1  -4  13  387.76   28.50
  -1  -4 -13  386.46   36.60
  -1   4 -13  351.06   28.40
   1   4  13  332.87   37.60
   1   4  13  388.66   36.80
  -1   4 -13  431.86   36.90
   2  -4  13  511.15   32.20
  -2  -4 -13  514.25   43.30
  -2  -4 -13  493.75   41.00
   2  -4  13  465.95   36.80
  -2   4 -13  494.55   33.00
  -2   4 -13  502.25   39.40
  -3  -4 -13  492.15   43.50
   3  -4  13  550.14   39.20
   3  -4  13  488.95   31.10
  -3   4 -13  576.54   34.20
  -3   4 -13  518.75   40.10
   4  -4  13  578.54   33.60
  -4  -4 -13  623.44   49.70
   4  -4  13  602.74   41.40
  -4   4 -13  600.14   43.10
  -5  -4 -13  262.77   32.90
   5  -4  13  243.28   20.90
   5  -4  13  214.78   24.50
  -5   4 -13  171.38   23.40
   6  -4  13    2.80    4.40
   6  -4  13    2.60    3.90
   6  -4  13    8.80    9.30
  -6  -4 -13   -4.80    4.90
   6   4  13   -2.80    5.00
  -6   4 -13   -1.90    5.40
  -7  -4 -13   53.99   20.20
   7  -4  13   72.89   14.50
   7  -4  13   61.09   16.40
   7  -4  13   66.29   14.40
   7   4  13   66.29   21.90
  -7   4 -13   80.89   20.20
   8  -4  13    5.10    5.50
   8  -4  13    6.60    5.70
   8  -4  13   10.70    8.30
  -8   4 -13    8.50    7.90
   8   4  13    5.60    8.10
   8   4  13   12.10   15.40
   9  -4  13   72.29   14.20
   9  -4  13   81.69   16.60
   9  -4  13   87.49   18.10
   9   4  13   96.29   25.50
   9   4  13  101.39   24.60
  -9   4 -13   68.49   18.00
  10  -4  13  106.49   15.10
  10  -4  13  113.79   18.00
  10   4  13  118.39   27.90
  10   4  13   88.99   24.90
  11   4  13    3.60    6.90
  11   4  13   -6.60    6.30
  11  -5 -13    5.60   11.50
  11   5 -13   86.39   28.70
  11   5 -13   24.40   19.00
  10  -5 -13   45.80   14.10
  10  -5 -13   63.79   23.50
  10   5 -13   80.29   25.50
  10   5 -13   52.59   23.00
   9  -5 -13   58.99   22.20
   9  -5 -13   50.39   15.90
   9   5 -13   58.59   20.40
   9   5 -13   47.20   19.70
  -9   5  13   45.80   13.60
   8  -5 -13    2.40    4.50
   8  -5 -13   -8.20    4.20
  -8   5  13    6.70    7.20
   8   5 -13   -8.00    4.70
   8   5 -13   15.00   13.90
   7  -5 -13   48.80   15.80
   7  -5 -13   68.19   22.70
  -7   5  13   74.19   17.80
   7   5 -13   53.19   19.90
   7   5 -13   15.30   11.90
   6  -5 -13   -3.80    3.70
   6  -5 -13   15.30    9.90
   6   5 -13   -4.00    6.90
   6   5 -13   -1.70    7.10
  -6   5  13   -0.80    4.10
   5  -5 -13   16.20   11.10
   5  -5 -13    0.10    5.40
  -5   5  13   18.20   10.80
   5   5 -13   15.40   11.90
   5   5 -13   12.40   13.20
   4  -5 -13    7.90    9.30
   4  -5 -13   -7.60    3.80
  -4   5  13    1.50    4.80
   4   5 -13    0.70    6.90
   4   5 -13   15.10   10.60
   3  -5 -13   45.70   15.70
   3  -5 -13   40.40   14.60
  -3   5  13   52.19   17.30
   3   5 -13   54.59   20.70
   3   5 -13   45.10   16.80
  -2  -5  13    4.80    7.10
   2  -5 -13   16.50   10.10
   2  -5 -13   48.00   16.70
  -2   5  13   32.50   14.00
   2   5 -13    5.00    7.70
   2   5 -13   32.80   15.00
   1  -5 -13  137.09   28.70
   1  -5 -13  135.59   22.00
  -1  -5  13  167.58   20.40
   1   5 -13  121.19   26.60
  -1   5  13  158.78   23.10
   0  -5  13    6.10    5.90
   0  -5 -13    3.20    6.70
   0  -5 -13    0.30    5.90
   0  -5  13   -2.80    3.70
   0   5 -13    5.80    7.70
   0   5 -13   -5.60    3.30
   1  -5  13  132.59   16.80
  -1  -5 -13  116.09   23.50
  -1  -5 -13  143.69   22.80
   1  -5  13  115.19   18.90
  -1   5 -13  145.49   22.70
  -1   5 -13  131.09   17.30
   2  -5  13   30.80   13.50
  -2  -5 -13   26.20   12.20
  -2  -5 -13   38.70   16.10
   2  -5  13   37.30   11.10
  -2   5 -13   50.19   17.90
  -2   5 -13    9.80    6.20
   3  -5  13    3.00    5.20
  -3  -5 -13    1.10    7.40
   3  -5  13   11.00    7.70
  -3   5 -13    5.60    5.00
  -3   5 -13    2.30    7.60
  -4  -5 -13    6.60   10.30
   4  -5  13   -6.50    4.00
   4  -5  13   -1.60    3.50
  -4   5 -13   -7.00    2.90
  -5  -5 -13   -5.60    6.00
   5  -5  13    5.70    5.00
   5  -5  13    6.60    7.40
  -5   5 -13    5.60    5.80
  -6  -5 -13   18.50   12.70
   6  -5  13    8.50    5.40
   6  -5  13   22.00    6.90
   6  -5  13   20.80   11.40
  -6   5 -13   12.50    8.80
   6   5  13   14.20   10.70
   7  -5  13  346.47   21.80
  -7  -5 -13  352.76   41.10
   7  -5  13  298.17   27.90
   7  -5  13  331.97   19.60
   7   5  13  389.06   39.00
  -7   5 -13  329.97   30.70
   7   5  13  352.66   37.00
   8  -5  13   41.50    9.40
   8  -5  13   53.59    9.90
   8  -5  13   67.49   23.80
   8   5  13   83.19   24.60
  -8   5 -13   59.59   16.40
   8   5  13   60.69   19.60
   9  -5  13   71.09   14.00
   9  -5  13   93.09   10.80
  -9   5 -13  102.69   23.20
   9   5  13  108.99   28.50
   9   5  13  101.89   28.80
  10  -5  13   29.00    9.30
  10   5  13   27.70   15.40
  10   5  13   18.80   11.90
  11  -6 -13    0.70    8.90
  11   6 -13   11.50   13.50
  11   6 -13   -1.60   11.40
  10  -6 -13  120.19   16.10
  10  -6 -13  121.79   29.10
  10   6 -13  114.79   30.70
  10   6 -13  103.69   29.30
   9  -6 -13   56.29   23.00
   9  -6 -13   39.30   12.40
   9   6 -13   24.60   17.10
   9   6 -13   14.90   13.90
   8  -6 -13    2.30    5.60
   8  -6 -13    3.40    9.10
  -8   6  13    0.20    5.90
   8   6 -13   -2.20    7.90
   8   6 -13   20.00   17.30
   7  -6 -13    6.00    7.90
   7  -6 -13    9.60    9.60
  -7   6  13    2.20    5.70
   7   6 -13    3.40    8.30
   7   6 -13   11.60   13.60
   6  -6 -13  480.05   38.50
   6  -6 -13  516.35   46.00
   6   6 -13  465.85   46.00
  -6   6  13  478.35   37.30
   6   6 -13  445.46   45.40
   5  -6 -13   10.20    8.20
   5  -6 -13    4.70    8.00
   5   6 -13   -1.90    5.80
   5   6 -13   25.20   14.40
  -5   6  13   -0.50    5.20
   4  -6 -13  431.36   40.50
   4  -6 -13  405.66   36.50
  -4   6  13  422.86   36.30
   4   6 -13  400.56   40.50
   4   6 -13  362.66   37.40
   3  -6 -13    2.40    7.00
   3  -6 -13    7.50    9.20
  -3   6  13   14.30    9.70
   3   6 -13    3.00    5.80
   3   6 -13    6.10    7.60
  -2  -6  13  117.89   23.40
   2  -6 -13   71.39   18.90
   2  -6 -13   81.99   21.00
  -2   6  13  129.99   30.50
   2   6 -13  124.09   25.10
   2   6 -13   55.69   18.00
   1  -6 -13  114.99   25.70
   1  -6 -13   80.99   21.00
   1   6 -13  120.79   18.90
   1   6 -13   86.29   21.50
   0  -6 -13  223.58   29.10
   0  -6 -13  269.47   31.70
   0  -6  13  243.08   22.90
   0   6 -13  225.58   28.60
   0   6 -13  169.58   20.70
  -1  -6 -13  128.19   28.50
  -1  -6 -13  103.19   22.80
   1  -6  13  149.29   17.20
  -1   6 -13  142.89   22.60
  -1   6 -13  125.29   16.70
  -2  -6 -13 2145.39  100.19
   2  -6  13 2019.70   71.79
   2  -6  13 1951.20   86.09
  -2   6 -13 1946.01   89.59
  -2   6 -13 2074.79   75.29
  -3  -6 -13  326.17   37.70
   3  -6  13  367.76   32.50
   3  -6  13  411.06   24.40
  -3   6 -13  376.76   34.90
  -3   6 -13  366.66   24.50
   4  -6  13  100.49   20.60
  -4  -6 -13  124.69   30.60
  -4   6 -13  145.49   21.80
   5  -6  13   48.20    7.80
   5  -6  13   45.20   14.10
   5  -6  13   41.40    7.80
  -5  -6 -13   30.00   15.10
  -5   6 -13   50.29   14.70
   6  -6  13   18.00    4.20
  -6  -6 -13   16.40   13.20
   6  -6  13   23.40   10.90
  -6   6 -13   26.70   11.70
   6   6  13   24.90   12.70
   7  -6  13   11.50    9.10
  -7   6 -13   13.80    9.10
   7   6  13   23.10   12.40
   7   6  13    9.30   11.50
   8  -6  13  123.69   17.50
   8   6  13  107.39   27.40
   8   6  13  140.29   32.30
  -8   6 -13  131.49   21.50
  -9   6 -13   12.20    7.60
   9   6  13    7.30    8.30
   9   6  13   -0.70    5.40
  10   6  13  129.79   31.60
  10   6  13   98.79   27.90
  10  -7 -13   47.40   22.60
  10   7 -13   42.40   20.10
  10   7 -13   18.20   15.40
   9  -7 -13  104.79   15.90
   9  -7 -13  111.19   30.90
   9   7 -13   74.99   28.40
   9   7 -13  119.59   33.50
   8  -7 -13   27.00   16.10
   8   7 -13   31.90   18.60
   8   7 -13   29.30   18.10
   7  -7 -13  142.69   20.70
   7  -7 -13  170.18   33.70
   7   7 -13  155.48   33.40
  -7   7  13  123.49   19.50
   7   7 -13  128.79   30.40
   6  -7 -13  105.59   26.70
   6  -7 -13  120.99   19.90
  -6   7  13  124.09   19.60
   6   7 -13  123.19   30.60
   6   7 -13   72.69   21.90
   5  -7 -13   12.70    9.50
   5  -7 -13   17.10   12.20
  -5   7  13    7.00    6.40
   5   7 -13   -0.40    7.10
   5   7 -13   43.40   18.90
   4  -7 -13    6.70    7.20
   4  -7 -13    4.40    8.40
   4   7 -13   -4.10    6.10
  -4   7  13   10.70    8.90
   4   7 -13   11.80   11.10
   3  -7 -13   39.10   16.20
   3  -7 -13   23.60   12.30
   3   7 -13    7.90    9.60
   3   7 -13   37.70   15.30
   2  -7 -13    5.70    9.70
  -2  -7  13   32.80   12.60
   2  -7 -13    8.50    9.30
   2   7 -13    5.30    8.90
   2   7 -13    5.50    8.70
   1  -7 -13  325.37   35.70
  -1  -7  13  386.66   30.40
   1  -7 -13  356.56   36.60
   1   7 -13  361.56   31.90
   1   7 -13  355.56   37.40
   0  -7 -13    6.50    8.40
   0  -7 -13   -5.90    4.90
   0  -7  13    1.40    4.30
   0   7 -13   15.40    8.70
   0   7 -13    9.00   10.30
   1  -7  13  167.08   17.50
  -1  -7 -13  136.19   29.40
  -1  -7 -13  183.18   27.80
  -1   7 -13  159.98   24.70
  -1   7 -13  150.48   18.20
  -2  -7 -13   12.40   11.20
   2  -7  13   11.00    6.00
  -2   7 -13   18.30    8.50
  -2   7 -13   -6.90    4.20
   3  -7  13   92.49   11.10
   3  -7  13   96.19   22.30
  -3  -7 -13   69.79   20.10
  -3   7 -13   93.79   11.70
  -3   7 -13  138.39   27.90
  -4  -7 -13   19.80   14.50
   4  -7  13    9.50    9.10
   4  -7  13    3.50    2.80
  -4   7 -13   22.90   11.80
   5  -7  13   95.39   20.10
  -5  -7 -13  146.89   32.80
  -5   7 -13  125.89   25.90
   6  -7  13   19.20   10.70
  -6   7 -13   -2.20    3.60
   6   7  13   14.30   11.50
   6   7  13   11.40   12.00
  -7   7 -13   73.39   19.50
   7   7  13   66.79   20.90
   7   7  13   51.69   20.30
   8  -7  13   10.20    8.10
   8   7  13   -7.10    4.40
   8   7  13   -3.30    4.50
  -8   7 -13    6.90    6.10
  -9   7 -13   33.30   10.00
   9   7  13   13.50   12.00
   9   7  13    7.00    9.70
  10   7  13   10.50   12.90
  10   7  13   -3.70    5.60
  10  -8 -13  136.99   32.00
  10   8 -13  190.08   46.40
  10   8 -13  123.19   35.10
   9  -8 -13   12.00    7.90
   9  -8 -13   14.70   13.10
   9   8 -13   -0.60    9.40
   9   8 -13    7.40   12.30
   8  -8 -13    1.40   15.50
   8  -8 -13    3.30    5.90
   8   8 -13   26.20   17.20
   8   8 -13   -5.90    8.20
   7  -8 -13   14.60   13.20
   7  -8 -13   22.70   10.40
   7   8 -13   29.70   16.30
  -7   8  13   17.70    9.30
   7   8 -13   21.00   15.20
   6  -8 -13  364.36   33.40
   6  -8 -13  333.87   38.20
   6   8 -13  407.06   47.70
  -6   8  13  292.57   30.20
   6   8 -13  282.77   39.00
   5  -8 -13   28.20   12.60
   5  -8 -13    1.40    9.40
   5   8 -13    0.70    7.50
   5   8 -13  -10.30    4.70
   4  -8 -13  274.07   33.60
   4  -8 -13  175.68   26.10
   4   8 -13  333.17   38.90
   4   8 -13  315.47   35.40
   3  -8 -13   35.30   15.40
   3  -8 -13   77.69   24.30
   3   8 -13   60.09   19.60
   3   8 -13   66.99   20.30
   2  -8 -13  104.39   24.60
   2  -8 -13  126.79   26.60
   2   8 -13  142.79   27.10
   2   8 -13   92.49   23.70
   1  -8 -13   23.30   12.90
   1  -8 -13   27.50   14.60
  -1  -8  13   31.20   11.40
   1   8 -13   43.00   17.50
   1   8 -13   22.00   11.50
   0  -8  13  557.54   34.90
   0  -8 -13  592.44   49.80
   0  -8 -13  484.65   45.10
   0   8 -13  610.84   38.90
   0   8 -13  607.34   48.60
   1  -8  13   -0.20    4.80
  -1  -8 -13   -0.90    5.30
  -1   8 -13    4.70    5.80
  -1   8 -13    0.90    7.30
   2  -8  13  121.49   13.00
  -2  -8 -13  122.19   30.00
  -2   8 -13  128.59   14.80
  -2   8 -13  148.39   23.70
   3  -8  13    3.40    3.20
  -3  -8 -13   -0.90    5.60
  -3   8 -13   -1.30    3.20
  -3   8 -13    5.40    7.70
  -4  -8 -13   29.90   15.40
  -4   8 -13   21.10   12.20
   5  -8  13    0.70    4.80
  -5   8 -13    1.10    5.60
   5   8  13   -7.60    5.20
   6  -8  13   -3.10    4.40
  -6   8 -13    0.70    5.90
   6   8  13   -8.40    4.40
   6   8  13   -1.10    5.10
   7  -8  13   -2.90    5.50
   7   8  13    8.50   10.00
  -7   8 -13    4.70    6.90
   7   8  13   -3.60    5.30
   8   8  13   20.90   12.50
  -8   8 -13   55.29   13.20
   8   8  13    4.70    7.90
   9   8  13   52.29   20.90
   9   8  13   54.59   22.40
   9  -9 -13   35.20   19.00
   9   9 -13   46.70   22.80
   9   9 -13   -0.10    9.20
   8  -9 -13   85.99   25.20
   8  -9 -13  110.99   21.30
   8   9 -13   48.50   23.60
   8   9 -13   61.09   25.10
   7  -9 -13  149.29   31.30
   7  -9 -13   99.09   20.80
   7   9 -13  122.39   33.80
   7   9 -13   95.69   29.30
  -7   9  13   85.29   19.80
   6  -9 -13    2.70    6.10
   6  -9 -13   16.40   11.90
   6   9 -13    8.80   12.80
   6   9 -13   37.30   19.30
   5  -9 -13   35.20   14.70
   5  -9 -13   46.30   18.60
   5   9 -13   12.00   13.00
   5   9 -13   22.40   15.40
   4  -9 -13   26.70   13.40
   4  -9 -13   90.39   24.70
   4   9 -13   44.70   17.40
   4   9 -13   55.39   31.30
   3  -9 -13    3.40    8.70
   3  -9 -13    0.70    6.50
   3   9 -13   23.70   15.70
   3   9 -13   -1.00    8.10
   2  -9 -13  245.98   31.50
   2  -9 -13  229.68   31.40
   2   9 -13  190.68   25.90
   2   9 -13  209.58   31.00
   1  -9 -13   39.50   17.30
  -1  -9  13   37.80   12.50
   1  -9 -13   20.60   14.30
   1   9 -13   31.20   12.40
   1   9 -13   10.00   11.80
   0  -9  13   79.39   15.90
   0  -9 -13   98.29   26.00
   0   9 -13   92.89   19.20
   0   9 -13   44.80   17.20
  -1  -9 -13   13.60   11.30
   1  -9  13    8.70    5.80
  -1   9 -13    7.40    9.00
  -1   9 -13    6.80    7.90
   2  -9  13   33.10    8.00
  -2  -9 -13   12.30   12.90
  -2   9 -13   33.00    9.40
  -2   9 -13   10.40   10.90
  -3  -9 -13   25.60   16.30
  -3   9 -13   11.30   10.10
  -4   9 -13   33.90   15.80
   4   9  13    0.70    6.70
   5   9  13  203.78   30.20
  -5   9 -13  194.88   25.20
   5   9  13  181.08   37.30
   6  -9  13  118.49   18.10
   6   9  13  168.18   36.10
  -6   9 -13  116.99   19.50
   6   9  13  148.39   33.10
  -7   9 -13   85.19   25.90
   7   9  13   94.79   27.40
   7   9  13   42.90   17.80
   8   9  13   89.19   27.40
  -8   9 -13   65.29   14.40
   8   9  13   74.99   24.30
   9   9  13   60.89   26.00
   9   9  13   25.20   14.30
   9 -10 -13   47.70   19.90
   9  10 -13   50.99   31.10
   9  10 -13   32.90   20.40
   8 -10 -13   -1.30    5.60
   8  10 -13    3.70   11.80
   8  10 -13   -3.30    8.90
   7  10 -13   -8.40    5.70
   7  10 -13    6.70   13.40
   6 -10 -13  141.59   22.50
   6 -10 -13  101.39   26.30
   6  10 -13   80.09   26.50
   6  10 -13  100.79   30.00
   5 -10 -13  208.08   31.10
   5 -10 -13  274.77   31.20
   5  10 -13  227.98   35.00
   5  10 -13  145.19   33.60
   4 -10 -13  178.48   27.00
   4 -10 -13  224.88   31.90
   4  10 -13  254.97   33.10
   4  10 -13  238.78   36.10
   3 -10 -13  217.18   31.00
   3 -10 -13  190.48   28.30
   3  10 -13  151.68   25.10
   3  10 -13  201.18   32.30
   2 -10 -13   78.29   23.50
   2 -10 -13   83.69   24.60
   2  10 -13  107.59   23.70
   2  10 -13   87.79   24.30
   1 -10 -13   70.29   21.30
  -1 -10  13   74.69   17.30
   1  10 -13   10.30   11.20
   1  10 -13   73.19   19.80
   0 -10 -13   45.20   18.40
   0 -10  13   20.50    9.10
   0  10 -13   18.20   14.50
  -1 -10 -13   31.50   16.80
   1 -10  13   20.30    7.50
  -1  10 -13   23.20   13.70
  -1  10 -13   18.90    8.90
   2 -10  13  261.07   17.00
  -2  10 -13  232.18   30.80
  -2  10 -13  263.97   19.40
  -3  10 -13   87.39   23.40
   3  10  13   31.60   15.90
   4  10  13   -3.50    4.80
  -4  10 -13    7.60    9.00
   5  10  13   -3.40    5.40
  -5  10 -13   15.60   11.60
   5  10  13    5.60    9.10
   6 -10  13    7.50    8.50
   6  10  13    5.10    7.70
  -6  10 -13   14.20    8.20
   6  10  13   12.60   11.90
   7  10  13   -0.60    6.10
  -7  10 -13   13.20   10.70
   7  10  13    6.60   10.60
   8  10  13   41.40   21.80
   8 -11 -13   12.40   11.20
   8  11 -13    1.00   18.50
   8  11 -13   37.30   21.10
   7 -11 -13    0.00    6.90
  -7  11  13    0.40    5.30
   7  11 -13   21.30   18.50
   7  11 -13   25.10   20.10
  -6  11  13   48.20   15.90
   6  11 -13   24.70   17.40
   6  11 -13    9.50   13.90
   5 -11 -13    2.60    7.50
   5  11 -13   -1.10    8.90
   5  11 -13    0.50    9.20
  -5  11  13    6.90    7.20
   4 -11 -13    4.20    8.70
  -4  11  13   13.40    9.10
   4  11 -13    9.20   12.30
   4  11 -13   -5.60    5.60
   3 -11 -13   -2.70    6.20
   3 -11 -13    5.70   10.00
   3  11 -13   28.10   15.80
   3  11 -13    8.30   10.20
   2 -11 -13  172.08   36.10
   2  11 -13  227.38   28.40
   2  11 -13  208.58   33.00
   1 -11 -13   46.40   20.10
   1  11 -13   11.20   20.60
  -1  11  13   36.00   14.90
   1  11 -13   22.80   12.40
   0 -11  13  165.68   34.50
   0  11 -13  124.19   18.70
   0  11 -13  141.29   30.40
   0  11  13  134.19   28.90
   1 -11  13   69.59   13.90
  -1  11 -13   46.20   18.20
  -1  11 -13   46.50   12.80
   1  11  13   58.79   20.30
  -2  11 -13   73.59   21.40
  -2  11 -13  119.79   12.20
   2  11  13  108.99   29.00
   3  11  13    1.00    6.50
  -3  11 -13    0.40    6.70
   4  11  13   35.90   16.40
  -4  11 -13   73.59   21.50
   4  11  13   55.19   18.80
   5  11  13   -4.60    4.10
  -5  11 -13    2.30    5.60
   5  11  13    2.90    7.60
   6  11  13  165.58   38.40
  -6  11 -13  147.59   22.50
   6  11  13  207.58   33.40
  -7  11 -13   72.49   20.10
   7  11  13   80.99   28.20
   7  11  13   91.69   30.20
   7 -12 -13    2.60    6.90
  -7  12  13    3.00    5.60
   7  12 -13   10.40   16.40
   7  12 -13   -1.70    8.90
   6 -12 -13    8.20   10.50
  -6  12  13    5.20    7.50
   6  12 -13    3.20   10.30
   6  12 -13   -4.40    7.90
   5 -12 -13  148.79   33.50
   5  12 -13   79.99   26.50
   5  12 -13   79.39   26.70
  -5  12  13   92.79   21.00
   4 -12 -13   44.00   17.80
  -4  12  13   12.00   10.80
   4  12 -13    5.30   12.90
   4  12 -13   11.70   12.40
  -3  12  13   55.49   19.70
   3  12 -13   62.69   23.80
   3  12 -13   62.19   21.30
   2  12 -13   10.50    9.40
   2  12 -13   17.60   14.90
  -2  12  13   24.10   15.20
   1  12 -13   41.10   14.20
  -1  12  13   20.40   13.30
   1  12 -13   17.40   14.20
   0 -12  13   80.19   16.50
   0  12 -13   65.09   21.20
   0  12  13   61.59   21.20
   0  12 -13   49.70   14.20
  -1  12 -13   71.69   28.60
  -1  12 -13   71.99   15.20
   1  12  13   33.80   17.90
   2  12  13    2.10    8.10
  -2  12 -13    5.50    9.80
  -2  12 -13    9.00    4.10
   3  12  13   92.29   26.50
  -3  12 -13  193.38   36.90
  -4  12 -13   -0.10    8.50
   4  12  13    3.30    7.80
   4  12  13    0.70    6.70
   5  12  13   21.10   17.10
  -5  12 -13   22.60   12.70
   5  12  13    7.20   11.20
   6  12  13    3.80   10.90
  -6  12 -13    6.00    7.30
   6  12  13    1.40    8.40
  -6  13  13    0.20    6.00
   6  13 -13   11.00   13.20
   6  13 -13    4.00   16.80
  -5  13  13    0.20    5.80
   5  13 -13   -8.20    6.50
   5  13 -13    7.60   12.80
   4  13 -13   -4.30    6.50
  -4  13  13   30.00   14.70
   4  13 -13   17.40   13.10
  -3  13  13   17.50   11.70
   3  13 -13   48.80   23.70
   3  13 -13   15.00   12.00
  -2  13  13   57.89   20.80
   2  13 -13   41.90   20.50
   2  13 -13   59.79   18.70
   1  13 -13    5.60    9.90
  -1  13  13   -1.60    5.90
   1  13 -13   17.30   11.80
   0  13 -13   46.30   14.50
   0  13 -13   92.99   27.30
   0  13  13  153.18   35.10
  -1  13 -13   -0.40    3.90
  -1  13 -13   -3.90    6.20
   1  13  13    0.50    6.80
  -2  13 -13   88.89   24.60
   2  13  13   53.09   19.70
   3  13  13   69.39   24.20
  -3  13 -13   54.59   21.60
   3  13  13   44.30   18.50
   4  13  13    2.50    7.40
   4  13  13   -4.90    4.90
  -4  13 -13   15.30   12.70
  -5  13 -13   25.50   14.20
   5  13  13   48.00   27.20
   5  13  13  118.89   48.60
   4  14 -13   14.40   11.80
  -4  14  13   35.10   18.10
   3  14 -13   38.50   20.00
   3  14 -13   69.39   23.60
  -3  14  13   57.09   20.00
   2  14 -13   23.60   13.00
   2  14 -13    2.70   12.40
  -2  14  13   10.40   10.40
   1  14 -13    8.60    8.30
  -1  14  13   35.20   17.00
   1  14 -13   -0.50    7.40
   0  14 -13   18.50   13.40
   0  14  13   36.30   18.40
   0  14 -13   19.00   10.70
  -1  14 -13  121.39   15.30
  -1  14 -13  127.99   32.50
   1  14  13   85.89   27.40
  -2  14 -13   24.50   16.10
   2  14  13   39.40   18.10
   2  14  13   46.20   19.80
   3  14  13  315.07   42.40
   3  14  13  412.36   46.20
  -3  14 -13  267.77   35.80
  -4  14 -13   20.10   22.90
   4  14  13   -5.10    5.40
   4  14  13   14.70   13.80
  -2  15  13   17.70   13.30
   2  15 -13   28.60   14.60
   2  15 -13   15.30   15.80
   1  15 -13   79.99   22.50
   1  15 -13   47.50   20.80
  -1  15  13   38.30   17.50
   0  15  13   60.19   22.30
   0  15 -13  114.19   27.90
   0  15 -13   51.29   23.60
   1  15  13    0.00    7.00
   1  15  13   -1.30    7.30
  -1  15 -13   -1.10    7.30
  11   0 -14    1.40    7.10
  11   0 -14   10.90   12.50
  10   0 -14  175.28   40.20
  10   0 -14  171.18   27.30
   9   0 -14    1.70    7.80
   9   0 -14   -9.30    6.10
   8   0 -14   90.89   25.70
   8   0 -14   98.19   34.70
   7   0 -14    8.70   11.60
   7   0 -14    1.30    7.50
   6   0 -14   53.99   19.80
   5   0 -14    1.50    7.70
   5   0 -14    7.50    9.10
   4   0 -14 2081.19   95.19
   4   0 -14 1884.31   90.29
   3   0 -14    8.40    8.30
  -3   0  14    3.90    6.90
   3   0 -14    6.10    8.90
   2   0 -14  271.57   29.60
  -2   0  14  230.78   26.60
   2   0 -14  317.87   32.30
  -2   0  14  297.77   30.10
   1   0 -14    9.80    7.50
   1   0 -14    2.30    6.10
  -1   0  14    5.40    5.90
  -1   0  14   -0.60    4.50
   0   0  14  340.47   30.90
   0   0 -14  333.57   33.00
   0   0 -14  297.87   29.70
   0   0  14  348.77   32.70
   1   0  14   -2.60    3.50
  -1   0 -14    2.60    5.50
   1   0  14   -1.90    3.80
  -1   0 -14    1.00    4.80
   2   0  14  214.18   26.10
  -2   0 -14  181.58   23.20
   2   0  14  137.79   20.10
  -2   0 -14  231.48   27.40
  -3   0 -14    3.80    6.30
  -3   0 -14    2.60    4.70
   3   0  14   -1.40    6.50
   3   0  14   11.40    8.10
  -4   0 -14 1055.29   63.89
   4   0  14 1083.99   59.39
  -5   0 -14    4.60    8.10
   5   0  14   -0.30    4.30
  -6   0 -14   49.99   16.80
   7   0  14   -2.60    5.40
  -7   0 -14    1.30    6.10
   8   0  14   22.70   11.40
  -8   0 -14   44.70   17.80
  -9   0 -14    8.80    9.50
   9   0  14   -1.60    4.50
  10   0  14  244.28   28.60
  10   0  14  229.08   28.80
  11   0  14    2.30    8.10
  11   0  14   -2.50    5.20
  11  -1 -14    4.90    8.70
  11  -1 -14   -6.70    6.20
  11   1 -14    7.70   12.40
  11   1 -14   -2.20    7.00
  10  -1 -14    1.70    8.60
  10  -1 -14   22.20   11.70
  10   1 -14   45.80   18.70
  10   1 -14   19.20   17.20
   9  -1 -14  286.87   32.60
   9  -1 -14  227.58   36.20
   9   1 -14  282.27   34.80
   9   1 -14  341.37   42.80
   8  -1 -14    5.00    8.50
   8   1 -14    4.10    9.90
   8   1 -14   -4.20    7.20
   7  -1 -14  283.77   32.10
   7  -1 -14  201.38   31.50
   7   1 -14  164.78   27.60
   7   1 -14  313.07   38.40
   6  -1 -14   38.90   16.90
   6  -1 -14   37.90   13.90
   6   1 -14   42.20   16.00
   6   1 -14   59.09   21.40
   5  -1 -14   18.20   12.00
   5  -1 -14   18.60   11.30
   5   1 -14   27.90   13.40
   5   1 -14   33.10   15.60
   4  -1 -14    7.70    9.10
   4  -1 -14    4.50    7.90
   4   1 -14   10.20    9.30
  -4   1  14   11.50    9.30
   4   1 -14   31.40   15.00
  -3  -1  14  145.09   34.70
   3  -1 -14  142.89   29.20
   3  -1 -14   88.79   19.90
  -3   1  14  124.39   19.90
   3   1 -14  131.69   26.80
   3   1 -14  105.69   24.60
   2  -1 -14   69.79   18.10
   2  -1 -14   90.99   20.90
  -2  -1  14  105.99   24.00
  -2  -1  14  122.69   25.60
  -2   1  14  102.79   22.80
   2   1 -14   87.89   21.10
   2   1 -14   73.09   19.00
  -2   1  14  102.39   22.10
   1  -1 -14  561.94   41.90
  -1  -1  14  483.45   37.40
   1  -1 -14  516.85   41.50
  -1  -1  14  486.95   38.80
   1   1 -14  498.35   40.80
   1   1 -14  520.45   39.80
  -1   1  14  478.85   39.00
  -1   1  14  493.75   39.20
   0  -1 -14   59.79   17.50
   0  -1  14   58.59   15.20
   0  -1  14   31.60   12.50
   0  -1 -14   85.89   20.70
   0   1  14   36.00   12.50
   0   1  14   81.79   20.40
   0   1 -14   37.60   14.00
   0   1 -14   45.40   14.00
  -1  -1 -14  131.19   20.20
  -1  -1 -14  112.39   22.90
   1  -1  14  153.88   22.40
   1  -1  14  146.29   20.40
  -1   1 -14  132.59   21.20
   1   1  14  156.48   21.60
   1   1  14  143.19   21.70
   2  -1  14   19.50    9.80
  -2  -1 -14   16.00    9.60
  -2  -1 -14   24.30   12.90
   2  -1  14   32.10   11.80
   2   1  14   24.70   12.30
  -2   1 -14   -3.50    3.80
  -2   1 -14   15.70    9.80
   2   1  14   12.70    8.80
   3  -1  14  264.07   26.50
  -3  -1 -14  191.98   26.60
  -3  -1 -14  312.57   30.70
   3  -1  14  226.08   27.10
  -3   1 -14  216.68   49.00
  -3   1 -14  257.47   29.20
   3   1  14  205.08   25.30
   4  -1  14  169.58   38.60
  -4  -1 -14  190.18   26.50
   4  -1  14  150.98   23.80
   4   1  14  140.59   21.20
  -4   1 -14  147.79   22.70
   5  -1  14   64.69   17.60
  -5  -1 -14   84.69   23.10
  -5   1 -14   72.19   19.90
  -6  -1 -14   23.10   13.80
   6  -1  14    6.90    7.00
  -6   1 -14   -1.80    5.50
  -7  -1 -14  118.09   27.80
   7  -1  14  108.99   17.30
   7   1  14   82.09   19.50
  -7   1 -14  138.59   28.10
   8  -1  14   52.89   14.90
  -8  -1 -14   33.40   13.60
   8   1  14   62.49   19.90
  -8   1 -14   35.00   15.80
   9  -1  14    0.60    6.80
   9   1  14   -3.00    4.80
   9   1  14   10.60   10.20
  -9   1 -14   -0.80    5.50
  10  -1  14    0.10    5.40
  10  -1  14   -3.30    4.70
  10   1  14   -2.70    4.60
  10   1  14   -0.20    6.70
  11  -1  14    7.70    7.30
  11  -1  14   -6.30    5.20
  11   1  14    5.90   10.40
  11   1  14    1.40    8.30
  11  -2 -14   20.60   16.20
  11  -2 -14   10.00    8.50
  11   2 -14   35.10   18.30
  11   2 -14   18.50   16.20
  10  -2 -14   95.49   23.40
  10  -2 -14   84.69   28.00
  10   2 -14   43.20   20.50
  10   2 -14  120.29   35.90
   9  -2 -14    8.30    8.70
   9  -2 -14    9.20   10.90
   9   2 -14    7.30    8.80
   9   2 -14   -3.20    7.70
   8  -2 -14   15.10   11.50
   8  -2 -14   20.60   18.20
   8   2 -14   11.10   12.00
   8   2 -14    2.10    8.70
   7  -2 -14   29.20   15.60
   7  -2 -14   23.60   11.50
   7   2 -14   65.29   20.80
   7   2 -14   35.10   17.20
   6  -2 -14  133.99   28.20
   6  -2 -14  135.49   31.60
   6   2 -14  156.88   30.30
   6   2 -14  164.98   34.10
   5  -2 -14   29.70   14.20
   5  -2 -14   23.80   13.70
   5   2 -14   78.89   24.40
   5   2 -14   38.20   15.40
  -5   2  14   33.50   14.70
   4  -2 -14  154.38   24.50
   4  -2 -14  159.38   23.90
  -4   2  14  128.09   20.50
   4   2 -14  141.79   23.50
   4   2 -14  174.98   33.70
   3  -2 -14   10.60    9.30
   3  -2 -14   -5.70    2.90
  -3   2  14   19.50   11.20
   3   2 -14    8.80    7.00
   3   2 -14    9.70    7.80
   2  -2 -14  885.71   55.49
  -2  -2  14  842.32   51.29
   2  -2 -14  822.12   53.79
  -2  -2  14  778.02   65.19
  -2   2  14  897.81   54.59
   2   2 -14  979.70   59.29
   2   2 -14  805.92   51.89
  -1  -2  14  304.77   30.20
   1  -2 -14  271.77   30.20
   1  -2 -14  301.47   31.10
  -1  -2  14  279.77   27.50
  -1   2  14  297.57   30.40
   1   2 -14  246.78   29.70
   1   2 -14  339.97   31.10
  -1   2  14  312.47   31.30
   0  -2  14  157.48   22.20
   0  -2 -14  153.28   23.00
   0  -2 -14  145.69   22.20
   0  -2  14  208.68   28.10
   0   2  14  175.58   23.90
   0   2 -14  174.88   24.40
   0   2  14  165.78   22.70
  -1  -2 -14  136.69   21.00
  -1  -2 -14   61.29   16.60
   1  -2  14  111.99   24.40
   1  -2  14  144.09   18.90
   1   2  14  130.79   20.50
  -1   2 -14   96.79   20.70
   1   2  14   73.69   18.20
  -1   2 -14  122.99   18.80
   2  -2  14  335.17   32.10
  -2  -2 -14  314.77   33.10
  -2  -2 -14  290.17   30.70
   2  -2  14  320.37   28.00
  -2   2 -14  323.77   32.60
   2   2  14  301.87   31.30
  -2   2 -14  303.57   27.90
  -3  -2 -14   27.80   11.60
   3  -2  14   38.20   12.90
   3  -2  14   16.00   10.20
  -3  -2 -14   11.20   10.80
   3   2  14   35.10   15.30
  -3   2 -14   35.10   13.50
  -3   2 -14   64.79   17.20
   4  -2  14  273.07   29.70
  -4  -2 -14  292.97   33.60
   4  -2  14  272.77   26.30
  -4   2 -14  280.97   30.70
   5  -2  14  299.57   38.20
   5  -2  14  294.67   27.70
  -5  -2 -14  271.27   32.90
  -5   2 -14  334.97   33.50
   6  -2  14    7.50    6.90
  -6  -2 -14   -0.80    6.50
  -6   2 -14    3.50    7.70
   7  -2  14   59.69   17.00
  -7  -2 -14   68.39   21.30
   7  -2  14   57.19   15.40
  -7   2 -14   64.79   20.30
   7   2  14   58.69   17.70
   8  -2  14   65.59   17.80
  -8  -2 -14   84.49   24.00
   8  -2  14   72.69   17.40
   8   2  14   30.10   14.40
  -8   2 -14   59.39   17.60
   9  -2  14   20.90   10.40
   9   2  14   -1.70    5.20
  -9   2 -14   18.70   12.60
   9   2  14   23.60   12.50
  10  -2  14  104.39   22.40
  10  -2  14  115.89   18.70
  10   2  14   86.99   22.60
  10   2  14  141.39   29.20
  11  -2  14   48.00   15.10
  11  -2  14   77.69   18.60
  11   2  14   76.29   22.70
  11   2  14   87.39   24.20
  11  -3 -14   -7.00    6.30
  11  -3 -14    8.30    8.70
  11   3 -14    5.50   13.90
  11   3 -14    0.60    7.80
  10  -3 -14    4.90    8.80
  10  -3 -14    7.70   10.40
  10   3 -14   -8.50    8.20
  10   3 -14    0.30    7.30
   9  -3 -14   81.49   26.00
   9  -3 -14  132.09   21.60
   9   3 -14  105.99   27.30
   9   3 -14  138.29   37.10
   8  -3 -14  353.46   52.49
   8  -3 -14  340.47   34.20
   8   3 -14  353.56   39.90
   8   3 -14  327.77   41.90
   7  -3 -14  383.06   35.80
   7  -3 -14  349.27   40.80
   7   3 -14  338.67   38.70
   7   3 -14  283.37   37.60
   6  -3 -14  119.09   27.50
   6  -3 -14  148.59   22.60
   6   3 -14   84.79   24.30
   6   3 -14   89.09   23.20
   5  -3 -14    6.10    8.50
   5  -3 -14   12.00   10.50
  -5   3  14    0.40    6.60
   5   3 -14   -2.80    6.70
   5   3 -14   29.30   16.20
   4  -3 -14   -3.20    3.90
   4  -3 -14   -1.20    6.60
  -4   3  14   -0.20    5.40
   4   3 -14   -1.40    6.80
   4   3 -14    3.60    9.50
   3  -3 -14   71.69   18.50
   3  -3 -14   41.90   16.50
   3   3 -14   35.70   15.90
   3   3 -14   51.09   17.60
  -3   3  14   49.20   15.70
   2  -3 -14  158.48   30.80
   2  -3 -14  139.09   27.70
  -2  -3  14  154.58   21.40
   2   3 -14  120.09   25.30
  -2   3  14  131.89   27.20
   2   3 -14  136.29   26.70
  -1  -3  14  428.96   34.20
   1  -3 -14  383.66   36.30
   1  -3 -14  431.26   38.40
   1   3 -14  417.16   35.10
   1   3 -14  470.55   40.10
  -1   3  14  442.96   37.90
   0  -3 -14  662.23   47.30
   0  -3  14  694.43   42.10
   0  -3 -14  635.34   47.90
   0  -3  14  615.44   44.50
   0   3 -14  643.44   44.30
   0   3  14  682.93   56.59
   0   3 -14  666.43   48.40
   0   3  14  638.34   55.89
  -1  -3 -14  186.58   26.00
   1  -3  14  227.48   26.40
  -1  -3 -14  216.78   27.20
   1  -3  14  235.28   23.70
  -1   3 -14  193.58   25.80
  -1   3 -14  212.58   23.40
  -2  -3 -14   29.60   13.90
  -2  -3 -14   21.20   11.80
   2  -3  14   13.90    8.60
   2  -3  14   14.80    9.70
  -2   3 -14   15.80    8.30
  -2   3 -14   14.40    9.70
   3  -3  14    9.90    6.60
   3  -3  14   -2.30    4.70
  -3  -3 -14   10.90   10.30
  -3   3 -14   11.00    7.30
  -3   3 -14   20.40   11.60
   4  -3  14   -1.00    4.90
  -4  -3 -14    3.70    6.10
   4  -3  14    9.70    7.50
  -4   3 -14    8.40    8.90
   5  -3  14   -2.70    4.20
   5  -3  14    4.00    5.90
  -5  -3 -14   12.60   12.60
  -5   3 -14    6.90    8.20
  -6  -3 -14  187.58   29.20
   6  -3  14  198.28   19.70
   6  -3  14  180.58   21.00
  -6   3 -14  192.68   26.10
  -7  -3 -14  114.69   29.60
   7  -3  14  116.49   22.40
   7  -3  14   83.99   16.50
   7   3  14  140.29   28.20
  -7   3 -14  133.39   26.80
   8  -3  14   97.09   21.10
   8  -3  14   63.79   16.00
  -8  -3 -14   50.39   21.00
  -8   3 -14   72.79   19.70
   8   3  14   78.39   20.20
   9  -3  14   25.80    9.90
   9  -3  14   24.10   11.90
   9   3  14    4.40   10.00
  -9   3 -14   17.10   10.60
   9   3  14   23.60   12.80
  10  -3  14   -2.10    4.00
  10  -3  14   -0.90    6.10
  10   3  14    2.60    7.50
  10   3  14   -1.70    5.30
  11  -4 -14   27.80   16.80
  11  -4 -14   63.39   17.30
  11   4 -14   95.89   34.50
  11   4 -14   44.10   20.30
  10  -4 -14  115.79   30.20
  10  -4 -14  107.29   22.60
  10   4 -14   52.49   22.80
  10   4 -14   42.70   20.90
   9  -4 -14  113.19   32.50
   9  -4 -14   99.89   21.50
   9   4 -14  104.39   31.00
   9   4 -14   85.89   28.60
   8  -4 -14    4.10    7.80
   8  -4 -14    2.00   13.80
   8   4 -14   -6.60    6.20
   8   4 -14   -3.20    5.80
   7  -4 -14    8.10    9.90
   7  -4 -14   17.00   11.80
   7   4 -14    9.80   20.50
   7   4 -14    0.20    9.00
   6  -4 -14   44.60   15.70
   6  -4 -14   41.40   20.20
  -6   4  14   61.39   18.10
   6   4 -14   44.80   19.40
   6   4 -14   34.70   16.90
   5  -4 -14    5.60    7.20
   5  -4 -14    6.20   11.10
  -5   4  14   -3.60    3.60
   5   4 -14   -6.90    4.00
   5   4 -14    5.70    9.80
   4  -4 -14  163.58   26.00
   4  -4 -14  188.68   25.50
  -4   4  14  173.68   23.80
   4   4 -14  168.58   27.40
   4   4 -14  147.69   24.20
   3  -4 -14  376.86   36.10
   3  -4 -14  358.06   36.40
  -3   4  14  305.07   31.80
   3   4 -14  449.76   39.00
   3   4 -14  344.17   36.60
  -2  -4  14  376.26   32.60
   2  -4 -14  337.17   34.60
   2  -4 -14  375.76   36.70
  -2   4  14  360.16   38.60
   2   4 -14  369.66   36.60
   2   4 -14  338.87   32.80
  -1  -4  14   12.60    7.50
   1  -4 -14    8.70    8.10
   1  -4 -14    7.80   10.00
   1   4 -14    9.70    9.80
   1   4 -14    0.00    5.40
   0  -4 -14    2.30    7.30
   0  -4  14    2.50    5.70
   0  -4 -14   -6.50    3.40
   0   4 -14    5.40    6.30
   0   4 -14    7.60    9.60
  -1  -4 -14  684.63   49.90
  -1  -4 -14  704.93   51.69
   1  -4  14  754.32   55.29
   1  -4  14  672.43   40.60
  -1   4 -14  694.63   42.30
  -1   4 -14  688.03   49.70
   2  -4  14   46.50   15.90
   2  -4  14   55.09   14.40
  -2  -4 -14   22.60   12.30
  -2  -4 -14   43.10   16.00
  -2   4 -14   54.99   14.40
  -2   4 -14   66.69   20.40
  -3  -4 -14  299.17   34.70
   3  -4  14  300.97   30.30
   3  -4  14  292.17   24.90
  -3   4 -14  279.67   30.80
  -3   4 -14  333.87   27.00
   4  -4  14   32.00   12.70
  -4  -4 -14   18.40   13.00
   4  -4  14   27.70    9.40
  -4   4 -14   11.40    8.80
   5  -4  14  699.33   46.70
  -5  -4 -14  749.23   57.49
   5  -4  14  733.23   39.60
  -5   4 -14  647.44   47.60
  -6  -4 -14   15.20   12.30
   6  -4  14   25.10    8.50
   6  -4  14   11.70   10.00
   6  -4  14   14.60    7.60
  -6   4 -14   46.10   17.00
   7  -4  14    0.00    3.60
  -7  -4 -14    9.50   12.20
   7  -4  14   -0.30    3.60
   7  -4  14    4.70    7.10
  -7   4 -14   -0.10    5.50
   7   4  14    1.50    6.50
   8  -4  14   16.20    7.70
   8  -4  14    6.30    8.10
   8  -4  14   19.70    8.80
  -8   4 -14   13.90    8.90
   8   4  14    0.30    6.10
   9  -4  14   81.49   13.20
  -9   4 -14   97.29   22.40
   9   4  14   89.69   23.20
   9   4  14   65.29   21.40
  10  -4  14   30.20   10.90
  10  -4  14   50.29   13.00
  10   4  14   62.49   23.80
  10   4  14   49.70   20.60
  11  -5 -14   33.30   17.00
  11   5 -14   17.00   16.50
  11   5 -14   31.30   19.40
  10  -5 -14    7.00   10.40
  10  -5 -14    4.20    6.40
  10   5 -14    5.40   11.40
  10   5 -14   17.50   15.80
   9  -5 -14   10.90   11.10
   9  -5 -14    8.30    8.80
   9   5 -14   20.70   16.90
  -9   5  14   11.60   11.70
   9   5 -14   10.90   13.00
   8  -5 -14  183.98   53.59
   8  -5 -14  213.48   26.40
   8   5 -14  205.98   33.60
  -8   5  14  203.38   25.20
   8   5 -14  180.98   39.20
   7  -5 -14   16.60   13.40
   7  -5 -14   22.90   11.50
   7   5 -14    6.10   10.40
  -7   5  14    4.90    7.50
   7   5 -14    0.90    8.30
   6  -5 -14  260.27   34.40
   6  -5 -14  374.26   35.30
   6   5 -14  384.46   42.10
   6   5 -14  387.66   42.50
  -6   5  14  338.27   33.00
   5  -5 -14    7.90    7.80
   5  -5 -14    1.70    9.40
  -5   5  14   11.60   11.10
   5   5 -14   20.40   13.50
   5   5 -14   -0.60    7.20
   4  -5 -14   -0.90    6.00
   4  -5 -14    6.20    7.30
   4   5 -14   17.50   12.10
  -4   5  14    1.40    8.30
   4   5 -14   14.50    9.60
   3  -5 -14   66.09   21.50
   3  -5 -14   63.19   17.50
   3   5 -14   63.69   20.80
   3   5 -14   82.49   21.00
   2  -5 -14  136.99   28.70
  -2  -5  14  124.79   19.60
   2  -5 -14   70.29   18.80
   2   5 -14   96.39   21.80
   2   5 -14  101.19   25.70
  -1  -5  14   88.99   19.10
   1  -5 -14  104.59   25.90
   1  -5 -14   76.39   22.20
   1   5 -14   43.20   14.20
   1   5 -14   65.59   18.30
   0  -5 -14  105.99   26.80
   0  -5  14   62.69   16.10
   0  -5 -14   75.19   21.00
   0   5 -14   64.19   16.70
   0   5 -14  100.09   22.20
  -1  -5 -14   -6.40    4.10
  -1  -5 -14   10.70   10.40
   1  -5  14    4.10    6.10
  -1   5 -14    2.30    7.00
  -1   5 -14   -0.90    4.30
  -2  -5 -14   34.00   16.30
   2  -5  14   32.90   11.30
  -2  -5 -14   30.70   14.10
  -2   5 -14   53.59   18.30
  -2   5 -14   59.59   15.20
   3  -5  14   37.70   11.30
   3  -5  14    8.40    8.90
  -3  -5 -14   18.90   12.80
  -3   5 -14   42.00   12.50
  -3   5 -14   19.50   13.10
   4  -5  14   16.90   11.10
  -4  -5 -14   10.20   10.40
   4  -5  14    5.20    5.50
  -4   5 -14   40.90   14.90
   5  -5  14  220.88   19.40
  -5  -5 -14  298.07   36.60
   5  -5  14  276.77   28.60
  -5   5 -14  243.28   28.30
   6  -5  14   24.60    7.50
   6  -5  14   37.70   10.10
  -6  -5 -14   27.60   17.30
   6  -5  14   32.90   13.60
  -6   5 -14   49.60   16.30
   7  -5  14   32.70    8.20
   7  -5  14    9.20    9.20
  -7  -5 -14   76.89   35.80
   7  -5  14   14.40    6.70
   7   5  14   43.00   16.70
  -7   5 -14   44.80   16.10
   8  -5  14   37.00    9.50
   8  -5  14   25.80    7.50
   8  -5  14   35.40   12.90
   8   5  14   27.00   14.30
   8   5  14   41.40   17.50
  -8   5 -14   37.20   14.40
   9  -5  14   41.60    9.10
   9   5  14   33.50   15.10
   9   5  14   34.20   16.60
  -9   5 -14   28.20   10.90
  10  -5  14   51.69   12.50
  10   5  14   17.90   14.00
  10   5  14   28.50   16.90
  10  -6 -14    0.60    5.80
  10  -6 -14    9.80   12.70
  10   6 -14    7.90   12.20
  10   6 -14   22.40   20.70
   9  -6 -14   57.59   16.70
   9  -6 -14   59.89   21.40
   9   6 -14   67.09   28.70
   9   6 -14   54.69   24.70
   8  -6 -14   15.60    9.70
   8  -6 -14    9.90   10.90
  -8   6  14   12.50    9.90
   8   6 -14   13.50   15.20
   8   6 -14   19.70   14.60
   7  -6 -14   -2.80    5.50
   7  -6 -14    3.10    6.40
  -7   6  14   -2.20    6.30
   7   6 -14    1.20   10.00
   7   6 -14    9.50   13.30
   6  -6 -14    4.40    6.10
   6  -6 -14   14.00   11.30
   6   6 -14    0.30    7.30
   6   6 -14   -7.50    4.70
   5  -6 -14  425.86   42.40
   5  -6 -14  506.05   41.20
   5   6 -14  407.46   42.70
   5   6 -14  378.16   42.00
   4  -6 -14  409.46   41.00
   4  -6 -14  378.66   36.50
   4   6 -14  397.36   39.70
   4   6 -14  370.76   40.50
   3  -6 -14  563.24   45.30
   3  -6 -14  577.24   48.00
   3   6 -14  511.95   47.30
   3   6 -14  523.75   43.30
   2  -6 -14  308.67   34.50
  -2  -6  14  288.47   29.60
   2  -6 -14  311.27   34.00
   2   6 -14  266.47   33.20
   2   6 -14  321.57   32.10
   1  -6 -14  169.68   26.60
  -1  -6  14  171.58   21.40
   1  -6 -14  140.99   27.90
   1   6 -14  100.69   23.50
   1   6 -14  158.38   21.80
   0  -6 -14    0.10    6.70
   0  -6 -14    4.60    7.10
   0  -6  14   35.20   11.90
   0   6 -14    4.40    8.80
   0   6 -14   -2.90    3.70
  -1  -6 -14   27.60   12.70
  -1  -6 -14   35.10   15.60
   1  -6  14   13.70    7.90
  -1   6 -14   28.80   11.90
  -1   6 -14   22.00   12.20
   2  -6  14   92.49   16.80
  -2  -6 -14   63.79   21.80
  -2   6 -14   78.79   22.40
  -2   6 -14   52.89   13.80
  -3  -6 -14 1052.89   69.19
   3  -6  14  940.41   42.80
  -3   6 -14  911.01   44.50
  -3   6 -14 1012.00   60.39
   4  -6  14  120.89   13.30
  -4  -6 -14  124.99   28.20
  -4   6 -14  124.49   25.80
  -5  -6 -14  235.28   34.00
   5  -6  14  220.48   26.60
  -5   6 -14  207.68   26.60
   6  -6  14  188.98   11.70
   6  -6  14  151.78   21.50
   6  -6  14  177.68   12.20
   6   6  14  210.48   48.20
  -6   6 -14  210.48   26.20
   7  -6  14   -2.40    5.70
  -7   6 -14   -3.00    4.80
   7   6  14   18.30   12.00
   7   6  14    1.50    7.50
   8  -6  14   -2.00    5.60
   8   6  14   23.70   14.50
  -8   6 -14    3.60    6.50
   8   6  14    1.40    8.70
   9   6  14  118.59   33.10
   9   6  14   30.30   17.60
  10   6  14   -2.40    7.50
  10   6  14    6.40   11.00
  10  -7 -14    2.40    9.50
  10   7 -14   14.90   13.90
  10   7 -14   19.20   16.00
   9  -7 -14    1.70    6.50
   9  -7 -14   12.50   12.10
   9   7 -14   13.00   12.40
   9   7 -14   14.80   14.40
   8  -7 -14  216.48   25.50
   8  -7 -14  253.87   35.90
   8   7 -14  171.38   37.50
   8   7 -14  224.68   36.50
  -8   7  14  247.38   26.40
   7  -7 -14   21.70   15.50
   7  -7 -14   48.40   16.80
   7   7 -14   51.89   21.70
   7   7 -14   32.90   19.00
  -7   7  14   31.70   15.20
   6  -7 -14  195.88   26.00
   6  -7 -14  173.08   28.70
   6   7 -14  122.49   43.90
   6   7 -14  188.98   37.30
   5  -7 -14   95.09   27.70
   5  -7 -14  103.39   24.10
   5   7 -14   67.29   22.00
   5   7 -14   93.39   27.00
   4  -7 -14   13.90   11.50
   4  -7 -14   16.10   12.60
   4   7 -14   -2.10    5.70
   4   7 -14    1.60    9.40
   3  -7 -14   44.30   16.80
   3  -7 -14   32.40   15.10
   3   7 -14   22.30   12.40
   3   7 -14   22.90   14.30
   2  -7 -14  195.88   27.90
   2  -7 -14  165.28   26.70
   2   7 -14  127.29   26.40
   2   7 -14  162.68   23.70
  -1  -7  14    3.00    6.10
   1  -7 -14   13.80   10.40
   1  -7 -14   -2.40    4.50
   1   7 -14   -3.40    6.80
   1   7 -14   10.50    9.30
   0  -7 -14  144.89   29.60
   0  -7  14  223.08   22.60
   0  -7 -14  172.38   34.60
   0   7 -14  156.48   21.70
   0   7 -14  175.28   27.00
  -1  -7 -14   -4.50    5.20
   1  -7  14    5.90    6.30
  -1  -7 -14   -1.10    7.00
  -1   7 -14    8.50    9.00
  -1   7 -14   21.50    8.70
   2  -7  14   37.60   10.50
  -2  -7 -14   20.30   13.30
  -2   7 -14   36.30   11.00
  -2   7 -14   42.90   17.40
  -3  -7 -14  174.48   36.40
   3  -7  14  118.59   12.90
  -3   7 -14  101.19   22.50
  -3   7 -14  115.19   14.10
  -4  -7 -14    8.70   12.70
   4  -7  14   11.30    5.30
  -4   7 -14    7.70    9.60
  -5  -7 -14   30.80   22.10
  -5   7 -14   48.10   18.40
   6  -7  14   39.30   13.80
  -6  -7 -14   74.99   26.60
  -6   7 -14   81.89   21.50
   6   7  14   64.89   22.80
   6   7  14   64.59   19.30
   7  -7  14   24.20   10.90
   7   7  14   55.69   21.20
   7   7  14   30.50   15.60
  -7   7 -14   58.09   16.40
   8   7  14   73.09   23.50
   8   7  14  149.69   32.00
  -8   7 -14  150.28   20.30
   9   7  14   11.70   11.20
  -9   7 -14   30.90   10.40
   9   7  14   25.00   15.30
   9  -8 -14   40.90   19.60
   9  -8 -14   66.49   16.50
   9   8 -14   45.10   21.00
   9   8 -14   28.50   15.60
   8  -8 -14    0.90    8.50
   8  -8 -14    0.90    5.70
   8   8 -14   11.40   14.50
   8   8 -14   22.80   17.40
   7  -8 -14   -2.10   11.40
   7  -8 -14   -0.30    5.40
   7   8 -14   -0.60    8.90
   7   8 -14    7.80   11.60
   6  -8 -14   59.99   22.40
   6  -8 -14   42.70   15.90
   6   8 -14   90.49   27.20
   6   8 -14   66.99   24.40
   5  -8 -14  275.37   31.30
   5  -8 -14  271.27   35.00
   5   8 -14  185.08   36.30
   5   8 -14  207.88   33.50
   4  -8 -14    1.90    8.00
   4  -8 -14    9.20    9.80
   4   8 -14   20.90   14.20
   4   8 -14    0.60    9.10
   3  -8 -14  157.58   25.70
   3  -8 -14  198.48   29.50
   3   8 -14  110.29   26.80
   3   8 -14  152.18   24.60
   2  -8 -14   89.19   25.60
   2  -8 -14  150.78   32.20
   2   8 -14   75.29   21.50
   2   8 -14   86.99   21.60
   1  -8 -14  198.78   29.60
   1  -8 -14  185.68   28.50
  -1  -8  14  204.08   23.10
   1   8 -14  176.28   23.70
   1   8 -14  216.28   31.40
   0  -8 -14   82.89   24.00
   0  -8  14   45.70   13.30
   0  -8 -14   58.79   18.30
   0   8 -14   53.19   18.80
  -1  -8 -14   49.20   19.90
   1  -8  14   81.99   15.70
  -1   8 -14   72.89   20.70
  -1   8 -14   91.79   15.10
  -2  -8 -14   99.89   27.70
   2  -8  14   57.19   12.00
  -2   8 -14   94.99   24.30
  -2   8 -14   63.39   13.60
  -3  -8 -14  183.58   38.00
  -3   8 -14  150.28   24.20
  -3   8 -14  111.59   12.40
  -4  -8 -14   11.50   12.30
  -4   8 -14   19.90   12.70
  -5  -8 -14  253.77   37.80
  -5   8 -14  258.57   30.10
   5   8  14  337.67   38.60
   6  -8  14   -0.10    6.80
   6   8  14    3.40    8.00
  -6   8 -14   -2.70    4.40
   6   8  14   12.10   10.30
   7  -8  14   -4.20    5.00
  -7   8 -14    3.10    6.00
   7   8  14   -8.40    4.60
   7   8  14    6.50    9.70
   8   8  14   17.70   14.40
   8   8  14   67.09   23.50
   9   8  14  263.67   41.10
   9   8  14  297.47   40.50
   9  -9 -14   15.10   12.30
   9   9 -14    7.40   24.90
   9   9 -14   16.40   17.30
   8  -9 -14  161.08   35.40
   8  -9 -14  184.08   22.90
   8   9 -14  117.39   31.10
   8   9 -14  168.58   37.50
   7  -9 -14   66.79   18.20
   7  -9 -14  112.79   31.40
   7   9 -14   26.00   17.80
   7   9 -14   71.69   24.10
   6  -9 -14  142.59   30.20
   6  -9 -14   88.29   20.50
   6   9 -14  121.79   33.70
   6   9 -14  103.99   29.80
   5  -9 -14   54.99   17.10
   5  -9 -14   53.29   22.40
   5   9 -14   40.20   20.80
   5   9 -14  112.99   47.50
   4  -9 -14   23.80   13.20
   4  -9 -14   34.10   15.30
   4   9 -14   14.10   11.70
   4   9 -14   28.20   16.20
   3  -9 -14    8.20    9.40
   3  -9 -14    9.60   10.10
   3   9 -14   10.30   10.30
   3   9 -14   19.60   26.50
   2  -9 -14  646.54   52.29
   2  -9 -14  573.44   50.59
   2   9 -14  546.15   50.39
   2   9 -14  535.85   43.20
  -1  -9  14   63.49   15.70
   1  -9 -14   51.89   19.30
   1  -9 -14  122.39   30.40
   1   9 -14   57.69   18.90
   1   9 -14   47.00   19.80
   0  -9 -14  139.79   32.10
   0   9 -14  114.09   17.90
   0   9 -14  110.39   26.90
   1  -9  14   72.09   14.90
  -1  -9 -14   87.29   26.60
  -1   9 -14   97.39   24.60
  -1   9 -14  109.99   16.00
   2  -9  14    9.70    5.10
  -2  -9 -14   21.50   15.30
  -2   9 -14   12.60   11.00
  -2   9 -14    6.30    5.90
   3  -9  14   85.69    7.90
  -3  -9 -14   50.59   20.00
  -3   9 -14  113.19   27.50
  -3   9 -14   79.99    8.80
  -4  -9 -14   32.10   19.10
  -4   9 -14   27.40   15.20
   4   9  14   13.80   10.90
   5   9  14   10.50   11.10
  -5   9 -14    9.10    9.00
   5   9  14   -4.50    4.20
   6   9  14   86.59   27.00
  -6   9 -14   73.09   19.00
   6   9  14  106.89   27.70
   7   9  14   69.59   24.90
   7   9  14   28.00   15.40
  -7   9 -14   42.60   14.20
   8   9  14   33.00   19.90
  -8   9 -14   48.10   14.30
   8   9  14   53.19   20.60
   8 -10 -14    9.30    9.80
   8  10 -14   46.80   24.00
  -8  10  14   62.39   14.70
   8  10 -14   32.40   20.00
   7 -10 -14    1.60    6.30
   7 -10 -14   -5.30    5.00
   7  10 -14   -0.10    7.20
   7  10 -14   11.20   14.10
   6 -10 -14    1.50    6.70
   6 -10 -14    3.40    7.40
   6  10 -14   18.90   14.10
   6  10 -14   28.10   20.60
   5 -10 -14    4.80    6.40
   5 -10 -14   -3.30    8.90
   5  10 -14   14.10   13.40
   5  10 -14   -2.60    7.40
   4 -10 -14    4.30    9.20
   4 -10 -14   27.00   13.80
   4  10 -14   25.80   13.90
   4  10 -14   81.29   25.70
   3 -10 -14  213.18   32.00
   3 -10 -14  202.38   30.30
   3  10 -14  192.48   39.20
   3  10 -14  238.78   31.30
   2 -10 -14  204.38   38.70
   2 -10 -14  171.98   35.80
   2  10 -14  153.28   30.30
   2  10 -14  175.98   39.20
   1 -10 -14  167.08   34.50
   1  10 -14  173.38   23.80
   1  10 -14  177.78   38.70
   0 -10  14   28.20   10.80
   0 -10 -14   14.50   11.80
   0  10 -14   30.20   12.00
   0  10 -14   15.00   10.60
   1 -10  14   18.80    8.20
  -1  10 -14   29.00   11.30
  -1  10 -14   36.00   16.00
  -2 -10 -14   55.89   23.20
   2 -10  14   68.59    9.80
  -2  10 -14   99.39   12.80
  -2  10 -14   55.19   19.80
   3  10  14   41.80   17.30
  -3  10 -14   81.79   23.60
   4  10  14  189.48   30.10
  -4  10 -14  114.99   25.10
   5  10  14   58.39   20.80
  -5  10 -14   47.60   18.40
   5  10  14   21.90   14.80
   6  10  14   24.50   13.90
   6  10  14   84.39   27.30
  -6  10 -14   62.79   18.70
   7  10  14   17.50   13.40
  -7  10 -14   14.80    9.60
   7  10  14   -0.50    5.30
   8  10  14   17.80   13.60
   8  10  14   36.30   18.40
   8 -11 -14   61.09   22.60
   8  11 -14   21.90   18.40
   8  11 -14   68.49   28.60
   7 -11 -14   35.70   18.10
   7  11 -14   22.30   16.70
  -7  11  14   25.00   11.00
   7  11 -14   58.79   25.90
   6 -11 -14    0.00    7.90
   6  11 -14   30.40   18.30
  -6  11  14   12.20    9.50
   6  11 -14    2.40   10.20
   5 -11 -14   42.60   17.50
   5 -11 -14   71.59   21.90
   5  11 -14   79.69   26.80
   5  11 -14   61.09   24.10
   4 -11 -14   -1.80    4.80
   4 -11 -14   -7.50    5.20
   4  11 -14    1.80   15.60
   3 -11 -14    8.50   10.80
   3 -11 -14   48.10   22.30
   3  11 -14   49.90   22.10
   3  11 -14   24.30   15.30
   2 -11 -14   83.99   25.30
   2  11 -14   26.30   17.40
   2  11 -14   44.90   18.30
   1 -11 -14  101.79   29.20
   1  11 -14   88.09   20.40
   1  11 -14  153.08   35.10
   0 -11 -14   13.60   12.10
   0 -11  14   10.70    7.80
   0  11 -14   39.70   27.20
   0  11  14   65.89   21.20
   0  11 -14   14.70    9.00
   1 -11  14   41.40   10.90
   1  11  14   72.99   22.20
  -1  11 -14   71.09   15.40
  -1  11 -14   80.29   26.20
  -2  11 -14   11.70   11.70
  -2  11 -14    3.20    4.20
   2  11  14    7.10   11.00
  -3  11 -14   36.90   16.10
   3  11  14   47.40   19.20
   4  11  14    6.20   10.70
   4  11  14    2.10    6.30
  -4  11 -14   18.10   11.60
  -5  11 -14   55.39   17.10
   5  11  14   93.29   27.20
   5  11  14   72.19   21.50
  -6  11 -14    3.50    6.60
   6  11  14   -1.90    8.50
   6  11  14    5.90   11.00
   7  11  14   -1.00    6.60
   7  11  14   24.60   17.50
  -7  11 -14   33.80   13.70
   7 -12 -14   -4.00    6.20
   7  12 -14    5.60   10.50
  -7  12  14   11.70    8.80
   7  12 -14   19.60   16.00
   6 -12 -14   30.00   14.40
   6  12 -14   23.90   19.80
  -6  12  14    8.00    9.30
   6  12 -14   42.00   20.30
   5 -12 -14   70.79   23.30
  -5  12  14   68.59   20.20
   5  12 -14   81.19   29.90
   5  12 -14   97.09   27.90
   4 -12 -14   93.19   28.70
   4  12 -14   78.89   28.80
   4  12 -14  115.99   31.40
  -4  12  14  100.29   22.80
   3  12 -14   67.79   21.60
   3  12 -14   82.89   29.00
  -3  12  14  131.49   37.10
  -2  12  14   68.79   20.80
   2  12 -14   95.99   29.50
   2  12 -14   45.40   17.70
   1  12 -14   57.39   24.00
   1  12 -14   91.29   22.20
  -1  12  14  102.89   25.80
   0 -12  14    6.40    6.20
   0  12 -14    5.80    5.60
   0  12  14    8.60   10.40
   0  12 -14   10.30   12.40
  -1  12 -14   -1.00    3.70
  -1  12 -14   20.40   14.10
   1  12  14   -1.30    8.50
   2  12  14  195.78   39.70
  -2  12 -14  175.28   12.90
  -3  12 -14   -0.90    5.40
   3  12  14   30.10   16.70
   4  12  14  368.56   44.70
  -4  12 -14  317.07   36.70
   4  12  14  304.67   40.30
   5  12  14   24.20   14.60
  -5  12 -14   34.10   15.40
   5  12  14   18.10   12.00
   6  12  14   16.70   15.60
  -6  12 -14   50.59   17.90
   6  12  14   51.09   21.90
   5  13 -14   19.00   22.80
   5  13 -14    3.30    9.60
  -5  13  14    8.10    8.20
   4  13 -14   12.90   17.40
  -4  13  14    6.20    8.00
   4  13 -14   -7.70    6.30
   3  13 -14   37.00   19.50
  -3  13  14   -2.60    5.70
   3  13 -14   25.30   15.30
   2  13 -14    5.60    9.00
  -2  13  14    2.90    6.50
   2  13 -14    4.80   10.30
  -1  13  14  119.29   30.30
   1  13 -14   88.79   21.60
   1  13 -14  186.98   42.10
   0  13 -14   -0.40    7.10
   0  13 -14   -4.80    4.20
   0  13  14    4.60    8.20
  -1  13 -14   58.99   24.00
   1  13  14   23.70   15.20
  -1  13 -14   53.69   13.30
   2  13  14   51.79   21.60
  -2  13 -14   50.19   19.60
  -3  13 -14   20.40   13.80
   3  13  14   -0.90    7.30
   3  13  14    3.60    7.70
  -4  13 -14   16.60   14.50
   4  13  14    3.80   10.10
   4  13  14    1.20    7.50
   5  13  14   49.30   23.20
  -5  13 -14   32.50   15.70
   5  13  14   34.60   19.50
   4  14 -14    6.90   12.20
  -4  14  14    7.00    9.00
   4  14 -14   -9.50    7.80
   3  14 -14   18.20   18.70
  -3  14  14    4.80    6.90
   3  14 -14    3.30    8.10
  -2  14  14  127.99   28.80
   2  14 -14   53.49   24.10
   2  14 -14  145.49   29.70
   1  14 -14   -0.80    6.70
  -1  14  14    0.70    7.40
   1  14 -14   -5.80    6.80
   0  14 -14    9.80    7.20
   0  14  14   11.30   10.30
   0  14 -14    1.70   10.40
  -1  14 -14   56.69   21.80
   1  14  14   93.89   30.30
   2  14  14  168.88   40.50
   2  14  14   92.09   27.50
  -2  14 -14  111.49   33.20
   3  14  14    6.30   12.10
  -3  14 -14   24.50   13.60
   3  14  14   34.50   28.10
  11   0 -15  288.27   37.50
  11   0 -15  290.47   43.80
  10   0 -15   -5.90    5.40
  10   0 -15    2.60   10.20
   9   0 -15  165.68   33.30
   9   0 -15  177.48   40.30
   8   0 -15   10.70   11.60
   8   0 -15    0.80    7.60
   7   0 -15  361.06   42.20
   7   0 -15  364.16   38.70
   6   0 -15   -8.80    4.10
   6   0 -15   -2.50    6.00
   5   0 -15   11.50    9.50
   5   0 -15    5.50    8.10
   4   0 -15    3.70    8.30
   4   0 -15    6.50    9.10
   3   0 -15  930.01   61.09
   3   0 -15 1155.18   66.49
   2   0 -15   -3.50    3.00
   2   0 -15   11.70    9.80
   1   0 -15   25.80   14.30
  -1   0  15   20.60   11.20
   1   0 -15   13.10   10.30
   0   0 -15    9.10    8.90
   0   0 -15   13.00    8.50
   0   0  15    0.20    4.50
  -1   0 -15  140.99   21.40
  -1   0 -15  139.29   23.10
   1   0  15  134.49   20.80
  -2   0 -15   -0.70    4.40
  -2   0 -15   -5.40    2.70
   2   0  15   -5.00    2.90
   3   0  15  162.28   22.40
  -3   0 -15   91.89   22.00
  -3   0 -15  153.98   22.20
   4   0  15    3.20    5.30
  -4   0 -15   -5.40    4.50
  -5   0 -15   19.40   11.10
  -6   0 -15    3.60    7.60
  -7   0 -15    7.80    9.40
   7   0  15   12.50    8.80
   8   0  15   -2.30    4.40
  -8   0 -15    4.10    9.90
  -9   0 -15   -0.20    6.20
   9   0  15    2.80    6.30
  10   0  15   -0.70    6.70
  10   0  15    7.50   10.10
  11  -1 -15   20.70   19.60
  11  -1 -15    6.00    8.40
  11   1 -15   37.90   21.60
  11   1 -15    7.50   12.00
  10  -1 -15    6.70   10.60
  10  -1 -15    3.80    7.80
  10   1 -15    1.60    8.90
  10   1 -15   20.00   16.80
   9  -1 -15   27.50   16.70
   9  -1 -15   10.70   10.30
   9   1 -15   15.50   12.30
   9   1 -15   30.30   16.30
   8  -1 -15  141.39   34.50
   8  -1 -15  171.18   32.90
   8   1 -15  129.49   29.10
   8   1 -15  148.39   32.30
   7  -1 -15    7.30    9.30
   7  -1 -15   18.80   12.40
   7   1 -15   46.30   19.30
   7   1 -15   12.00   12.60
   6  -1 -15  293.07   36.80
   6  -1 -15  285.77   33.20
   6   1 -15  270.17   33.60
   6   1 -15  260.37   34.90
   5  -1 -15   81.29   20.70
   5  -1 -15  162.48   25.40
   5   1 -15  150.38   29.00
   4  -1 -15    3.90    7.80
   4  -1 -15    9.40    9.80
   4   1 -15   -2.60    7.40
   4   1 -15    0.70    6.90
   3  -1 -15   97.09   20.40
   3  -1 -15  139.19   28.10
   3   1 -15  141.79   23.10
   3   1 -15   87.59   21.30
   2  -1 -15  243.18   29.50
   2  -1 -15  218.98   28.50
   2   1 -15  246.98   28.90
   2   1 -15  290.97   32.50
   1  -1 -15   29.80   13.50
  -1  -1  15   38.80   13.50
   1  -1 -15   18.60   13.10
   1   1 -15   34.30   13.70
   1   1 -15   11.30    9.40
   0  -1  15 1521.25   72.69
   0  -1 -15 1477.95   76.09
   0  -1 -15 1538.95   79.29
   0   1 -15 1685.53   82.09
   0   1  15 1554.54   76.19
   0   1 -15 1552.64   74.89
  -1  -1 -15    0.90    5.50
  -1  -1 -15   -0.20    5.60
   1  -1  15    0.90    5.40
  -1   1 -15   22.20   12.50
  -1   1 -15    9.80    9.80
   1   1  15   17.00    9.50
  -2  -1 -15  144.49   30.90
   2  -1  15  150.88   20.80
  -2  -1 -15  142.69   22.20
  -2   1 -15  173.18   22.90
  -2   1 -15  144.49   23.50
   2   1  15  158.68   22.80
   3  -1  15    4.10    6.00
  -3  -1 -15   11.80    9.70
  -3  -1 -15   27.80   13.90
  -3   1 -15    7.30    7.40
  -3   1 -15    2.50    6.10
  -4  -1 -15    1.90    6.50
   4  -1  15   18.10   10.20
  -4   1 -15   19.30   11.70
   5  -1  15   15.50   10.20
  -5  -1 -15   16.50   12.20
  -5   1 -15   23.70   12.60
   6  -1  15  101.99   27.10
  -6  -1 -15   18.00   12.00
  -6   1 -15   60.09   20.50
   7  -1  15    4.20    5.60
  -7  -1 -15   -6.40    3.90
   7   1  15    9.50    9.20
  -7   1 -15    3.50    7.60
  -8  -1 -15  172.48   28.60
   8  -1  15  121.49   19.20
   8   1  15  127.49   25.80
  -8   1 -15  158.28   30.90
  -9  -1 -15   -1.70    6.30
   9  -1  15    4.80    6.00
  -9   1 -15    4.70    8.10
   9   1  15   -7.30    4.40
  10  -1  15   -1.30    6.90
  10  -1  15    3.20    7.20
  10   1  15    6.20   11.50
  10   1  15   -0.40    5.40
  11  -2 -15   86.59   28.90
  11  -2 -15  104.39   24.10
  11   2 -15  103.69   40.10
  11   2 -15  119.99   30.70
  10  -2 -15   49.99   17.80
  10  -2 -15   40.10   19.10
  10   2 -15   13.40   13.30
  10   2 -15   35.20   17.10
   9  -2 -15   20.80   15.90
   9  -2 -15   37.20   16.00
   9   2 -15   24.40   16.80
   9   2 -15   10.20   11.30
   8  -2 -15   12.00   13.40
   8  -2 -15   11.60   11.10
   8   2 -15   -3.00    8.10
   8   2 -15   -4.30    6.10
   7  -2 -15   63.99   19.70
   7  -2 -15   78.79   25.00
   7   2 -15   99.69   37.70
   7   2 -15  108.39   26.50
   6  -2 -15    5.70    8.50
   6  -2 -15   -9.00    4.40
   6   2 -15   -9.30    5.00
   6   2 -15    3.20    6.70
   5  -2 -15  140.39   28.90
   5  -2 -15  188.98   28.90
   5   2 -15   61.39   20.20
   5   2 -15  133.19   26.90
   4  -2 -15    2.60    8.30
   4  -2 -15    8.60   11.20
   4   2 -15   10.90   10.80
   4   2 -15   -4.80    4.90
   3  -2 -15   99.39   21.30
   3  -2 -15  179.18   25.70
   3   2 -15  165.48   25.90
   3   2 -15  219.68   28.10
   2  -2 -15    2.00    6.30
   2  -2 -15    1.20    5.20
   2   2 -15    1.60    6.00
   2   2 -15   -4.60    5.00
  -1  -2  15   46.50   15.30
   1  -2 -15   68.49   20.90
   1  -2 -15   57.39   18.40
   1   2 -15   74.59   20.10
   1   2 -15   43.20   18.00
   0  -2 -15   49.99   17.20
   0  -2 -15   52.59   15.40
   0  -2  15   68.19   18.60
   0   2 -15   64.99   17.70
   0   2 -15  103.49   25.60
   1  -2  15    0.80    4.60
  -1  -2 -15    1.80    6.80
  -1  -2 -15   15.60   11.30
  -1   2 -15   -4.50    3.40
  -1   2 -15    0.90    6.10
  -2  -2 -15  138.39   28.50
  -2  -2 -15   51.39   16.80
  -2   2 -15  102.79   21.70
  -2   2 -15   72.09   19.80
  -3  -2 -15   -3.20    4.80
  -3  -2 -15   19.30   11.40
  -3   2 -15   11.90   10.40
  -3   2 -15   14.00    9.30
   4  -2  15   52.59   17.90
  -4  -2 -15   62.89   20.40
  -4   2 -15   20.10   11.40
  -5  -2 -15   85.09   24.40
   5  -2  15   84.19   19.50
  -5   2 -15  116.99   27.10
  -6  -2 -15    0.50    5.90
   6  -2  15   18.10   10.40
  -6   2 -15   12.00   10.10
  -7  -2 -15   10.80   11.00
   7  -2  15   15.00   10.10
   7  -2  15   21.70   10.60
  -7   2 -15    5.70    8.40
   7   2  15   25.00   11.40
   8  -2  15    1.30    5.90
  -8  -2 -15   -6.10    4.60
  -8   2 -15   -0.50    5.60
   8   2  15    0.50    5.40
   9  -2  15   11.50    9.50
  -9   2 -15   67.49   20.50
   9   2  15   32.60   22.70
   9   2  15   30.70   13.70
  10  -2  15   15.80   10.10
  10  -2  15   14.60   10.60
  10   2  15   21.80   13.60
  10   2  15   40.80   17.40
  11  -3 -15  150.58   29.40
  11  -3 -15  108.79   33.20
  11   3 -15   89.89   27.70
  11   3 -15  141.59   41.60
  10  -3 -15   18.10   15.50
  10  -3 -15   30.90   15.40
  10   3 -15   30.80   17.20
  10   3 -15   43.70   21.90
   9  -3 -15    6.90    8.60
   9  -3 -15    4.80    7.40
   9   3 -15   33.00   18.30
   9   3 -15   16.10   15.40
   8  -3 -15   14.40   10.30
   8  -3 -15    5.90    8.30
   8   3 -15    6.90   11.70
   8   3 -15    3.40   12.10
   7  -3 -15  109.69   24.20
   7  -3 -15   87.09   24.20
   7   3 -15  158.38   34.90
   7   3 -15   92.89   27.50
   6  -3 -15   86.49   26.00
   6  -3 -15  126.49   26.10
   6   3 -15  111.69   27.50
   6   3 -15   91.79   25.00
   5  -3 -15  225.18   32.00
   5  -3 -15  324.17   34.20
   5   3 -15  294.17   36.00
   5   3 -15  361.66   38.90
   4  -3 -15  436.56   39.40
   4  -3 -15  325.07   37.00
   4   3 -15  425.76   41.60
   4   3 -15  398.26   39.60
   3  -3 -15  187.48   26.20
   3  -3 -15  183.18   27.10
   3   3 -15  157.08   24.70
   3   3 -15  155.18   25.50
   2  -3 -15    3.20    5.90
   2  -3 -15   -3.90    4.50
   2   3 -15    8.70    8.80
   2   3 -15   -4.90    5.10
   1  -3 -15  156.18   24.70
   1  -3 -15  178.48   25.60
  -1  -3  15  135.59   20.60
   1   3 -15  158.28   31.20
   1   3 -15  129.49   25.50
   0  -3 -15  580.64   47.80
   0  -3  15  763.32   45.70
   0  -3 -15  682.63   49.60
   0   3 -15  680.93   45.60
   0   3 -15  649.14   49.70
  -1  -3 -15  114.79   25.20
  -1  -3 -15  117.79   27.40
  -1   3 -15  131.89   27.60
  -1   3 -15  142.09   21.10
  -2  -3 -15  290.17   34.00
  -2  -3 -15  278.37   32.10
   2  -3  15  327.37   28.50
  -2   3 -15  286.17   32.20
  -2   3 -15  385.46   31.70
  -3  -3 -15   26.10   12.00
   3  -3  15   14.70    8.30
  -3  -3 -15   33.00   15.70
  -3   3 -15    6.40    8.60
  -3   3 -15   28.90   11.60
   4  -3  15   -1.10    3.80
  -4  -3 -15   -5.10    4.50
  -4   3 -15    2.80    6.60
   5  -3  15    1.30    4.90
  -5  -3 -15   18.20   13.10
  -5   3 -15   13.00    9.00
  -6  -3 -15  235.08   32.90
   6  -3  15  248.98   25.50
  -6   3 -15  222.88   28.80
  -7  -3 -15  354.76   40.80
   7  -3  15  342.77   28.10
   7  -3  15  335.37   30.50
  -7   3 -15  361.86   36.50
   7   3  15  369.26   36.50
   8  -3  15  100.69   21.30
  -8  -3 -15  102.09   33.50
   8  -3  15  115.39   16.30
   8   3  15  109.59   32.90
  -8   3 -15  117.09   25.70
   9  -3  15   69.49   16.40
   9   3  15   26.90   12.60
   9   3  15   20.10   14.30
  -9   3 -15    6.10    7.70
  10  -3  15    4.50    7.20
  10  -3  15   14.10    8.80
  10   3  15   26.90   16.20
  10   3  15    2.90    6.90
  11  -4 -15   50.39   21.30
  11  -4 -15   45.00   16.20
  11   4 -15   61.69   28.00
  11   4 -15   36.90   16.50
  10  -4 -15   33.30   18.70
  10  -4 -15  124.09   26.30
  10   4 -15   54.89   22.80
  10   4 -15   92.09   30.90
   9  -4 -15    7.70   11.30
   9  -4 -15    7.90    8.90
   9   4 -15    3.80   12.20
   9   4 -15   25.50   13.00
   8  -4 -15   24.10   14.40
   8  -4 -15   46.00   17.50
   8   4 -15   13.60   13.40
   8   4 -15   70.49   25.10
   7  -4 -15    7.50   10.40
   7  -4 -15    8.50    8.40
   7   4 -15   14.30   13.80
   7   4 -15   26.50   14.40
   6  -4 -15    1.90    8.10
   6  -4 -15   -7.20    3.80
   6   4 -15   26.00   14.90
   6   4 -15   10.90   13.10
   5  -4 -15   26.80   13.90
   5  -4 -15   11.60   10.50
   5   4 -15   16.60   14.70
   5   4 -15   22.40   12.90
   4  -4 -15  115.19   27.40
   4  -4 -15   58.59   18.50
   4   4 -15   87.49   23.80
   4   4 -15   65.09   21.30
   3  -4 -15   12.40   12.00
   3  -4 -15   22.00   12.20
   3   4 -15    0.50    7.50
   3   4 -15   -6.80    4.10
   2  -4 -15    4.60    6.70
   2  -4 -15   -4.00    3.90
   2   4 -15   -7.20    3.20
   2   4 -15   -3.30    6.40
   1  -4 -15   -3.40    5.00
   1  -4 -15   18.80   12.40
  -1  -4  15   14.80    8.90
   1   4 -15    7.40    8.20
   1   4 -15   10.60    9.70
   0  -4  15   71.79   17.40
   0  -4 -15   51.39   17.40
   0  -4 -15   64.79   19.30
   0   4 -15   94.39   22.40
   0   4 -15  111.19   24.40
   1  -4  15   -1.00    4.50
  -1  -4 -15    5.10    9.20
  -1  -4 -15    6.40    9.90
  -1   4 -15    2.10    6.40
  -1   4 -15   22.40   13.40
   2  -4  15   96.09   19.10
  -2  -4 -15  100.79   25.10
  -2  -4 -15  103.19   25.20
  -2   4 -15   96.79   19.90
  -2   4 -15   86.09   20.80
  -3  -4 -15   20.20   12.60
   3  -4  15   62.19   15.60
  -3   4 -15   22.80   11.40
  -3   4 -15   42.60   14.20
  -4  -4 -15   20.10   12.70
   4  -4  15   23.60    9.70
  -4   4 -15    0.80    8.10
   5  -4  15   62.89   15.10
  -5  -4 -15   86.09   25.10
  -5   4 -15   42.00   15.00
   6  -4  15  163.88   17.40
  -6  -4 -15  199.18   31.40
   6  -4  15  177.08   19.80
  -6   4 -15  223.98   28.60
   7  -4  15   77.79   12.50
   7  -4  15  100.69   15.40
  -7   4 -15  115.69   25.30
   7   4  15  142.59   40.70
  -8  -4 -15   14.80   13.60
   8  -4  15   17.40    7.70
   8  -4  15   22.80   10.20
   8   4  15   20.30   14.20
  -8   4 -15   32.50   13.50
   8   4  15   19.10   13.80
   9  -4  15   -0.90    4.30
   9   4  15   -0.40    4.30
  -9   4 -15    4.70    6.50
   9   4  15    6.70    8.70
  10  -4  15   15.70   10.00
  10  -4  15   11.90    8.60
  10   4  15    2.70    7.30
  10   4  15   34.60   17.40
  10  -5 -15   36.50   20.80
  10  -5 -15    7.60    8.70
  10   5 -15   -1.70    7.30
  10   5 -15    3.30    9.50
   9  -5 -15    7.40    7.60
   9  -5 -15   25.10   18.40
   9   5 -15   11.00   11.20
   9   5 -15    0.90    9.30
   8  -5 -15    7.40   10.60
   8  -5 -15    1.40    6.50
   8   5 -15   10.50   13.80
   8   5 -15   24.50   15.30
   7  -5 -15  148.69   23.60
   7  -5 -15  219.88   45.70
   7   5 -15  184.18   39.70
   7   5 -15  245.58   36.60
   6  -5 -15  103.49   24.40
   6  -5 -15   68.39   20.60
   6   5 -15   78.79   23.60
   6   5 -15   77.59   24.70
   5  -5 -15  490.05   46.30
   5  -5 -15  532.45   44.40
   5   5 -15  536.35   49.70
   5   5 -15  475.45   45.90
   4  -5 -15  114.39   27.10
   4  -5 -15  143.69   23.80
   4   5 -15  185.88   36.40
   4   5 -15  102.79   27.10
   3  -5 -15   21.40   13.80
   3  -5 -15   -6.00    3.60
   3   5 -15    4.20   10.70
   3   5 -15   -1.80    7.20
   2  -5 -15   45.10   18.70
   2  -5 -15   11.20    9.40
   2   5 -15    5.40    8.50
   2   5 -15   22.70   12.20
   1  -5 -15  219.28   29.30
   1  -5 -15  180.58   27.30
  -1  -5  15  191.88   23.60
   1   5 -15  229.68   30.70
   1   5 -15  236.58   27.40
   0  -5 -15  260.17   32.10
   0  -5 -15  178.88   27.50
   0  -5  15  216.78   23.90
   0   5 -15  250.37   31.70
   0   5 -15  182.88   23.50
  -1  -5 -15  813.22   59.59
   1  -5  15  862.11   47.20
  -1  -5 -15  826.22   58.59
  -1   5 -15  843.92   48.60
  -1   5 -15  895.51   59.39
   2  -5  15   42.70   12.50
  -2  -5 -15   27.00   12.00
  -2  -5 -15   37.30   15.60
  -2   5 -15   61.69   21.20
  -2   5 -15   36.70   11.40
   3  -5  15   84.19   13.90
  -3  -5 -15  127.09   31.60
  -3   5 -15  124.09   26.70
  -3   5 -15   94.39   18.60
  -4  -5 -15   51.49   20.00
   4  -5  15   33.80   10.90
  -4   5 -15   30.40   15.50
  -5  -5 -15  310.57   39.40
   5  -5  15  304.27   23.80
  -5   5 -15  264.77   31.00
  -6  -5 -15    0.20   10.00
   6  -5  15   10.20    7.10
   6  -5  15    4.90    5.00
  -6   5 -15    0.20    4.30
   7  -5  15  465.25   27.80
   7  -5  15  426.56   24.80
  -7  -5 -15  414.56   46.90
   7   5  15  444.16   42.90
  -7   5 -15  345.77   34.80
   8  -5  15   78.09   10.80
   8  -5  15   66.79   13.30
  -8   5 -15   59.59   17.70
   8   5  15   82.19   23.50
   8   5  15   63.59   21.40
   9  -5  15   72.39   10.40
   9   5  15  100.79   25.30
  -9   5 -15   88.29   20.60
   9   5  15  114.19   27.40
  10  -5  15   -0.80    5.90
  10   5  15   -1.40    8.10
  10   5  15    8.00   10.20
  10  -6 -15   88.39   28.20
  10  -6 -15  138.29   20.50
  10   6 -15  175.08   42.30
  10   6 -15  108.69   42.50
   9  -6 -15    6.60    7.60
   9  -6 -15   -1.90    6.60
   9   6 -15    5.40   12.00
   9   6 -15   -2.80    8.20
   8  -6 -15   61.89   24.70
   8  -6 -15   31.40   14.70
   8   6 -15   69.49   25.30
   8   6 -15   25.80   18.70
   7  -6 -15   10.80   10.00
   7  -6 -15   10.60   14.00
   7   6 -15    3.40    9.40
   7   6 -15   -2.00    6.60
   6  -6 -15   52.59   20.90
   6  -6 -15   92.99   23.40
   6   6 -15   70.09   29.30
   6   6 -15   37.40   20.60
   5  -6 -15   23.60   14.80
   5  -6 -15   19.00   12.60
   5   6 -15   12.30   11.40
   5   6 -15   47.10   19.80
   4  -6 -15  144.39   29.90
   4  -6 -15  161.38   33.80
   4   6 -15  137.29   29.60
   4   6 -15  103.49   24.80
   3  -6 -15  191.08   28.00
   3  -6 -15  212.88   30.90
   3   6 -15  136.89   32.00
   3   6 -15  204.18   28.20
   2  -6 -15   10.10   10.60
   2  -6 -15   22.30   12.10
   2   6 -15   51.59   18.90
   2   6 -15   31.50   14.20
   1  -6 -15   35.70   16.70
   1  -6 -15    8.50    8.60
  -1  -6  15    2.70    6.40
   1   6 -15   -1.40    5.10
   1   6 -15   21.50   14.40
   0  -6 -15   -0.90    5.80
   0  -6 -15   11.40    9.70
   0  -6  15   -7.40    3.70
   0   6 -15   -4.60    4.50
   0   6 -15   -1.40    4.20
  -1  -6 -15   -1.60    5.60
   1  -6  15    9.20    7.50
  -1  -6 -15   19.80   13.70
  -1   6 -15    5.30    9.10
  -1   6 -15   36.10   12.50
  -2  -6 -15   -4.60    4.20
   2  -6  15   13.30    7.70
  -2   6 -15    1.50    6.30
  -2   6 -15   -1.20    7.50
   3  -6  15   27.50    9.40
  -3  -6 -15   28.70   15.90
  -3   6 -15   22.80    9.60
  -3   6 -15   19.70   11.20
  -4  -6 -15  111.29   29.60
   4  -6  15  187.88   17.50
  -4   6 -15  178.78   26.20
   5  -6  15   20.80    7.70
  -5  -6 -15   35.70   19.40
  -5   6 -15   15.30   11.30
   6  -6  15   96.79    9.60
   6  -6  15   87.79   18.30
  -6  -6 -15   88.19   25.90
  -6   6 -15   85.59   22.10
   7  -6  15   23.10    5.00
  -7  -6 -15   38.40   20.10
   7   6  15    5.40   10.00
  -7   6 -15    5.30    7.70
   7   6  15   38.20   17.80
   8   6  15    2.20   10.60
   8   6  15   14.50   11.00
  -8   6 -15   40.90   16.20
  -9   6 -15    4.00    6.60
   9   6  15    2.50    7.40
   9   6  15    7.60   10.70
  10  -7 -15   -1.30    7.10
  10   7 -15   51.69   24.70
  10   7 -15   10.00   12.10
   9  -7 -15    8.10   12.40
   9  -7 -15   11.50    8.10
   9   7 -15   18.10   14.90
   9   7 -15   23.10   16.40
   8  -7 -15   25.10   16.30
   8  -7 -15   14.20   10.50
   8   7 -15   -7.30    5.80
   8   7 -15   -1.40    7.40
   7  -7 -15  310.97   39.90
   7  -7 -15  383.56   36.00
   7   7 -15  319.17   42.60
   7   7 -15  356.56   44.70
   6  -7 -15   -0.60    7.70
   6  -7 -15    7.80    8.90
   6   7 -15   -9.60    4.60
   6   7 -15   -6.40    5.80
   5  -7 -15  322.37   35.30
   5  -7 -15  329.67   39.20
   5   7 -15  245.08   36.10
   5   7 -15  287.57   36.70
   4  -7 -15   12.20   11.40
   4  -7 -15   16.80   13.40
   4   7 -15   -1.30    6.10
   4   7 -15    6.60    9.10
   3  -7 -15   11.40   11.90
   3  -7 -15   -2.30    6.30
   3   7 -15    3.10    8.00
   3   7 -15   17.50   13.10
   2  -7 -15    0.00    8.10
   2  -7 -15   10.20    8.70
   2   7 -15   -1.40    8.80
   2   7 -15    0.90    6.00
  -1  -7  15  372.66   32.10
   1  -7 -15  370.56   39.90
   1  -7 -15  339.27   38.80
   1   7 -15  405.86   41.90
   1   7 -15  335.07   32.40
   0  -7  15   48.50   14.40
   0  -7 -15   25.60   12.40
   0  -7 -15   51.89   18.80
   0   7 -15   29.50   11.80
   0   7 -15   65.29   21.70
   1  -7  15  395.66   29.40
  -1  -7 -15  374.26   40.10
  -1  -7 -15  412.66   43.20
  -1   7 -15  331.57   37.30
  -1   7 -15  409.06   32.20
   2  -7  15   73.29   15.30
  -2  -7 -15   51.59   19.60
  -2   7 -15   43.90   12.80
  -2   7 -15  115.49   25.30
   3  -7  15  157.28   15.90
  -3  -7 -15  160.38   35.00
  -3   7 -15  183.48   18.50
  -3   7 -15  187.38   27.10
   4  -7  15   36.80    8.20
  -4   7 -15   55.69   19.30
  -5  -7 -15  189.38   40.10
   5  -7  15  123.59   11.30
   5  -7  15  145.29    9.50
  -5   7 -15  167.38   25.00
  -6  -7 -15   10.70   11.80
  -6   7 -15    4.50    5.80
   6   7  15    8.80    9.00
   7   7  15  122.39   28.20
   7   7  15  147.89   32.30
  -7   7 -15  140.09   22.50
   8   7  15   -0.50    7.80
   8   7  15    3.40    8.40
  -8   7 -15    6.50    7.50
   9   7  15   20.90   15.90
   9   7  15    7.10   10.90
  -9   7 -15   10.80   11.80
   9  -8 -15   35.00   19.40
   9  -8 -15   25.10   11.70
   9   8 -15   26.10   20.60
   9   8 -15   42.00   20.70
   8  -8 -15   47.90   15.80
   8  -8 -15   10.00   12.00
   8   8 -15   30.10   22.00
   8   8 -15   44.80   20.70
   7  -8 -15   19.30   13.00
   7  -8 -15    9.90   11.00
   7   8 -15    6.00   14.00
   7   8 -15    1.10    9.30
   6  -8 -15   18.60   12.00
   6  -8 -15   49.30   27.80
   6   8 -15   -1.70    7.70
   6   8 -15   79.69   26.00
   5  -8 -15   30.30   16.80
   5  -8 -15   57.79   20.70
   5   8 -15   53.79   22.50
   5   8 -15   74.39   28.80
   4  -8 -15  112.29   28.00
   4  -8 -15   87.19   24.20
   4   8 -15  123.49   31.80
   4   8 -15  111.19   26.30
   3  -8 -15    3.30    7.50
   3  -8 -15   -2.30    7.40
   3   8 -15    0.20    9.60
   3   8 -15  -10.00    3.80
   2  -8 -15  595.64   51.99
   2  -8 -15  572.44   49.70
   2   8 -15  591.54   52.79
   2   8 -15  550.34   44.70
   1  -8 -15   74.89   23.60
  -1  -8  15   74.79   21.90
   1  -8 -15   24.70   13.30
   1   8 -15   31.30   15.90
   1   8 -15   57.29   17.80
   0  -8  15   28.60   11.80
   0  -8 -15   41.80   18.80
   0  -8 -15    3.90    8.60
   0   8 -15   24.70   13.50
   0   8 -15   16.90   10.50
   1  -8  15   35.30   11.50
  -1  -8 -15   20.50   14.20
  -1   8 -15   31.60   16.80
  -1   8 -15   28.40   11.30
   2  -8  15    7.20    5.20
  -2  -8 -15   -2.70    4.70
  -2   8 -15   -4.90    4.90
  -2   8 -15   -4.60    2.80
   3  -8  15   72.69   10.30
  -3  -8 -15   59.79   23.70
  -3   8 -15  110.99   27.60
  -3   8 -15  105.19   12.90
  -4  -8 -15  105.49   28.70
   4  -8  15   86.39    7.20
  -4   8 -15  136.29   27.30
  -5  -8 -15   52.39   21.80
  -5   8 -15   49.70   17.80
  -6   8 -15  146.59   23.30
   6   8  15  119.09   29.10
   6   8  15   92.79   27.20
   7   8  15    3.10    8.30
   7   8  15  -10.80    5.20
  -7   8 -15   10.20    9.80
   8   8  15    3.00    9.60
   8   8  15   -1.10    6.50
  -8   8 -15    7.90    8.10
   9  -9 -15   19.30   12.50
   9   9 -15    0.90   12.00
   9   9 -15   -7.30    8.30
   8  -9 -15   72.39   18.20
   8  -9 -15   81.79   27.40
   8   9 -15   44.60   21.30
   8   9 -15   68.09   26.30
   7  -9 -15  115.69   30.20
   7  -9 -15  149.19   23.90
   7   9 -15  140.99   36.00
   7   9 -15  155.88   38.50
   6  -9 -15   28.70   16.10
   6  -9 -15   80.79   21.60
   6   9 -15   93.09   31.40
   6   9 -15   57.09   22.60
   5  -9 -15  151.48   30.70
   5  -9 -15  182.48   56.19
   5   9 -15  173.88   35.30
   5   9 -15  178.68   40.30
   4  -9 -15   14.50   11.00
   4  -9 -15   14.40   13.10
   4   9 -15    0.40    8.70
   4   9 -15   20.10   13.60
   3  -9 -15   -3.80    5.40
   3  -9 -15    2.10    9.60
   3   9 -15   10.90   13.50
   3   9 -15    1.90    7.80
   2  -9 -15   32.00   14.70
   2  -9 -15   65.29   22.70
   2   9 -15   33.80   14.30
   1  -9 -15  285.67   36.60
   1  -9 -15  254.77   35.30
   1   9 -15  307.77   31.30
   1   9 -15  353.96   40.70
   0  -9  15  131.39   17.90
   0  -9 -15  188.28   38.20
   0   9 -15  150.08   34.30
   0   9 -15  149.29   20.90
  -1  -9 -15  238.28   35.50
   1  -9  15  173.48   18.60
  -1   9 -15  210.08   30.60
  -1   9 -15  199.78   22.20
  -2  -9 -15   65.89   26.10
   2  -9  15   46.70   10.70
  -2   9 -15   82.69   13.20
  -2   9 -15   32.10   15.00
   3  -9  15   46.90    9.60
  -3  -9 -15   50.89   21.70
  -3   9 -15   46.50   17.80
  -3   9 -15   63.39    9.10
  -4  -9 -15   26.10   16.50
  -5   9 -15   34.60   15.00
   5   9  15   60.69   22.50
  -6   9 -15   -3.70    4.80
   6   9  15   -2.70    8.30
   6   9  15   -3.20   10.70
   7   9  15  188.98   40.90
   7   9  15   54.89   20.10
  -7   9 -15   83.69   21.10
   8   9  15   40.60   29.70
  -8   9 -15   12.30   10.90
   8   9  15   44.50   21.70
   8 -10 -15   27.90   18.20
   8  10 -15   17.80   18.70
   8  10 -15   50.99   32.30
   7 -10 -15    9.80   10.30
   7 -10 -15   -3.80    5.60
   7  10 -15   -0.50    9.80
   7  10 -15    2.20   10.50
   6 -10 -15   55.79   18.00
   6 -10 -15   67.79   23.20
   6  10 -15   51.39   21.80
   6  10 -15   73.69   28.30
   5 -10 -15   59.19   18.80
   5 -10 -15   41.00   18.30
   5  10 -15   34.00   21.00
   5  10 -15   91.99   28.20
   4 -10 -15    6.00    9.90
   4 -10 -15   59.19   21.20
   4  10 -15   52.39   22.50
   4  10 -15   50.39   23.60
   3 -10 -15  120.69   31.90
   3 -10 -15  145.89   33.00
   3  10 -15  149.09   30.60
   3  10 -15   92.39   29.60
   2 -10 -15   15.60   12.20
   2 -10 -15   20.30   14.80
   2  10 -15   -2.80    6.10
   2  10 -15    6.30    8.90
   1 -10 -15  130.29   29.20
   1 -10 -15  176.08   38.20
   1  10 -15  126.29   21.00
   1  10 -15  139.49   30.80
   0 -10  15  103.49   16.40
   0 -10 -15   60.69   31.60
   0  10 -15   81.29   19.00
   0  10 -15   90.59   27.50
   1 -10  15    5.70    5.50
  -1 -10 -15    8.20   12.10
  -1  10 -15   10.20    7.30
  -1  10 -15    5.50   11.10
  -2 -10 -15   11.00   12.00
   2 -10  15    0.80    3.10
  -2  10 -15    1.40    8.00
  -2  10 -15   13.40    6.50
  -3 -10 -15   60.59   24.90
  -3  10 -15   58.99   22.40
   3  10  15   25.70   15.20
   4  10  15  106.69   30.20
  -4  10 -15   60.09   20.30
   5  10  15   64.09   23.90
  -5  10 -15   30.50   15.30
   5  10  15   34.70   17.60
  -6  10 -15    9.30    9.50
   6  10  15   13.30   14.90
   6  10  15    9.00   11.20
   7  10  15   38.20   21.70
   7  10  15   11.60   15.50
  -7  10 -15    8.40    8.70
   7 -11 -15   28.80   17.20
   7  11 -15   25.70   22.40
   7  11 -15   39.00   21.70
  -7  11  15   17.70   10.30
   6 -11 -15  185.48   40.30
   6  11 -15   88.79   27.40
   6  11 -15  150.18   39.10
   5 -11 -15    2.70    7.50
   5 -11 -15    9.10   10.60
   5  11 -15   -3.00    6.60
   5  11 -15   -6.20    8.00
   4 -11 -15   27.40   14.60
   4 -11 -15   27.30   16.50
   4  11 -15   -6.90    6.90
   4  11 -15   14.80   11.60
   3 -11 -15   16.60   14.70
   3 -11 -15   13.30   11.60
   3  11 -15    9.90   12.40
   3  11 -15   -0.60    9.10
   2  11 -15   64.39   19.60
   2  11 -15   22.20   14.80
   1 -11 -15   89.99   26.40
   1  11 -15  117.89   25.30
   1  11 -15   32.90   16.50
   0 -11  15   92.79   18.80
   0 -11 -15   43.50   19.20
   0  11 -15   64.39   22.80
   0  11 -15   77.69   19.50
  -1 -11 -15  243.48   37.70
   1 -11  15  157.18   17.10
   1  11  15  130.19   31.00
  -1  11 -15  139.39   18.40
  -1  11 -15  170.18   37.40
  -2  11 -15  102.99   27.70
  -2  11 -15  121.49   13.70
   2  11  15  133.69   32.10
   3  11  15   41.00   20.10
  -3  11 -15   20.30   13.80
  -4  11 -15   15.20   11.10
   4  11  15   22.90   14.80
   5  11  15   10.40   11.30
  -5  11 -15    2.00    6.70
   5  11  15   -0.50    9.40
  -6  11 -15   76.79   20.20
   6  11  15  165.18   44.70
   6  11  15  117.99   33.00
   6 -12 -15    3.80    9.50
   6  12 -15   -0.90   11.30
   6  12 -15   -5.30    7.00
  -6  12  15   16.30   10.50
   5 -12 -15    4.40    9.70
   5  12 -15   25.10   18.70
  -5  12  15   20.00   12.60
   5  12 -15    4.80   10.90
   4 -12 -15   -3.80    6.50
  -4  12  15    5.00    9.80
   4  12 -15    7.20    9.50
   4  12 -15    5.90   12.00
  -3  12  15  108.19   26.50
   3  12 -15   51.29   22.00
   3  12 -15  134.39   32.20
   2  12 -15   14.70   12.80
  -2  12  15   14.10   11.90
   2  12 -15    9.20   13.90
   1  12 -15  131.19   33.40
  -1  12  15  122.09   28.00
   1  12 -15  109.99   25.70
   0 -12  15    7.10    7.60
   0  12 -15    2.80    5.70
   0  12 -15   19.00   17.60
   0  12  15   16.90   13.40
  -1  12 -15    5.90    6.10
   1  12  15   -4.20    6.60
  -1  12 -15    7.30   10.70
  -2  12 -15    6.60    9.70
   2  12  15   17.10   12.30
  -2  12 -15   23.90    6.50
   3  12  15   17.50   14.70
  -3  12 -15   11.20   11.40
   4  12  15   24.60   17.80
  -4  12 -15   18.80   14.30
   4  12  15   45.50   22.10
  -5  12 -15  193.88   29.40
   5  13 -15   11.40   11.80
   5  13 -15   -4.30    7.30
  -5  13  15   10.40    8.40
   4  13 -15  110.39   37.80
   4  13 -15   94.69   26.00
  -4  13  15  167.08   26.90
  -3  13  15   16.10   11.80
   3  13 -15    0.50    7.80
   3  13 -15   -6.90    7.10
   2  13 -15   45.90   25.00
   2  13 -15   30.40   16.50
  -2  13  15   26.30   15.90
   1  13 -15   11.60    9.90
   1  13 -15   -7.80    5.90
  -1  13  15   24.30   15.60
   0  13 -15   47.20   15.60
   0  13 -15   84.99   28.00
   0  13  15   80.99   26.00
   1  13  15   18.20   13.00
  -1  13 -15   42.20   21.20
  -1  13 -15   16.10    8.30
  -2  13 -15  153.98   34.90
   2  13  15  129.89   33.50
   3  13  15    9.40   12.80
  -3  13 -15   39.00   18.40
   3  13  15   31.00   17.50
  -4  13 -15   10.20   12.10
   4  13  15   25.80   18.80
   4  13  15    7.30   13.00
  -3  14  15    2.80    7.70
   3  14 -15    5.20    7.80
   3  14 -15   -3.00    7.60
   2  14 -15   48.70   25.10
   2  14 -15   45.70   18.40
  -2  14  15   51.99   19.70
   1  14 -15   11.60    9.50
  -1  14  15    7.10    9.10
   1  14 -15    0.50    8.20
   0  14 -15   10.40   11.50
   0  14  15   24.20   16.20
   0  14 -15    8.20    7.90
   1  14  15    4.90    9.60
  -1  14 -15    5.40   10.50
   2  14  15   17.00   18.80
  -2  14 -15   33.40   18.80
  11   0 -16   -2.50    7.30
  10   0 -16  241.38   39.70
  10   0 -16  325.77   45.80
   9   0 -16   -1.50    6.10
   9   0 -16   13.70   11.90
   8   0 -16   46.80   21.40
   8   0 -16  109.59   29.80
   7   0 -16   16.00   13.50
   7   0 -16    1.20    6.80
   6   0 -16  228.98   31.50
   6   0 -16  208.78   32.20
   5   0 -16   -5.40    4.30
   5   0 -16   -6.00    5.00
   4   0 -16  235.98   31.30
   4   0 -16  238.18   31.80
   3   0 -16   10.60   10.90
   3   0 -16   -2.90    6.10
   2   0 -16 1184.68   70.69
   1   0 -16   10.40    9.60
   1   0 -16   13.10    9.60
   0   0 -16    1.90    8.60
   0   0 -16   -1.90    4.70
  -1   0 -16    0.10    6.00
  -1   0 -16   -7.10    5.30
  -2   0 -16  230.28   28.30
  -2   0 -16  197.18   28.00
  -3   0 -16   -4.40    3.60
  -3   0 -16    1.70    7.50
  -4   0 -16  418.56   41.60
  -5   0 -16   11.70    9.20
  -6   0 -16  118.59   27.70
   7   0  16    3.60    6.70
  -7   0 -16   16.50   12.00
   8   0  16   71.49   19.90
  -8   0 -16   25.00   14.80
   9   0  16   -6.20    4.40
  -9   0 -16   10.70    9.70
  10   0  16   84.39   21.70
  10   0  16  111.19   31.40
  11  -1 -16   13.80   11.10
  11  -1 -16   19.20   17.60
  11   1 -16   13.40   15.20
  11   1 -16   44.10   23.50
  10  -1 -16   14.30   12.80
  10  -1 -16   23.50   14.80
  10   1 -16    1.80    8.00
  10   1 -16    9.40   14.20
   9  -1 -16   -7.50    4.90
   9  -1 -16   12.80   11.20
   9   1 -16    0.30   10.20
   9   1 -16   14.80   13.40
   8  -1 -16   37.90   17.60
   8  -1 -16   64.79   26.00
   8   1 -16   95.19   31.00
   8   1 -16   44.70   19.20
   7  -1 -16   10.10   11.90
   7  -1 -16   -5.50    5.10
   7   1 -16   11.90   10.80
   7   1 -16   20.00   15.30
   6  -1 -16   -2.70    6.60
   6  -1 -16   10.70    9.30
   6   1 -16    1.60    9.00
   6   1 -16   -0.30    6.90
   5  -1 -16   47.40   17.20
   5  -1 -16   73.29   21.50
   5   1 -16   77.79   22.40
   5   1 -16   84.19   24.90
   4  -1 -16  121.19   29.90
   4  -1 -16   57.09   18.00
   4   1 -16   77.49   21.90
   4   1 -16  109.39   27.20
   3  -1 -16   10.90   11.00
   3  -1 -16   -4.30    5.30
   3   1 -16   19.10   13.10
   3   1 -16   22.60   12.80
   2  -1 -16   83.29   21.60
   2  -1 -16  182.78   26.30
   2   1 -16  148.49   24.70
   2   1 -16  143.09   23.40
   1  -1 -16   71.29   22.10
   1  -1 -16   90.69   24.70
   1   1 -16   68.29   20.20
   1   1 -16   56.19   17.20
   0  -1 -16   -6.70    4.30
   0  -1 -16    7.00    6.90
   0  -1  16    4.80    8.70
   0   1 -16   -0.20    5.40
   0   1 -16   -3.60    5.20
  -1  -1 -16  115.89   24.90
   1  -1  16  107.49   23.50
  -1  -1 -16   77.69   20.40
  -1   1 -16  125.49   26.00
  -1   1 -16  141.89   31.30
   2  -1  16   91.99   22.10
  -2  -1 -16   41.30   14.40
  -2  -1 -16   46.70   17.80
  -2   1 -16   56.49   19.20
  -2   1 -16   72.49   19.50
  -3  -1 -16  356.26   35.40
  -3  -1 -16  414.56   41.00
   3  -1  16  331.27   32.20
  -3   1 -16  393.26   38.90
  -3   1 -16  385.36   35.00
  -4  -1 -16   28.20   13.80
   4  -1  16   21.80   11.80
  -4   1 -16   -1.90    5.50
  -5  -1 -16   27.90   13.40
  -5   1 -16   34.90   15.90
  -6  -1 -16   18.50   13.30
  -6   1 -16   31.80   16.40
   7  -1  16  228.68   25.70
  -7  -1 -16  212.78   31.70
  -7   1 -16  228.18   31.30
   7   1  16  254.27   29.80
   8  -1  16   27.10   12.40
  -8  -1 -16   29.30   15.70
   8   1  16   33.60   14.60
  -8   1 -16   27.40   15.30
   9  -1  16   40.20   14.80
  -9  -1 -16   31.50   17.90
  -9   1 -16   53.99   19.90
  10  -1  16   29.10   13.50
  10  -1  16   38.00   15.30
  10   1  16   26.70   14.30
  10   1  16   52.09   20.20
  11  -2 -16   -0.20    8.40
  11  -2 -16    6.00    8.80
  11   2 -16   -3.00    9.50
  11   2 -16   -0.80    7.60
  10  -2 -16  137.69   38.00
  10  -2 -16  164.18   26.80
  10   2 -16  124.49   30.80
  10   2 -16  160.88   38.50
   9  -2 -16   23.70   14.90
   9  -2 -16   16.80   11.70
   9   2 -16   46.90   22.00
   9   2 -16   31.30   17.20
   8  -2 -16  306.37   35.30
   8  -2 -16  173.98   36.30
   8   2 -16  310.37   38.80
   8   2 -16  220.88   44.10
   7  -2 -16   51.39   20.00
   7  -2 -16   91.39   24.40
   7   2 -16   87.69   25.50
   7   2 -16  130.09   32.20
   6  -2 -16   35.60   15.50
   6  -2 -16   81.79   23.40
   6   2 -16   20.20   14.30
   6   2 -16   41.70   17.80
   5  -2 -16   97.69   28.00
   5  -2 -16   82.99   23.10
   5   2 -16   60.69   22.00
   5   2 -16   73.49   22.60
   4  -2 -16  573.54   47.30
   4   2 -16  453.35   44.20
   4   2 -16  467.25   44.40
   3  -2 -16  119.79   24.10
   3  -2 -16  157.68   25.10
   3   2 -16  122.99   28.50
   3   2 -16  167.58   26.10
   2  -2 -16  129.39   29.40
   2  -2 -16  156.08   32.70
   2   2 -16  139.79   29.70
   2   2 -16  100.39   24.70
   1  -2 -16   -4.60    5.70
   1  -2 -16   -0.60    6.90
   1   2 -16   -5.70    3.80
   1   2 -16   -6.20    4.70
   0  -2  16   50.89   16.20
   0  -2 -16   40.40   16.00
   0  -2 -16   75.79   21.90
   0   2 -16   56.59   17.30
   0   2 -16   54.89   16.90
  -1  -2 -16  113.49   26.90
  -1  -2 -16   74.39   21.30
   1  -2  16  124.99   25.20
  -1   2 -16   64.69   17.20
  -1   2 -16  139.99   28.90
  -2  -2 -16  142.19   23.50
   2  -2  16  134.99   20.30
  -2  -2 -16  114.29   24.90
  -2   2 -16  193.98   23.90
  -2   2 -16  122.79   26.60
  -3  -2 -16  122.29   24.90
   3  -2  16  120.59   19.50
  -3  -2 -16  181.48   35.70
  -3   2 -16  152.18   24.90
  -3   2 -16  129.59   20.10
  -4  -2 -16   31.50   15.70
   4  -2  16   60.39   18.20
  -4   2 -16   62.69   20.00
   5  -2  16    8.40    6.80
  -5  -2 -16   -4.90    4.70
  -5   2 -16   -0.90    5.80
   6  -2  16  219.38   26.30
  -6  -2 -16  271.27   35.40
  -6   2 -16  238.68   31.30
   7  -2  16    3.50    5.70
  -7  -2 -16   -2.80    5.90
   7   2  16   -1.00    6.70
  -7   2 -16   -2.60    6.10
   8  -2  16   15.30    8.80
  -8  -2 -16   13.40   12.20
   8   2  16   19.30   15.30
  -8   2 -16   15.90   12.30
  -9  -2 -16   12.60   10.10
   9  -2  16    3.30    5.40
   9   2  16    5.60    9.20
  -9   2 -16    9.00    9.70
   9   2  16   -3.70    4.50
  10  -2  16   17.60   10.70
  10  -2  16   27.80   13.30
  10   2  16   38.70   17.50
  10   2  16   27.80   13.00
  10  -3 -16    7.60   12.20
  10  -3 -16   22.30   13.30
  10   3 -16    4.50    8.60
  10   3 -16   69.09   28.20
   9  -3 -16   27.10   17.30
   9  -3 -16   11.30   11.10
   9   3 -16   -1.10    7.20
   9   3 -16    4.60   12.00
   8  -3 -16  158.98   25.60
   8  -3 -16  127.49   32.60
   8   3 -16  126.79   33.80
   8   3 -16   65.39   23.70
   7  -3 -16  116.99   26.70
   7  -3 -16  145.59   36.90
   7   3 -16  160.18   35.10
   7   3 -16  136.59   34.80
   6  -3 -16   25.10   16.40
   6  -3 -16   -0.50    7.30
   6   3 -16    9.50   13.00
   6   3 -16   -0.10    7.20
   5  -3 -16  122.89   29.10
   5  -3 -16  110.49   25.70
   5   3 -16  117.39   29.60
   5   3 -16  139.79   31.70
   4  -3 -16   55.49   20.50
   4  -3 -16   75.69   21.80
   4   3 -16   59.59   18.20
   4   3 -16   56.69   21.60
   3  -3 -16  190.88   27.20
   3  -3 -16  171.58   27.10
   3   3 -16  175.08   27.80
   3   3 -16  169.58   26.10
   2  -3 -16  287.47   34.00
   2  -3 -16  249.97   31.70
   2   3 -16  347.17   35.20
   2   3 -16  344.37   37.90
   1  -3 -16   39.80   14.50
   1  -3 -16   24.00   13.00
   1   3 -16   47.20   17.50
   1   3 -16   47.90   18.10
   0  -3  16   62.29   17.10
   0  -3 -16   55.69   18.90
   0  -3 -16   37.00   14.80
   0   3 -16   40.40   15.30
   0   3 -16   58.69   19.90
   1  -3  16  230.78   25.70
  -1  -3 -16  216.38   30.20
  -1  -3 -16  255.87   31.30
  -1   3 -16  236.08   26.70
  -1   3 -16  192.68   28.10
  -2  -3 -16    8.40    9.70
  -2  -3 -16    6.60    8.90
   2  -3  16   15.50    9.30
  -2   3 -16   -0.40    4.30
  -2   3 -16   26.10   14.10
  -3  -3 -16   50.69   18.60
  -3  -3 -16   79.69   24.40
   3  -3  16   78.39   19.10
  -3   3 -16   91.09   21.00
  -3   3 -16   64.49   18.40
  -4  -3 -16   59.99   21.20
   4  -3  16  104.59   21.60
  -4   3 -16   78.69   22.50
  -5  -3 -16  237.48   33.40
   5  -3  16  243.68   25.40
  -5   3 -16  254.57   31.70
   6  -3  16    5.60    6.20
  -6  -3 -16   -0.80    5.80
  -6   3 -16   -4.10    5.50
   7  -3  16   16.20    8.70
   7  -3  16   18.00    9.80
   7   3  16   22.40   12.50
  -7   3 -16   44.40   17.10
   8  -3  16  180.18   21.00
   8  -3  16  208.68   25.40
  -8  -3 -16  234.38   35.20
   8   3  16  238.78   31.40
  -8   3 -16  190.78   27.60
   9  -3  16  106.29   16.70
   9   3  16   90.49   24.60
   9   3  16   88.69   24.90
  -9   3 -16  131.39   27.80
  10  -3  16   14.70   10.00
  10  -3  16   13.10    8.80
  10   3  16   19.50   14.50
  10   3  16   16.60   10.20
  10  -4 -16    0.20    8.20
  10  -4 -16   18.50   11.50
  10   4 -16    3.30   10.70
  10   4 -16    7.30   12.30
   9  -4 -16  156.18   39.00
   9  -4 -16  151.68   24.70
   9   4 -16  122.49   32.40
   9   4 -16  179.18   39.80
   8  -4 -16    6.70    9.20
   8  -4 -16   16.80   14.50
   8   4 -16   11.70   13.70
   8   4 -16   -2.80    7.90
   7  -4 -16   37.20   16.00
   7  -4 -16   20.90   12.80
   7   4 -16   31.20   17.10
   7   4 -16   38.00   19.90
   6  -4 -16   -1.10    6.70
   6  -4 -16   29.30   17.40
   6   4 -16    3.70    8.10
   6   4 -16   20.00   23.80
   5  -4 -16    1.90    6.80
   5  -4 -16   13.80   11.10
   5   4 -16   24.20   14.90
   5   4 -16   11.10   11.30
   4  -4 -16    6.80    9.10
   4  -4 -16   31.00   17.40
   4   4 -16   20.30   13.70
   4   4 -16    4.50    7.80
   3  -4 -16  215.98   30.30
   3  -4 -16  263.57   32.30
   3   4 -16  241.68   30.80
   3   4 -16  176.78   29.10
   2  -4 -16   24.30   14.00
   2  -4 -16    2.60    9.00
   2   4 -16    2.80   10.10
   2   4 -16    1.20    7.80
   1  -4 -16  117.79   27.10
   1  -4 -16   86.29   24.80
   1   4 -16   74.19   19.40
   1   4 -16   83.09   23.70
   0  -4 -16  115.29   26.40
   0  -4  16  104.29   22.40
   0  -4 -16   76.19   23.30
   0   4 -16  157.38   31.90
   0   4 -16  125.89   20.40
  -1  -4 -16  148.89   32.50
  -1  -4 -16   45.80   19.20
   1  -4  16  109.09   17.90
  -1   4 -16   78.49   20.70
  -1   4 -16   65.89   17.30
  -2  -4 -16    6.70    7.90
  -2  -4 -16    2.80    6.80
  -2   4 -16    6.00    9.60
  -2   4 -16   13.80    9.60
  -3  -4 -16  187.78   29.70
   3  -4  16  216.08   23.40
  -3   4 -16  179.98   22.70
  -3   4 -16  202.48   28.20
   4  -4  16  107.59   16.50
  -4  -4 -16  116.89   28.70
  -4   4 -16   84.39   23.40
   5  -4  16  123.79   17.90
  -5  -4 -16  146.19   31.60
  -5   4 -16  148.29   29.20
   6  -4  16   74.19   17.00
  -6  -4 -16   63.59   33.30
  -6   4 -16   84.49   22.00
   7  -4  16   -0.60    3.90
  -7  -4 -16   -2.80    6.30
   7  -4  16    5.10    5.90
  -7   4 -16    3.70    6.00
   7   4  16   -6.40    4.40
  -8  -4 -16   -0.30    7.70
   8  -4  16    8.00    6.00
   8  -4  16    8.60   10.20
  -8   4 -16   -2.30    5.70
   8   4  16   -3.60    6.10
   9   4  16   25.00   14.10
   9   4  16   13.10   11.20
  -9   4 -16   -3.70    4.80
  10   4  16   43.00   19.00
  10   4  16   28.70   17.40
  10  -5 -16   10.40    9.60
  10  -5 -16   41.40   20.80
  10   5 -16    7.80   13.40
  10   5 -16   22.00   21.40
   9  -5 -16    1.30    6.50
   9  -5 -16   17.90   12.90
   9   5 -16  -12.30    6.60
   9   5 -16   18.70   13.90
   8  -5 -16   30.60   18.10
   8  -5 -16    6.60    8.20
   8   5 -16   26.50   18.30
   8   5 -16   11.40   14.00
   7  -5 -16    8.60   10.50
   7  -5 -16    1.10    7.90
   7   5 -16    6.80   11.10
   7   5 -16   16.90   15.50
   6  -5 -16  220.98   43.50
   6  -5 -16  204.78   28.60
   6   5 -16  119.59   32.30
   6   5 -16  162.88   49.90
   5  -5 -16   -7.10    4.30
   5  -5 -16   16.60   11.20
   5   5 -16    8.70   11.40
   5   5 -16   -5.30    6.20
   4  -5 -16  513.05   47.60
   4  -5 -16  445.26   41.70
   4   5 -16  367.46   42.30
   4   5 -16  369.16   39.90
   3  -5 -16  139.79   32.80
   3  -5 -16  148.69   31.40
   3   5 -16  108.79   26.70
   3   5 -16  200.38   30.80
   2  -5 -16   11.70   10.00
   2  -5 -16   41.40   16.50
   2   5 -16   22.40   12.10
   2   5 -16   41.00   17.40
   1  -5 -16   17.70   12.50
   1  -5 -16   16.80   11.90
   1   5 -16   15.50   13.60
   1   5 -16   27.00   12.40
   0  -5 -16   37.60   15.90
   0  -5 -16   30.10   16.90
   0  -5  16   14.10    9.60
   0   5 -16   21.20   11.80
   0   5 -16   23.30   14.50
  -1  -5 -16    9.30   13.50
  -1  -5 -16   18.40   12.10
   1  -5  16   18.20   11.40
  -1   5 -16   25.30   11.50
  -1   5 -16   49.00   18.10
   2  -5  16  307.07   27.70
  -2  -5 -16  333.87   38.60
  -2  -5 -16  359.86   38.90
  -2   5 -16  372.96   32.40
  -2   5 -16  285.77   34.20
  -3  -5 -16   29.10   15.60
   3  -5  16   44.30   13.70
  -3   5 -16   76.09   18.40
  -3   5 -16   59.89   21.20
  -4  -5 -16   85.19   27.10
   4  -5  16   35.10   10.60
  -4   5 -16   83.99   24.10
  -5  -5 -16   16.10   13.60
   5  -5  16   11.30    6.60
  -5   5 -16    4.80    8.80
   6  -5  16  134.39   16.50
  -6  -5 -16  145.09   33.50
   6  -5  16  134.49   14.90
  -6   5 -16  130.29   27.60
  -7  -5 -16   11.80   10.30
   7  -5  16    6.50    5.50
   7  -5  16    0.40    3.00
   7   5  16    1.90    7.60
  -7   5 -16   -1.40    5.70
   8  -5  16   77.69   11.00
   8   5  16   42.30   15.50
   8   5  16  151.48   33.80
  -8   5 -16   94.09   22.70
   9   5  16   87.49   25.80
   9   5  16   65.09   20.90
  -9   5 -16   93.39   23.20
  10  -6 -16   17.30   15.20
  10  -6 -16   21.30   12.00
  10   6 -16   17.00   15.90
  10   6 -16   18.80   16.50
   9  -6 -16  223.28   27.90
   9  -6 -16  223.08   44.50
   9   6 -16  130.49   36.20
   9   6 -16  210.68   44.50
   8  -6 -16   11.00   12.40
   8  -6 -16    4.80    8.40
   8   6 -16   14.10   14.60
   8   6 -16    3.20    8.60
   7  -6 -16   35.60   18.20
   7  -6 -16   83.69   22.70
   7   6 -16   75.39   28.70
   7   6 -16   35.20   16.70
   6  -6 -16   -7.40    4.20
   6  -6 -16   -2.40    5.40
   6   6 -16   -7.90    5.40
   6   6 -16   -1.00    7.50
   5  -6 -16  161.38   36.20
   5  -6 -16  124.79   28.80
   5   6 -16   96.29   31.60
   5   6 -16  133.19   32.20
   4  -6 -16    1.40    8.00
   4  -6 -16    4.40    6.80
   4   6 -16    4.80    8.50
   4   6 -16    0.80    8.80
   3  -6 -16  527.25   49.00
   3  -6 -16  545.55   47.90
   3   6 -16  581.74   52.59
   3   6 -16  568.94   47.60
   2  -6 -16    1.70    6.70
   2  -6 -16    7.30    9.20
   2   6 -16   11.80    9.60
   2   6 -16    0.20    7.80
   1  -6 -16  132.79   31.60
   1  -6 -16  167.08   35.60
   1   6 -16  147.59   32.80
   1   6 -16  125.89   20.90
   0  -6  16   85.39   19.10
   0  -6 -16   60.69   19.80
   0  -6 -16  107.39   28.60
   0   6 -16   83.69   20.60
   0   6 -16   71.79   23.00
  -1  -6 -16    7.10   10.90
  -1  -6 -16   32.90   16.10
   1  -6  16   12.60    8.60
  -1   6 -16   16.50   12.00
  -1   6 -16   22.40   10.80
  -2  -6 -16    4.50    7.00
   2  -6  16   20.30    9.20
  -2   6 -16   -2.40    7.00
  -2   6 -16    9.90    7.10
   3  -6  16  108.59   15.60
  -3  -6 -16   83.79   26.30
  -3   6 -16  104.69   25.30
  -3   6 -16   92.79   15.40
   4  -6  16    3.70    5.30
  -4  -6 -16    8.10   12.10
  -4   6 -16   -0.40    8.90
   5  -6  16  185.78   17.60
  -5  -6 -16  253.17   37.20
  -5   6 -16  252.37   31.30
  -6  -6 -16    1.00    9.10
   6  -6  16    6.30    5.00
   6  -6  16    8.10    4.70
  -6   6 -16   -0.90    5.10
   7  -6  16   21.60    6.20
  -7  -6 -16    7.20    9.90
   7  -6  16   19.50    5.50
   7   6  16   18.70   15.60
  -7   6 -16    6.40    8.80
   8   6  16    1.10    7.00
   8   6  16    1.50   10.70
  -8   6 -16    2.50    6.00
  -9   6 -16   -3.70    5.40
   9   6  16   15.70   14.10
   9   6  16    1.30    7.80
   9  -7 -16   50.19   20.00
   9  -7 -16   22.60   11.70
   9   7 -16   13.90   14.00
   9   7 -16   20.50   17.80
   8  -7 -16    0.20    6.20
   8  -7 -16    4.20    9.20
   8   7 -16    5.00   11.00
   8   7 -16    8.00   14.90
   7  -7 -16    9.40   11.50
   7  -7 -16   18.80   10.90
   7   7 -16   29.10   18.20
   7   7 -16   21.30   15.90
   6  -7 -16  194.28   40.00
   6  -7 -16  223.98   30.20
   6   7 -16  226.78   36.40
   6   7 -16  246.38   36.90
   5  -7 -16    8.50   10.10
   5  -7 -16   16.60   13.60
   5   7 -16   33.80   15.30
   4  -7 -16  118.49   30.20
   4  -7 -16   64.09   20.20
   4   7 -16  144.69   35.60
   4   7 -16   84.39   23.00
   3  -7 -16   78.19   25.00
   3  -7 -16   84.79   24.20
   3   7 -16   80.09   23.90
   3   7 -16  109.19   31.20
   2  -7 -16   77.59   23.10
   2  -7 -16   92.79   26.10
   2   7 -16   59.69   17.80
   2   7 -16   47.00   17.80
   1  -7 -16  213.38   41.80
   1  -7 -16  166.98   35.40
   1   7 -16  221.88   32.30
   1   7 -16  167.28   24.30
   0  -7 -16   89.39   23.40
   0  -7 -16  116.09   27.20
   0  -7  16  117.79   18.30
   0   7 -16   92.79   26.30
   0   7 -16  141.69   21.30
  -1  -7 -16  195.68   30.50
  -1  -7 -16  201.98   32.20
  -1   7 -16  286.27   28.10
  -1   7 -16  218.88   31.50
  -2  -7 -16  112.99   28.80
   2  -7  16  148.89   18.00
  -2   7 -16  159.48   19.80
  -2   7 -16  157.28   33.10
   3  -7  16   -2.70    3.60
  -3   7 -16   -0.20    5.90
  -3   7 -16   -0.50    3.70
  -4  -7 -16   48.50   19.90
   4  -7  16   47.00   10.60
  -4   7 -16   62.59   20.60
  -5  -7 -16   23.30   14.70
   5  -7  16   23.60    6.00
   5  -7  16   19.00    5.90
  -5   7 -16   16.20   11.20
  -6  -7 -16   79.29   25.90
  -6   7 -16   93.29   22.90
   6   7  16   88.39   27.60
   7   7  16    8.90   11.10
   7   7  16    9.00    9.30
  -7   7 -16   18.10   11.00
  -8   7 -16  280.27   30.90
   8   7  16  274.97   38.20
   8   7  16  296.87   39.70
   9   7  16    2.80    9.00
   9  -8 -16   89.59   26.90
   9  -8 -16   51.39   16.30
   9   8 -16  125.39   36.90
   9   8 -16   91.69   34.50
   8  -8 -16    2.20    8.00
   8  -8 -16   21.20   17.80
   8   8 -16   -1.60    7.50
   8   8 -16    2.10   11.20
   7  -8 -16   18.20   12.50
   7  -8 -16   71.59   21.00
   7   8 -16   86.59   29.70
   7   8 -16   39.50   21.90
   6  -8 -16   31.00   15.00
   6  -8 -16   29.70   16.30
   6   8 -16   27.40   16.50
   6   8 -16   58.99   26.10
   5  -8 -16   33.90   16.40
   5  -8 -16   63.89   23.20
   5   8 -16   62.49   23.20
   5   8 -16   49.20   24.90
   4  -8 -16   20.00   16.80
   4  -8 -16    2.20    8.90
   4   8 -16    5.30   10.80
   4   8 -16   16.80   13.10
   3  -8 -16  216.58   31.10
   3  -8 -16  236.68   34.50
   3   8 -16  227.58   30.90
   3   8 -16  240.18   35.90
   2  -8 -16   14.90   12.50
   2  -8 -16   15.50   12.80
   2   8 -16    9.60    9.40
   2   8 -16   28.90   16.20
   1  -8 -16  286.57   37.40
   1  -8 -16  202.78   31.70
   1   8 -16  280.07   37.00
   1   8 -16  315.77   32.40
   0  -8 -16   49.20   20.80
   0  -8 -16   56.99   20.70
   0  -8  16   50.29   15.20
   0   8 -16   69.99   21.90
   0   8 -16    9.40    9.10
   1  -8  16  143.99   30.10
  -1  -8 -16  149.19   34.20
  -1   8 -16  124.69   28.40
  -1   8 -16  131.59   29.90
   2  -8  16   11.80    6.60
  -2  -8 -16   10.30   13.00
  -2   8 -16   13.20    7.80
  -2   8 -16   17.10   13.00
   3  -8  16  204.78   17.50
  -3  -8 -16  286.37   39.40
  -3   8 -16  203.18   19.10
  -3   8 -16  221.08   31.10
   4  -8  16    3.00    3.70
  -4  -8 -16    1.50    8.00
  -4   8 -16   -3.80    5.30
  -5  -8 -16  163.18   37.80
  -5   8 -16  192.58   28.30
   6   8  16   70.99   22.80
   6   8  16   24.80   14.80
  -6   8 -16   63.79   20.10
   7   8  16    9.50    9.00
  -7   8 -16    5.40    8.60
   7   8  16   -6.30    5.50
   8   8  16   14.70   10.70
  -8   8 -16    7.10    8.70
   8   8  16    2.70    8.10
   8  -9 -16    5.60    8.50
   8  -9 -16    4.20    7.50
   8   9 -16    9.30   15.50
   8   9 -16   23.60   19.80
   7  -9 -16   20.20   13.20
   7  -9 -16   10.70    9.10
   7   9 -16    9.90   11.40
   7   9 -16   -5.80    8.20
   6  -9 -16   23.40   15.20
   6  -9 -16    4.70    8.70
   6   9 -16   15.40   13.90
   6   9 -16   24.60   19.20
   5  -9 -16   47.00   18.80
   5  -9 -16   38.40   18.20
   5   9 -16    6.20   10.00
   5   9 -16   58.99   22.00
   4  -9 -16   -3.10    6.70
   4  -9 -16   10.80   10.50
   4   9 -16   -7.70    5.30
   4   9 -16   -3.70    6.40
   3  -9 -16    3.50    8.20
   3  -9 -16   11.00   11.90
   3   9 -16    5.50   10.20
   3   9 -16   31.50   17.10
   2  -9 -16    3.80    9.10
   2  -9 -16   15.90   12.40
   2   9 -16   -7.60    4.90
   2   9 -16    3.00    7.10
   1  -9 -16   29.50   16.00
   1  -9 -16   26.20   16.00
   0  -9 -16  138.89   31.80
   0  -9 -16  120.59   50.49
   0  -9  16   64.39   16.50
   0   9 -16  119.69   24.10
   0   9 -16  127.09   30.80
   1  -9  16  237.38   23.80
  -1  -9 -16  139.89   32.50
  -1   9 -16  257.97   35.10
  -2  -9 -16  430.06   49.20
   2  -9  16  442.16   27.50
  -2   9 -16  470.85   31.80
  -2   9 -16  347.07   40.10
  -3  -9 -16  163.18   39.70
   3  -9  16  144.79   12.80
  -3   9 -16  173.88   28.40
  -3   9 -16  137.89   14.00
  -4  -9 -16   30.20   17.60
  -4   9 -16   61.49   20.10
   5   9  16   13.20   11.90
  -5   9 -16   19.50   12.90
   6   9  16    1.50    7.40
   6   9  16   -1.00    6.30
  -6   9 -16    4.90    8.20
   7   9  16    9.40   11.20
  -7   9 -16   31.00   14.80
   7   9  16   16.40   13.40
   7 -10 -16   21.70   14.80
   7 -10 -16   47.80   16.40
   7  10 -16   34.80   19.00
   7  10 -16   -6.50    7.50
   6 -10 -16   -8.40    6.20
   6 -10 -16   -1.30    6.30
   6  10 -16    3.00    9.60
   6  10 -16   -0.40   10.00
   5 -10 -16    9.00   11.50
   5 -10 -16   -5.20    5.20
   5  10 -16   -6.30    7.70
   5  10 -16    1.70   10.40
   4 -10 -16   15.60   15.00
   4 -10 -16   -1.80    6.20
   4  10 -16   17.10   12.40
   4  10 -16   -2.50    6.10
   3 -10 -16  139.89   35.10
   3 -10 -16   91.19   25.20
   3  10 -16  105.49   31.40
   3  10 -16  124.09   28.80
   2 -10 -16  210.48   33.60
   2 -10 -16  306.67   62.29
   2  10 -16  265.77   38.80
   2  10 -16  212.68   29.30
   1 -10 -16   -3.00    7.00
   1 -10 -16   -6.80    7.80
   1  10 -16   17.50   10.60
   1  10 -16   -8.40    5.30
   0 -10  16   34.40   12.50
   0 -10 -16   90.69   26.10
   0  10 -16   65.09   17.20
   0  10 -16   72.49   25.00
   1 -10  16    9.10    6.70
  -1 -10 -16   26.00   16.80
  -1  10 -16  -12.40    8.90
  -2 -10 -16   23.50   19.20
   2 -10  16    2.70    4.50
  -2  10 -16   -5.50    4.50
  -2  10 -16    1.60    5.10
  -3 -10 -16   36.30   21.00
  -3  10 -16   55.99   22.40
   4  10  16   89.09   29.30
  -4  10 -16   54.29   20.50
   5  10  16  141.29   34.40
  -5  10 -16  162.48   31.90
   5  10  16  143.99   35.10
   6  10  16   48.20   19.40
  -6  10 -16   35.00   15.10
   6  10  16    3.20    8.60
   7  10  16   -5.30    6.20
  -7  10 -16   -1.60    5.80
   7  10  16    8.40    9.70
   7 -11 -16   30.60   16.80
   7  11 -16   14.50   14.40
   7  11 -16   36.70   20.80
   6 -11 -16   -2.90    6.40
   6 -11 -16   12.10   13.40
   6  11 -16   -8.80    8.40
   6  11 -16    5.20   10.40
   5 -11 -16   85.69   26.20
   5 -11 -16   43.70   17.80
   5  11 -16   78.89   26.40
   5  11 -16   42.10   21.50
   4 -11 -16   37.00   19.90
   4 -11 -16   24.40   17.50
   4  11 -16    2.80    9.00
   4  11 -16   -4.00    9.50
   3 -11 -16    1.20   10.50
   3 -11 -16   -4.30    8.00
   3  11 -16   -4.00    6.80
   3  11 -16   -1.60    5.80
   2 -11 -16    9.40   11.50
   2 -11 -16    5.60    9.60
   2  11 -16   -2.00    5.50
   2  11 -16   18.90   14.90
   1 -11 -16   28.00   18.10
   1  11 -16    8.30   15.50
   1  11 -16   20.60   13.10
   0 -11 -16    4.40    9.00
   0 -11  16    3.10    6.70
   0  11 -16   -5.90    5.20
   0  11 -16    3.10    6.50
   1 -11  16   63.79   14.40
  -1 -11 -16   56.79   26.20
  -1  11 -16   63.99   18.90
  -1  11 -16   41.60   19.10
  -2 -11 -16   63.49   24.40
   2 -11  16   95.89   11.60
  -2  11 -16  116.69   31.10
  -2  11 -16   53.99   11.90
   2  11  16  100.89   30.30
   3  11  16  111.49   31.60
  -3  11 -16   78.29   40.20
   4  11  16   49.90   21.70
  -4  11 -16   27.70   16.10
   5  11  16   24.90   17.20
  -5  11 -16    9.00    9.40
   5  11  16   27.10   19.80
   6  11  16   -2.50    8.70
   6  11  16    8.90    9.60
  -6  11 -16    4.30    7.30
   6 -12 -16    0.50    8.70
   6  12 -16   -6.10    8.20
   6  12 -16   -4.70   11.50
   5 -12 -16   31.60   17.40
   5  12 -16   43.90   21.50
  -5  12  16   21.50   12.90
   5  12 -16   39.40   38.60
   4 -12 -16   63.79   23.80
   4  12 -16   68.49   27.30
  -4  12  16   96.19   23.80
   4  12 -16   93.89   27.60
   3 -12 -16   54.39   21.30
   3  12 -16   35.00   17.20
  -3  12  16   22.30   13.80
   3  12 -16    1.30    9.40
   2 -12 -16  223.18   44.00
  -2  12  16  285.47   35.80
   2  12 -16  191.08   42.00
   2  12 -16  252.77   32.50
  -1  12  16   54.99   20.10
   1  12 -16   60.29   18.30
   1  12 -16   68.49   23.70
   0  12  16   10.50   11.10
   0  12 -16   28.60   14.90
   0  12 -16   11.00    9.20
   1  12  16   31.20   16.60
  -1  12 -16   25.40    9.90
  -1  12 -16   50.89   20.60
  -2  12 -16   -5.80    5.70
   2  12  16   53.29   22.10
  -2  12 -16   18.70    6.30
  -3  12 -16   22.30   14.30
   3  12  16   17.30   14.70
   4  12  16   85.29   30.00
   4  12  16    9.20    9.70
  -4  12 -16   36.30   18.00
   5  12  16   12.20   12.00
   5  12  16    6.30    8.80
  -5  12 -16   12.80   13.10
  -4  13  16   -0.40    5.50
   4  13 -16    5.80   11.50
   4  13 -16   -7.90    8.10
   3  13 -16   41.70   22.50
   3  13 -16   37.60   16.90
  -3  13  16   71.99   24.00
   2  13 -16    2.40    6.70
   2  13 -16   17.80   19.10
  -2  13  16   12.20   10.50
   1  13 -16   18.20   11.50
  -1  13  16   16.20   13.20
   1  13 -16   15.90   11.90
   0  13 -16   12.40   12.10
   0  13  16    2.70    6.90
   0  13 -16    1.50    6.40
  -1  13 -16   77.09   25.30
   1  13  16   52.39   25.00
  -1  13 -16   34.80   11.40
  -2  13 -16   15.30   14.50
   2  13  16   19.60   16.40
   3  13  16   15.10   14.30
  -3  13 -16   72.89   27.00
  -1  14  16   55.19   22.70
   1  14 -16   49.40   17.10
   1  14 -16   49.20   23.70
   0  14 -16   -1.20    8.00
   0  14  16   -7.60    6.20
  10   0 -17   -1.90    8.70
  10   0 -17    4.20    9.90
   9   0 -17  117.99   33.00
   8   0 -17    6.30    8.00
   8   0 -17   19.10   14.90
   7   0 -17  699.83   57.09
   7   0 -17  776.02   64.59
   6   0 -17    2.20    8.70
   6   0 -17   -7.80    5.90
   5   0 -17    4.50    8.90
   5   0 -17   -9.00    4.20
   4   0 -17    3.60    8.60
   4   0 -17   -2.30    7.20
   3   0 -17    4.90   10.30
   3   0 -17   -2.20    5.80
   2   0 -17    9.70   10.40
   2   0 -17    5.70    9.60
   1   0 -17  343.57   35.90
   1   0 -17  292.87   35.20
   0   0 -17   13.10   10.40
   0   0 -17   -4.10    4.40
  -1   0 -17  419.56   41.50
  -1   0 -17  339.27   35.20
  -2   0 -17   26.70   14.70
  -2   0 -17    3.70    8.80
  -3   0 -17  207.08   27.50
  -3   0 -17  163.68   27.20
  -4   0 -17   -4.10    5.40
  -5   0 -17  529.65   48.50
  -6   0 -17   -3.00    5.10
  -7   0 -17  305.17   37.80
   7   0  17  280.07   30.50
   8   0  17    1.70    7.20
  -8   0 -17    5.40    8.20
  -9   0 -17   18.50   12.80
   9   0  17    7.40    9.70
  10   0  17   -4.30    5.20
  10   0  17    7.00    7.90
  10  -1 -17   76.79   26.90
  10  -1 -17   96.49   33.90
  10   1 -17   30.70   19.10
  10   1 -17  122.49   31.50
   9  -1 -17    8.90    9.70
   9  -1 -17   16.60   14.60
   9   1 -17   32.30   19.90
   9   1 -17    5.60    8.60
   8  -1 -17   36.00   18.60
   8  -1 -17   57.49   18.60
   8   1 -17   65.99   24.70
   8   1 -17   73.09   25.00
   7  -1 -17   -1.10    8.30
   7  -1 -17    0.50    6.60
   7   1 -17   -4.20    6.00
   7   1 -17   19.50   14.20
   6  -1 -17   93.89   32.50
   6  -1 -17  124.49   27.60
   6   1 -17  156.38   34.20
   5  -1 -17   22.40   13.90
   5  -1 -17   12.20   10.70
   5   1 -17   35.70   16.90
   5   1 -17   14.70   12.10
   4  -1 -17  297.77   36.60
   4  -1 -17  318.07   37.00
   4   1 -17  325.97   38.30
   4   1 -17  301.97   36.60
   3  -1 -17    1.40    6.00
   3  -1 -17   -3.70    6.30
   3   1 -17    2.60    8.00
   3   1 -17    1.40    8.90
   2  -1 -17   60.99   19.80
   2  -1 -17   94.39   26.00
   2   1 -17   66.19   21.00
   2   1 -17   79.19   22.30
   1  -1 -17   30.50   15.10
   1  -1 -17   21.20   11.60
   1   1 -17   47.90   17.40
   1   1 -17   21.10   13.20
   0  -1 -17  338.47   36.40
   0  -1 -17  411.46   41.00
   0   1 -17  314.07   36.60
   0   1 -17  421.56   38.30
  -1  -1 -17   14.40    9.90
  -1  -1 -17    0.90    8.40
  -1   1 -17    6.10    8.30
  -1   1 -17   -6.30    4.40
  -2  -1 -17   44.90   18.60
  -2  -1 -17   42.80   16.10
  -2   1 -17   53.69   17.90
  -2   1 -17   68.49   19.60
  -3  -1 -17    2.00    8.20
  -3  -1 -17    8.30   10.20
  -3   1 -17   -4.40    4.40
  -3   1 -17   -4.60    4.40
  -4  -1 -17  270.57   34.80
  -4   1 -17  243.08   32.30
  -5  -1 -17    5.90   10.10
  -5   1 -17   39.50   17.70
  -6  -1 -17   -4.20    6.20
  -6   1 -17    2.60    8.90
   7  -1  17   23.50   12.00
  -7  -1 -17   15.40   12.40
   7   1  17   -3.50    4.80
   8  -1  17   92.09   20.30
  -8  -1 -17   61.69   22.00
  -8   1 -17   59.59   22.20
   8   1  17  105.59   24.60
  -9  -1 -17   16.60   13.20
   9  -1  17   35.70   15.40
   9   1  17   37.70   16.50
  -9   1 -17   12.10   16.80
  10  -1  17   22.60   11.20
  10  -1  17   23.10   13.50
  10   1  17   27.90   14.90
  10   1  17   18.50   12.10
  10  -2 -17   27.20   15.70
  10  -2 -17   56.69   24.00
  10   2 -17   25.00   17.10
  10   2 -17   36.20   21.30
   9  -2 -17   31.10   15.10
   9  -2 -17   59.49   23.00
   9   2 -17  118.49   37.40
   9   2 -17   32.00   17.80
   8  -2 -17   28.20   14.20
   8  -2 -17   10.70   14.70
   8   2 -17   74.59   25.00
   8   2 -17   67.49   24.20
   7  -2 -17   82.69   27.60
   7  -2 -17   73.99   25.90
   7   2 -17   68.49   22.40
   7   2 -17  129.69   33.00
   6  -2 -17    6.80   10.10
   6   2 -17    6.20   11.50
   6   2 -17   -3.40    7.00
   5  -2 -17   19.00   14.10
   5  -2 -17   70.29   22.80
   5   2 -17   90.69   25.80
   5   2 -17   35.30   18.30
   4  -2 -17   88.49   24.80
   4  -2 -17  153.28   32.70
   4   2 -17  184.28   29.10
   4   2 -17  142.49   32.50
   3  -2 -17  561.04   48.20
   3  -2 -17  505.25   46.50
   3   2 -17  537.85   49.60
   3   2 -17  604.44   49.80
   2  -2 -17  199.18   29.30
   2  -2 -17  170.38   27.10
   2   2 -17  169.68   35.50
   2   2 -17  186.58   27.10
   1  -2 -17   97.09   25.90
   1  -2 -17   76.69   20.20
   1   2 -17  137.99   30.20
   1   2 -17   64.59   20.90
   0  -2 -17   45.50   15.70
   0  -2 -17   57.29   20.70
   0   2 -17   68.69   20.90
   0   2 -17  109.79   25.40
  -1  -2 -17  298.17   34.30
  -1  -2 -17  345.77   38.40
  -1   2 -17  278.57   31.00
  -1   2 -17  263.47   33.50
  -2  -2 -17    4.60    9.30
  -2  -2 -17   -1.40    4.10
   2  -2  17    2.80    7.80
  -2   2 -17   -2.00    5.60
  -2   2 -17    3.90    6.40
   3  -2  17   79.79   20.40
  -3  -2 -17   94.09   22.90
  -3  -2 -17   71.79   22.40
  -3   2 -17  118.79   28.90
  -3   2 -17  117.59   24.80
  -4  -2 -17   26.00   14.80
   4  -2  17   39.70   14.10
  -4   2 -17   46.30   17.80
  -5  -2 -17  382.96   42.60
  -5   2 -17  398.56   41.10
  -6  -2 -17  144.69   32.70
  -6   2 -17  159.88   33.00
   7  -2  17  327.97   29.60
  -7  -2 -17  275.57   38.70
  -7   2 -17  276.27   34.80
   7   2  17  263.77   31.90
  -8  -2 -17   -5.10    5.20
   8  -2  17    0.60    5.40
   8   2  17    2.60    5.90
  -8   2 -17   -2.70    4.70
  -9  -2 -17    1.90    7.20
   9  -2  17    1.30    5.50
  -9   2 -17   15.70   11.90
   9   2  17   -3.00    5.70
  10  -3 -17   24.40   19.00
  10  -3 -17   27.10   15.20
  10   3 -17   72.29   36.60
  10   3 -17   24.00   16.10
   9  -3 -17    2.70    6.90
   9  -3 -17    3.70    9.90
   9   3 -17   -5.60    5.60
   9   3 -17   -5.30    7.60
   8  -3 -17   -0.60    6.90
   8  -3 -17   -4.70    5.20
   8   3 -17    2.30    9.50
   8   3 -17   -5.20    6.70
   7  -3 -17   37.60   16.30
   7  -3 -17   63.19   24.60
   7   3 -17   46.90   21.00
   7   3 -17   30.70   18.20
   6  -3 -17  168.78   27.80
   6  -3 -17   85.39   30.40
   6   3 -17   74.49   23.20
   6   3 -17  151.18   34.90
   5  -3 -17   47.50   18.70
   5  -3 -17   22.30   12.70
   5   3 -17   34.60   15.60
   5   3 -17   52.19   21.70
   4  -3 -17   73.29   21.50
   4  -3 -17   53.39   22.00
   4   3 -17   39.70   17.70
   4   3 -17   62.79   21.70
   3  -3 -17   14.60   11.80
   3  -3 -17   -2.40    5.50
   3   3 -17   11.10   11.10
   3   3 -17   39.90   17.10
   2  -3 -17   -1.30    7.20
   2  -3 -17   19.60   11.60
   2   3 -17   -4.00    4.50
   2   3 -17    2.30    9.20
   1  -3 -17   73.09   20.40
   1  -3 -17   79.39   21.70
   1   3 -17   99.59   24.80
   1   3 -17   72.29   19.70
   0  -3 -17   56.49   20.50
   0  -3 -17   44.20   17.10
   0   3 -17   29.20   12.90
   0   3 -17   70.19   22.70
   1  -3  17    2.90    6.10
  -1  -3 -17   -3.20    5.90
  -1  -3 -17   14.90   11.50
  -1   3 -17    4.10    8.00
  -1   3 -17   -0.40    6.10
  -2  -3 -17   -5.50    5.10
  -2  -3 -17    6.00    9.90
   2  -3  17   10.80    8.70
  -2   3 -17    9.50    8.30
  -2   3 -17    9.20   10.60
  -3  -3 -17    2.90    6.70
  -3  -3 -17   -2.10    4.60
   3  -3  17    3.40    5.90
  -3   3 -17    3.80    5.50
  -3   3 -17   -0.40    5.20
   4  -3  17   38.30   13.50
  -4  -3 -17   27.20   15.90
  -4   3 -17   15.20   12.20
  -4   3 -17   35.70   13.40
   5  -3  17   -0.90    5.80
  -5  -3 -17    8.30    9.40
  -5   3 -17    6.70    9.80
   6  -3  17  105.69   23.50
  -6   3 -17  100.59   26.10
   7  -3  17   27.20   12.20
   7  -3  17   15.80   10.50
  -7  -3 -17   20.00   17.10
  -7   3 -17   43.60   19.80
   7   3  17   20.60   12.40
  -8  -3 -17   -0.30    6.50
   8  -3  17    6.40    6.70
  -8   3 -17   15.70   11.50
   8   3  17    2.30    8.00
   9  -3  17    6.20    7.20
   9   3  17    0.90    6.90
  -9   3 -17   15.00   11.90
   9   3  17   10.50    8.80
  10  -4 -17   15.70   13.60
  10  -4 -17   12.30   11.60
  10   4 -17    6.00   10.40
  10   4 -17   23.00   19.80
   9  -4 -17   -1.10    7.70
   9  -4 -17   19.00   17.70
   9   4 -17   11.30   14.00
   9   4 -17   10.10   11.40
   8  -4 -17   56.59   20.00
   8  -4 -17   93.59   25.10
   8   4 -17   46.30   20.70
   8   4 -17   69.89   23.90
   7  -4 -17   13.50   11.20
   7  -4 -17   22.50   14.80
   7   4 -17   21.30   13.50
   7   4 -17   23.50   15.70
   6  -4 -17   11.30   10.70
   6  -4 -17    7.60    9.70
   6   4 -17   38.20   19.70
   6   4 -17   32.80   17.00
   5  -4 -17    6.30    7.30
   5  -4 -17    3.20    6.30
   5   4 -17    1.70    9.60
   5   4 -17    2.90    8.50
   4  -4 -17   14.00   11.60
   4  -4 -17   82.99   23.00
   4   4 -17   59.39   23.00
   4   4 -17   68.09   22.90
   3  -4 -17   16.10   12.20
   3  -4 -17   -6.20    4.50
   3   4 -17    1.80    8.10
   3   4 -17   27.60   16.00
   2  -4 -17  487.35   46.50
   2  -4 -17  591.54   50.49
   2   4 -17  521.45   48.80
   2   4 -17  497.15   44.00
   1  -4 -17  285.07   35.30
   1   4 -17  380.76   41.20
   1   4 -17  377.76   36.60
   0  -4 -17  702.13   54.99
   0  -4 -17  655.93   54.39
   0   4 -17  625.84   46.30
   0   4 -17  671.73   54.29
  -1  -4 -17   73.19   23.10
  -1  -4 -17   88.39   23.50
   1  -4  17   23.80   11.10
  -1   4 -17   42.30   16.20
  -1   4 -17  108.39   24.60
  -2  -4 -17    1.80    8.10
  -2  -4 -17    7.20    9.40
   2  -4  17    3.60    5.70
  -2   4 -17   -3.70    7.50
  -2   4 -17   -3.10    5.10
  -3  -4 -17   -0.40    7.00
   3  -4  17   15.70    8.90
  -3   4 -17   10.80   11.00
  -3   4 -17    2.40    5.60
   4  -4  17  281.57   27.20
  -4  -4 -17  219.18   33.80
  -4   4 -17  289.27   34.70
  -5  -4 -17  394.26   86.79
   5  -4  17  278.27   31.60
  -5   4 -17  252.57   32.60
   6  -4  17  168.48   38.30
  -6  -4 -17  243.48   47.80
  -6   4 -17  166.68   26.90
  -7  -4 -17  110.19   30.80
   7  -4  17   42.40   17.20
   7  -4  17   64.29   16.60
   7   4  17   59.59   20.00
  -7   4 -17   66.69   22.40
  -8  -4 -17   17.90   14.80
   8  -4  17   13.10    7.70
  -8   4 -17   17.40   12.60
   8   4  17   17.80   13.20
   9  -4  17   10.10    8.10
   9   4  17    2.70    7.80
   9   4  17    1.60    7.70
  -9   4 -17    6.20    8.10
  10  -5 -17   24.80   17.20
  10  -5 -17    4.30    9.10
  10   5 -17   13.40   14.50
  10   5 -17   22.70   17.40
   9  -5 -17   20.70   15.70
   9  -5 -17   26.50   14.40
   9   5 -17   35.90   18.20
   9   5 -17   -4.30    8.30
   8  -5 -17    3.40    7.40
   8  -5 -17   -4.10    5.10
   8   5 -17   33.40   21.90
   8   5 -17   10.10   11.00
   7  -5 -17  209.28   33.80
   7  -5 -17  166.68   26.90
   7   5 -17  145.19   36.00
   7   5 -17   87.19   26.60
   6  -5 -17  217.48   34.20
   6  -5 -17  162.68   26.90
   6   5 -17  211.38   41.90
   6   5 -17  163.78   37.30
   5  -5 -17  301.87   35.80
   5  -5 -17  211.98   34.20
   5   5 -17  263.67   37.10
   5   5 -17  240.58   47.90
   4  -5 -17   27.40   15.30
   4  -5 -17   45.30   19.10
   4   5 -17   47.50   20.30
   4   5 -17   40.00   16.20
   3  -5 -17   39.80   17.70
   3  -5 -17   61.39   21.10
   3   5 -17   27.40   13.50
   3   5 -17   87.89   26.70
   2  -5 -17    1.50    6.40
   2  -5 -17    4.90    8.50
   2   5 -17   24.00   13.20
   2   5 -17   27.10   13.90
   1  -5 -17   11.30    9.80
   1  -5 -17   24.30   14.30
   1   5 -17   20.70   13.00
   1   5 -17    6.20    9.00
   0  -5 -17    7.40    8.40
   0  -5 -17   -8.30    4.60
   0   5 -17   -0.30    6.30
   0   5 -17   11.80   11.70
  -1  -5 -17  217.88   31.70
   1  -5  17  202.28   24.20
  -1  -5 -17  196.58   37.90
  -1   5 -17  125.69   28.70
  -1   5 -17  170.08   23.00
  -2  -5 -17    3.30    8.10
   2  -5  17   11.20    7.90
  -2  -5 -17   -8.30    5.00
  -2   5 -17   -4.70    4.20
  -2   5 -17   -1.30    3.40
   3  -5  17   81.09   23.10
  -3  -5 -17   57.19   20.90
  -3   5 -17   69.29   22.30
  -3   5 -17   84.99   23.90
   4  -5  17   -0.50    4.30
  -4  -5 -17    6.90   15.50
  -4   5 -17    0.40    8.00
   5  -5  17   55.19   14.90
  -5  -5 -17   54.39   21.00
  -5   5 -17   81.49   23.30
   6  -5  17   69.59   13.90
   6  -5  17   88.19   17.40
  -6  -5 -17   69.39   25.10
  -6   5 -17   32.70   17.00
   7  -5  17  141.29   15.50
  -7  -5 -17  242.68   37.70
   7  -5  17  137.59   17.40
  -7   5 -17  175.98   26.80
   7   5  17  161.18   33.00
  -8  -5 -17   20.00   14.00
   8  -5  17    3.10    4.90
   8   5  17   12.80   15.10
  -8   5 -17   10.50   10.10
   8   5  17    3.40    8.40
   9   5  17   90.19   28.40
  -9   5 -17   57.29   19.60
   9   5  17   93.19   29.50
   9  -6 -17    6.80   12.20
   9  -6 -17    1.50    6.90
   9   6 -17    3.10   10.90
   9   6 -17   -7.50    7.70
   8  -6 -17   76.09   22.70
   8  -6 -17   47.90   22.30
   8   6 -17   38.10   18.60
   8   6 -17   69.29   27.60
   7  -6 -17   28.40   15.70
   7  -6 -17   -6.60    5.40
   7   6 -17   13.70   15.70
   7   6 -17    1.80   10.20
   6  -6 -17  176.98   28.40
   6  -6 -17  122.19   30.60
   6   6 -17  147.29   36.10
   6   6 -17  155.48   39.40
   5  -6 -17    0.50   10.40
   5  -6 -17   10.90   11.40
   5   6 -17    3.30   10.00
   5   6 -17   -1.90    9.10
   4  -6 -17   -3.70    6.00
   4  -6 -17    1.40    9.00
   4   6 -17    1.90    8.00
   4   6 -17    8.20   12.30
   3  -6 -17    5.40    9.80
   3  -6 -17    3.40    7.70
   3   6 -17   28.80   14.40
   3   6 -17    8.80   10.30
   2  -6 -17  271.87   35.50
   2  -6 -17  322.57   38.00
   2   6 -17  311.17   38.70
   2   6 -17  260.37   31.70
   1  -6 -17    6.70   10.60
   1  -6 -17   -7.30    3.70
   1   6 -17    5.90    9.20
   1   6 -17    2.10    6.50
   0  -6 -17  182.78   29.50
   0  -6 -17  151.98   33.00
   0   6 -17  181.38   24.80
   0   6 -17  147.99   33.40
  -1  -6 -17   22.40   16.30
   1  -6  17   27.70   12.20
  -1  -6 -17   60.59   22.00
  -1   6 -17   67.19   18.30
  -1   6 -17   68.49   22.30
   2  -6  17    8.40   10.40
  -2  -6 -17   11.40   11.50
  -2   6 -17   30.20   12.50
  -2   6 -17    6.00    9.10
   3  -6  17   12.40    8.70
  -3   6 -17   46.40   18.10
  -3   6 -17   18.50    9.80
  -4  -6 -17  158.78   35.70
   4  -6  17  102.99   15.40
  -4   6 -17  120.49   27.20
   5  -6  17   16.40    7.90
  -5  -6 -17    2.10    9.50
  -5   6 -17   15.50   11.70
  -6  -6 -17  184.48   40.30
   6  -6  17  159.78   16.20
   6  -6  17  188.88   15.60
  -6   6 -17  178.18   35.20
   7  -6  17   18.00    5.60
  -7  -6 -17   11.80   12.30
   7   6  17    1.90    8.20
  -7   6 -17   25.20   14.00
   8   6  17    2.70    8.30
   8   6  17    2.90    8.50
  -8   6 -17   17.30   11.50
   9   6  17   -2.50    6.00
   9   6  17    2.10    7.50
  -9   6 -17    0.20    7.10
   9  -7 -17    6.70   10.30
   9  -7 -17   11.00   11.10
   9   7 -17   -5.80    9.20
   9   7 -17    6.50   11.20
   8  -7 -17    2.40    6.70
   8  -7 -17   -0.80    6.50
   8   7 -17   -2.10    7.80
   8   7 -17   -5.60    6.90
   7  -7 -17  161.08   33.00
   7  -7 -17  135.79   32.10
   7   7 -17  109.49   30.90
   7   7 -17   85.39   27.00
   6  -7 -17    3.30    8.10
   6  -7 -17   16.10   11.40
   6   7 -17    1.80   11.40
   6   7 -17  -11.10    6.90
   5  -7 -17  375.96   44.00
   5  -7 -17  293.17   36.00
   5   7 -17  363.36   45.30
   5   7 -17  283.37   38.10
   4  -7 -17   -3.60    4.20
   4  -7 -17    9.50   12.80
   4   7 -17   32.50   14.20
   4   7 -17    2.70    9.20
   3  -7 -17   18.20   15.40
   3  -7 -17   38.70   17.20
   3   7 -17   41.80   19.00
   3   7 -17   67.19   23.30
   2  -7 -17   -2.50    6.80
   2  -7 -17    5.40    9.80
   2   7 -17    3.40    8.40
   2   7 -17   -5.20    8.30
   1  -7 -17  166.18   37.30
   1  -7 -17  161.08   34.20
   1   7 -17  175.88   25.50
   1   7 -17  190.28   31.50
   0  -7 -17   30.20   15.80
   0  -7 -17   29.00   15.00
   0   7 -17   11.40    8.80
   0   7 -17   40.70   18.40
  -1  -7 -17   58.99   22.10
  -1  -7 -17   19.20   13.20
   1  -7  17   48.80   15.00
  -1   7 -17   68.19   23.50
  -1   7 -17   16.00    9.20
  -2  -7 -17  243.08   39.50
   2  -7  17  207.88   22.00
  -2   7 -17  203.08   30.70
  -2   7 -17  215.88   45.50
  -3  -7 -17  118.79   29.30
   3  -7  17   64.99   14.50
  -3   7 -17   79.69   17.10
  -3   7 -17   73.89   24.30
   4  -7  17    7.10    6.00
  -4  -7 -17   13.50   14.40
  -4   7 -17   22.40   14.80
   5  -7  17    9.60    5.10
  -5  -7 -17    1.80    7.60
  -5   7 -17    8.50    9.20
  -6  -7 -17   -5.30    6.30
  -6   7 -17   -1.50    5.00
   7   7  17    7.30    9.20
  -7   7 -17    4.50    9.20
   7   7  17   -7.00    4.90
   8   7  17   18.70   13.60
   8   7  17   -5.10    5.50
  -8   7 -17    5.80    9.30
   8  -8 -17   38.50   18.50
   8  -8 -17   69.79   21.40
   8   8 -17   30.70   19.30
   8   8 -17   50.59   25.10
   7  -8 -17   33.80   16.10
   7  -8 -17    6.90   10.70
   7   8 -17    7.30   10.40
   7   8 -17   20.70   13.90
   6  -8 -17   74.09   22.60
   6  -8 -17   77.59   29.60
   6   8 -17   27.40   18.30
   6   8 -17  110.59   33.50
   5  -8 -17   11.20   13.60
   5  -8 -17   -1.80    5.30
   5   8 -17   18.30   16.10
   5   8 -17   28.00   16.00
   4  -8 -17    5.70   11.00
   4  -8 -17   -4.10    5.70
   4   8 -17    2.00    7.20
   4   8 -17   -3.10    7.80
   3  -8 -17   -4.80    4.70
   3  -8 -17    4.70    7.50
   3   8 -17   -2.20    7.00
   3   8 -17    4.20    9.20
   2  -8 -17  602.34   53.89
   2  -8 -17  574.24   53.69
   2   8 -17  508.65   51.79
   2   8 -17  503.65   44.50
   1  -8 -17   59.99   20.40
   1  -8 -17   34.20   17.00
   1   8 -17    4.70    7.80
   1   8 -17   56.59   38.60
   0  -8 -17  218.28   33.90
   0  -8 -17  295.87   68.19
   0   8 -17  281.47   29.70
   0   8 -17  300.97   39.10
   1  -8  17    0.40    5.40
  -1  -8 -17   15.40   13.80
  -1   8 -17    4.60    7.10
  -1   8 -17   -7.70    4.90
  -2  -8 -17   -1.30    8.20
   2  -8  17    1.50    4.60
  -2   8 -17   22.00   15.00
  -2   8 -17   10.10    6.40
   3  -8  17   59.39   12.60
  -3  -8 -17   33.10   17.70
  -3   8 -17   31.70   14.70
  -3   8 -17   62.69   13.40
   4  -8  17  401.16   22.10
  -4  -8 -17  317.77   44.00
  -4   8 -17  391.86   41.00
  -5  -8 -17    7.30   10.30
  -5   8 -17   20.20   13.80
  -6  -8 -17  344.77   47.30
   6   8  17  239.08   35.50
  -6   8 -17  219.18   30.50
   6   8  17  362.86   43.70
   7   8  17   20.90   17.60
   7   8  17   12.40   11.30
  -7   8 -17   14.10   11.10
  -8   8 -17   46.20   16.20
   8   8  17   29.80   15.90
   8   8  17   17.20   20.50
   8  -9 -17   -5.50    6.10
   8  -9 -17   -6.70    6.40
   8   9 -17   21.60   16.70
   8   9 -17   10.60   16.60
   7  -9 -17   24.80   15.90
   7  -9 -17    6.20    9.80
   7   9 -17   46.20   24.60
   7   9 -17   23.30   16.60
   6  -9 -17    2.40    7.90
   6  -9 -17    5.60    9.00
   6   9 -17   10.00   14.90
   6   9 -17    7.90   13.00
   5  -9 -17   73.49   23.50
   5  -9 -17   89.39   25.20
   5   9 -17   52.89   20.20
   5   9 -17   51.79   22.60
   4  -9 -17    4.00    9.10
   4  -9 -17    3.40    8.60
   4   9 -17   -2.90    6.40
   4   9 -17    2.20    8.90
   3  -9 -17   -5.30    4.40
   3  -9 -17   19.50   13.50
   3   9 -17   -3.80    7.70
   3   9 -17   -1.10    8.70
   2  -9 -17   -3.50    4.50
   2  -9 -17   -4.10    5.40
   2   9 -17   -3.60    6.20
   2   9 -17   13.50   10.60
   1  -9 -17   16.90   12.90
   1   9 -17   29.50   14.60
   1   9 -17    0.10    7.90
   0  -9 -17   12.80   12.70
   0  -9 -17   29.00   17.40
   0   9 -17   41.40   14.40
   0   9 -17   35.20   18.70
   1  -9  17   51.09   14.00
  -1  -9 -17  127.79   34.40
  -1   9 -17  100.79   21.30
   2  -9  17   47.00   12.20
  -2  -9 -17   61.99   23.10
  -2   9 -17   56.09   14.90
  -2   9 -17   52.89   19.70
  -3  -9 -17   64.39   23.60
   3  -9  17   38.80    9.70
  -3   9 -17   47.70   11.60
  -3   9 -17   40.50   18.40
  -4  -9 -17   -4.50    6.30
  -4   9 -17   19.70   14.00
  -5  -9 -17   -5.70    6.00
   5   9  17   -7.60    6.00
  -5   9 -17    9.10    9.50
  -6   9 -17    5.80    7.90
   6   9  17   14.20   12.10
   6   9  17   11.20   13.30
   7   9  17   -4.00    6.80
  -7   9 -17   16.80   11.60
   7 -10 -17   48.30   22.70
   7 -10 -17   47.70   17.10
   7  10 -17   50.09   25.70
   7  10 -17   65.49   25.50
   6 -10 -17    5.90   13.30
   6 -10 -17    6.90   11.30
   6  10 -17   10.60   13.70
   6  10 -17    2.90   11.60
   5 -10 -17   -3.70    5.30
   5 -10 -17    8.00   13.50
   5  10 -17   16.10   13.10
   5  10 -17   -4.00    8.50
   4 -10 -17   19.90   14.20
   4  10 -17   49.60   24.70
   4  10 -17   28.90   14.00
   3 -10 -17   65.79   23.30
   3 -10 -17   39.10   16.00
   3  10 -17   60.69   20.30
   3  10 -17   41.50   23.70
   2 -10 -17   48.50   22.40
   2 -10 -17  100.89   29.60
   2  10 -17   36.60   20.90
   2  10 -17  108.29   28.10
   1 -10 -17  160.98   37.80
   1 -10 -17  111.89   32.70
   1  10 -17   77.49   20.80
   1  10 -17   87.69   28.90
   0 -10 -17   71.99   27.10
   0  10 -17   32.80   18.50
   0  10 -17   44.60   15.50
  -1 -10 -17   -6.80    5.70
   1 -10  17    1.90    6.00
  -1  10 -17    3.00    5.40
  -1  10 -17   11.80   13.00
  -2 -10 -17   17.00   14.20
   2 -10  17   10.10    5.80
  -2  10 -17   -0.80    3.80
  -2  10 -17   -3.90    7.60
   3 -10  17   16.00    6.20
  -3 -10 -17   21.70   14.40
  -3  10 -17   13.60   21.00
  -4 -10 -17  157.78   41.00
  -4  10 -17  130.99   31.10
   4  10  17   97.09   28.80
  -5  10 -17   69.79   22.50
   5  10  17   58.29   23.20
  -6  10 -17  112.49   27.10
   6  10  17  108.39   45.50
   6  10  17  103.69   45.30
   6 -11 -17  146.79   36.80
   6 -11 -17  181.98   41.40
   6  11 -17   86.39   28.30
   6  11 -17   77.29   28.30
   5 -11 -17   -1.40    7.60
   5 -11 -17    3.40    8.90
   5  11 -17   -3.20    8.30
   5  11 -17   31.70   20.00
   4 -11 -17   13.60   12.60
   4 -11 -17   24.80   16.00
   4  11 -17   18.90   14.70
   4  11 -17   21.40   17.50
   3 -11 -17   -1.40    7.60
   3 -11 -17    9.70   13.40
   3  11 -17   -0.20    6.80
   3  11 -17    7.40   12.50
   2 -11 -17   14.10   12.30
   2 -11 -17    4.30    9.90
   2  11 -17    5.10   10.30
   2  11 -17    3.40    8.00
   1 -11 -17   22.80   16.70
   1  11 -17   20.90   13.80
   1  11 -17   20.90   17.10
   0 -11 -17   33.60   23.00
   0  11 -17   31.40   13.40
   0  11 -17    3.90    9.80
  -1 -11 -17   -5.20    5.80
  -1  11 -17   36.10   19.80
  -1  11 -17   22.90   10.80
  -2 -11 -17   71.39   24.10
  -2  11 -17   67.49   13.80
  -2  11 -17   51.49   20.50
   3  11  17   -0.50    6.10
  -3  11 -17    0.90    8.90
  -4  11 -17    9.30    9.70
   4  11  17   18.10   13.30
   5  11  17   -6.50    7.20
   5  11  17   -5.00    6.10
  -5  11 -17   -2.50   10.90
   5 -12 -17   14.80   11.10
   5  12 -17   -1.10    8.90
   5  12 -17    7.30   13.40
  -5  12  17   12.20   10.70
   4 -12 -17   13.60   12.40
   4 -12 -17   46.00   22.80
   4  12 -17   45.10   21.90
   4  12 -17   75.49   43.80
   3 -12 -17   88.09   27.50
   3  12 -17   26.40   15.50
   3  12 -17   49.70   25.80
   2 -12 -17   29.20   18.90
   2  12 -17   12.10   14.20
   2  12 -17   -1.00    6.60
   1 -12 -17  466.15   52.19
   1  12 -17  335.37   34.90
   1  12 -17  267.87   41.00
   0 -12 -17   41.40   19.80
   0  12 -17   19.40    9.50
   0  12 -17    1.20    9.50
   0  12  17   55.89   24.20
  -1  12 -17   18.00   15.20
   1  12  17   -2.10    6.90
   2  12  17   -5.80    5.50
  -2  12 -17    3.90    9.70
   3  12  17    5.30    9.30
  -3  12 -17   13.50   15.00
   4  12  17   25.10   16.00
  -4  12 -17   12.80   12.30
   3  13 -17   15.50   13.50
   3  13 -17    7.20   12.00
  -3  13  17   -0.30    7.20
   2  13 -17   -1.50    7.20
  -2  13  17    5.00   11.30
   1  13 -17   39.10   19.70
   1  13 -17   21.20   11.30
  -1  13  17   49.20   19.50
   0  13 -17   26.20   20.00
   0  13 -17   15.80    9.50
   0  13  17   15.30   15.90
   1  13  17   -0.90    7.30
  -1  13 -17   -5.80    6.80
   2  13  17   75.39   32.20
  -2  13 -17   70.09   24.60
  10   0 -18   20.80   20.00
  10   0 -18   63.79   22.30
   9   0 -18   11.90   12.40
   9   0 -18    0.60    7.50
   8   0 -18    7.70   12.00
   8   0 -18    2.60   13.20
   7   0 -18   -6.00    4.60
   7   0 -18    6.60   11.40
   6   0 -18  128.79   30.90
   6   0 -18   99.59   27.60
   5   0 -18   -5.40    4.80
   5   0 -18   -1.10    5.90
   4   0 -18   25.70   15.80
   4   0 -18   44.40   18.90
   3   0 -18   -5.50    4.90
   3   0 -18    7.50   11.70
   2   0 -18   14.20   11.00
   2   0 -18    3.50    8.40
   1   0 -18    3.00    6.50
   1   0 -18   -4.80    4.10
   0   0 -18  385.46   40.80
   0   0 -18  318.57   35.80
  -1   0 -18   -0.20    6.70
  -1   0 -18   21.40   11.50
  -2   0 -18  133.09   32.20
  -2   0 -18  136.99   29.50
  -3   0 -18    0.30    6.40
  -3   0 -18   -1.60    6.00
  -4   0 -18  146.29   32.70
  -5   0 -18    4.60    9.30
  -6   0 -18  151.98   34.20
   7   0  18    1.50    5.90
   8   0  18    2.30    7.50
  -8   0 -18   28.40   14.90
  -9   0 -18    5.00    8.20
   9   0  18   10.70    8.20
  10  -1 -18   28.50   20.30
  10  -1 -18   25.10   16.10
  10   1 -18    8.90   11.20
  10   1 -18   -8.20   18.50
   9  -1 -18  308.47   38.50
   9  -1 -18  265.17   41.90
   9   1 -18  247.58   40.80
   9   1 -18  175.58   38.20
   8  -1 -18    8.20   11.00
   8  -1 -18   -3.30    6.30
   8   1 -18   -1.40    7.70
   8   1 -18   -5.40    5.90
   7  -1 -18   -3.70    7.20
   7  -1 -18    5.70    9.20
   7   1 -18    4.90    9.20
   6  -1 -18   29.20   17.00
   6  -1 -18    6.40    9.00
   6   1 -18    9.80   10.90
   6   1 -18   -1.80    7.20
   5  -1 -18  217.78   32.60
   5  -1 -18  261.87   36.80
   5   1 -18  298.07   37.90
   5   1 -18  311.67   39.40
   4  -1 -18  129.89   29.80
   4  -1 -18  192.58   31.10
   4   1 -18  177.28   35.10
   4   1 -18  222.78   43.10
   3  -1 -18  553.94   49.60
   3  -1 -18  645.14   53.49
   3   1 -18  500.45   48.80
   3   1 -18  538.75   48.90
   2  -1 -18   -2.00    6.30
   2  -1 -18    3.90    9.50
   2   1 -18    9.60   10.60
   2   1 -18   -1.80    6.20
   1  -1 -18   35.00   17.10
   1  -1 -18   13.50   12.50
   1   1 -18   46.40   18.40
   1   1 -18   32.50   16.30
   0  -1 -18   47.10   16.50
   0  -1 -18   33.90   15.20
   0   1 -18   53.19   18.60
   0   1 -18   70.89   22.20
  -1  -1 -18  294.57   34.20
  -1  -1 -18  224.18   32.00
  -1   1 -18  336.97   38.10
  -1   1 -18  213.98   29.00
  -2  -1 -18    3.80    8.90
  -2  -1 -18   15.10   11.50
  -2   1 -18    9.70    9.90
  -2   1 -18    9.70   11.60
  -3  -1 -18  655.13   51.39
  -3  -1 -18  629.74   54.09
  -3   1 -18  660.23   54.59
  -3   1 -18  659.13   49.60
  -4  -1 -18   12.50   10.60
  -4   1 -18   15.40   13.20
  -5  -1 -18  137.09   32.10
  -5   1 -18   88.49   26.00
  -6  -1 -18   21.90   15.80
  -6   1 -18   -2.30    5.70
   7  -1  18   77.49   20.60
  -7  -1 -18   48.10   20.60
  -7   1 -18   52.79   18.90
   7   1  18   32.00   14.70
  -8  -1 -18   30.60   16.20
   8  -1  18   66.59   18.60
   8   1  18   33.60   15.60
  -8   1 -18   47.80   19.60
   9  -1  18  114.09   24.70
  -9  -1 -18   77.89   27.40
  -9   1 -18  101.29   28.50
   9   1  18  126.59   27.90
  10  -2 -18   46.50   24.10
  10  -2 -18   40.70   18.10
  10   2 -18   28.50   18.90
  10   2 -18   -8.00    8.20
   9  -2 -18    6.10   14.10
   9  -2 -18    0.80   11.50
   9   2 -18    7.50   13.20
   9   2 -18   31.90   21.10
   8  -2 -18  321.27   44.50
   8  -2 -18  309.47   38.10
   8   2 -18  246.98   39.70
   8   2 -18  304.07   41.10
   7  -2 -18   17.60   15.10
   7  -2 -18   19.80   13.80
   7   2 -18   39.60   18.90
   7   2 -18   36.80   21.30
   6  -2 -18  189.98   36.40
   6  -2 -18   94.79   27.00
   6   2 -18   83.79   25.70
   6   2 -18  125.49   34.90
   5  -2 -18    5.70   11.90
   5  -2 -18   30.40   16.70
   5   2 -18   20.60   15.70
   5   2 -18   -0.70    6.90
   4  -2 -18    7.80   11.10
   4  -2 -18   25.80   15.60
   4   2 -18    7.20   11.10
   4   2 -18   18.30   12.70
   3  -2 -18   -1.00    6.70
   3  -2 -18   -7.30    6.10
   3   2 -18   -4.50    5.70
   3   2 -18   19.20   12.80
   2  -2 -18  130.79   32.00
   2  -2 -18   62.29   19.10
   2   2 -18   45.40   21.10
   2   2 -18  102.89   27.90
   1  -2 -18  146.39   32.80
   1  -2 -18  168.68   27.90
   1   2 -18  171.68   26.20
   1   2 -18  187.18   37.90
   0  -2 -18   88.19   23.40
   0  -2 -18   99.19   26.40
   0   2 -18   77.89   23.50
   0   2 -18   96.89   25.70
  -1  -2 -18  142.99   30.20
  -1  -2 -18  187.98   36.60
  -1   2 -18  178.98   28.90
  -1   2 -18  142.79   23.30
  -2  -2 -18  149.59   34.40
  -2  -2 -18  161.88   26.80
  -2   2 -18  163.48   24.60
  -2   2 -18  158.98   33.40
  -3  -2 -18   40.30   16.70
  -3  -2 -18   46.90   19.10
  -3   2 -18   42.50   17.10
  -3   2 -18   20.30   11.60
  -4  -2 -18   12.40   11.90
  -4   2 -18   -1.10    5.40
  -5  -2 -18   41.70   19.40
  -5   2 -18   11.10   11.90
  -6  -2 -18  208.28   41.50
  -6   2 -18  123.79   29.20
  -7  -2 -18   53.89   22.60
   7  -2  18   47.10   15.10
   7   2  18   39.20   16.50
  -7   2 -18   57.09   21.70
  -8  -2 -18  165.18   37.80
   8  -2  18  134.79   25.30
   8   2  18   87.29   22.50
  -8   2 -18   95.79   28.20
   9  -2  18    4.00    5.90
  -9  -2 -18   19.50   17.60
   9   2  18   -3.00    6.50
  -9   2 -18   -2.90    5.50
  10  -3 -18   49.30   28.90
  10  -3 -18   40.00   23.40
  10   3 -18   31.40   18.60
  10   3 -18   70.59   27.70
   9  -3 -18   15.10   11.90
   9  -3 -18   67.49   27.60
   9   3 -18   47.90   21.80
   9   3 -18  115.19   35.80
   8  -3 -18   -4.00    5.40
   8  -3 -18    1.20    7.10
   8   3 -18   12.20   12.30
   8   3 -18   -2.30    7.20
   7  -3 -18   50.69   18.70
   7  -3 -18   39.20   18.90
   7   3 -18   36.80   20.50
   7   3 -18   16.80   13.50
   6  -3 -18   52.99   21.60
   6  -3 -18   30.70   17.20
   6   3 -18    9.50   10.70
   6   3 -18   21.60   16.40
   5  -3 -18  148.99   41.40
   5  -3 -18  277.97   35.40
   5   3 -18  417.96   91.59
   5   3 -18  219.88   34.00
   4  -3 -18  240.28   34.20
   4  -3 -18  209.68   31.40
   4   3 -18  242.98   35.40
   4   3 -18  211.78   32.40
   3  -3 -18  269.57   35.70
   3  -3 -18  287.87   35.80
   3   3 -18  228.18   34.30
   3   3 -18  304.37   36.30
   2  -3 -18   21.40   15.50
   2  -3 -18   27.60   13.80
   2   3 -18   34.70   17.20
   2   3 -18    7.60    9.10
   1  -3 -18   -4.70    3.10
   1  -3 -18   -0.20    5.60
   1   3 -18   -8.80    3.60
   1   3 -18   -6.40    5.10
   0  -3 -18   44.40   18.00
   0  -3 -18   22.10   12.10
   0   3 -18   42.80   16.00
   0   3 -18    6.60    9.20
  -1  -3 -18  233.48   33.20
  -1  -3 -18  274.87   35.20
  -1   3 -18  290.77   32.30
  -1   3 -18  310.27   37.30
  -2  -3 -18   14.20   11.40
  -2  -3 -18   45.40   17.70
  -2   3 -18   60.99   20.10
  -2   3 -18   53.99   17.70
  -3  -3 -18  356.16   41.60
  -3  -3 -18  288.97   35.50
  -3   3 -18  363.66   39.80
  -3   3 -18  332.97   33.00
  -4  -3 -18   79.39   23.60
  -4   3 -18   89.49   21.20
  -4   3 -18   58.49   18.90
  -5  -3 -18   40.50   18.80
  -5   3 -18   61.99   21.80
  -6  -3 -18   16.30   13.50
  -6   3 -18    3.80   10.20
  -7  -3 -18   86.99   26.40
   7  -3  18  109.49   20.80
   7   3  18  150.78   35.30
  -7   3 -18  134.59   31.30
   8  -3  18    2.80    5.50
  -8  -3 -18   -2.40    5.70
  -8   3 -18   15.00   11.10
   8   3  18   -8.20    5.60
   9  -3  18   17.60   10.50
  -9  -3 -18    8.00   12.60
   9   3  18    6.50    9.70
   9   3  18    5.00    9.30
  -9   3 -18   12.80   13.80
   9  -4 -18   34.90   18.50
   9  -4 -18   35.30   16.50
   9   4 -18   47.50   21.80
   9   4 -18   59.89   23.40
   8  -4 -18   -3.10   10.00
   8  -4 -18   15.30   11.50
   8   4 -18   30.90   17.40
   8   4 -18   15.60   15.90
   7  -4 -18   -6.40    5.00
   7  -4 -18   -6.10    4.70
   7   4 -18   -9.80    6.40
   7   4 -18    8.80   11.70
   6  -4 -18   11.10   11.20
   6  -4 -18    4.00    8.40
   6   4 -18    4.40   12.40
   6   4 -18   13.70   11.30
   5  -4 -18   22.90   14.40
   5  -4 -18   -2.70    5.20
   5   4 -18   -0.70    9.20
   5   4 -18   -2.60    5.60
   4  -4 -18   35.80   17.10
   4  -4 -18   14.50   13.70
   4   4 -18   16.80   14.00
   4   4 -18   17.80   12.80
   3  -4 -18   38.70   17.70
   3  -4 -18    9.80   11.20
   3   4 -18   23.10   13.50
   3   4 -18   29.50   16.00
   2  -4 -18   76.79   22.00
   2  -4 -18   87.39   25.60
   2   4 -18  119.89   28.80
   2   4 -18   70.99   24.40
   1  -4 -18   56.19   21.40
   1  -4 -18   48.80   19.60
   1   4 -18   38.10   16.40
   1   4 -18   74.79   25.80
   0  -4 -18  132.49   33.50
   0  -4 -18  114.09   27.30
   0   4 -18  165.08   34.90
   0   4 -18   88.99   24.00
  -1  -4 -18  273.67   35.60
  -1  -4 -18  246.78   34.10
  -1   4 -18  274.17   30.40
  -1   4 -18  225.08   32.10
   2  -4  18  182.08   24.40
  -2  -4 -18  151.68   30.90
  -2  -4 -18  112.59   28.50
  -2   4 -18  192.68   24.80
  -2   4 -18  182.98   36.60
  -3  -4 -18   -2.80    5.30
   3  -4  18   19.50   10.70
  -3   4 -18   16.00   11.40
  -3   4 -18   13.40    9.10
  -4  -4 -18   -2.80    8.10
   4  -4  18    5.90    7.10
  -4   4 -18    1.10    5.60
  -4   4 -18   -5.10    3.60
  -5  -4 -18    6.60    9.70
   5  -4  18    4.80    6.20
  -5   4 -18    5.50    7.60
   6  -4  18   13.60   10.10
  -6  -4 -18   -1.10    5.40
  -6   4 -18    2.00    6.10
   7  -4  18   98.69   15.80
  -7  -4 -18  199.88   41.60
  -7   4 -18  132.19   29.10
   7   4  18  100.59   26.30
   8  -4  18   85.39   17.50
  -8  -4 -18  107.79   33.40
  -8   4 -18   84.79   24.20
   8   4  18   47.20   19.20
   9  -4  18   38.70   13.80
   9   4  18    3.00    8.70
   9   4  18   17.10   13.80
  -9   4 -18   15.60   11.50
   9  -5 -18   48.60   18.60
   9  -5 -18   34.10   19.70
   9   5 -18   45.10   21.30
   9   5 -18    9.40   16.40
   8  -5 -18   20.90   13.50
   8  -5 -18   -1.40    6.90
   8   5 -18   10.10   12.00
   8   5 -18    6.60   12.70
   7  -5 -18    4.70   12.60
   7  -5 -18   -2.10    7.50
   7   5 -18   -2.60    8.60
   7   5 -18   -3.80    6.70
   6  -5 -18  118.89   32.90
   6  -5 -18  203.28   30.70
   6   5 -18  227.48   36.40
   6   5 -18  170.18   35.80
   5  -5 -18  142.89   37.10
   5  -5 -18   38.90   16.90
   5   5 -18   40.70   19.90
   5   5 -18   66.89   22.10
   4  -5 -18  782.72   76.99
   4  -5 -18  644.54   54.29
   4   5 -18  642.44   54.99
   4   5 -18  630.84   57.89
   3  -5 -18    3.70    7.70
   3  -5 -18   30.30   16.00
   3   5 -18    6.30   10.80
   3   5 -18   12.80   12.30
   2  -5 -18   28.00   16.40
   2  -5 -18   -2.30    6.20
   2   5 -18   49.60   21.60
   2   5 -18    6.80    9.10
   1  -5 -18   -6.70    3.80
   1  -5 -18    4.60    8.00
   1   5 -18   -1.90    6.00
   1   5 -18  -10.00    4.40
   0  -5 -18   70.99   25.40
   0  -5 -18   33.60   16.80
   0   5 -18   63.69   22.00
   0   5 -18   96.59   24.80
  -1  -5 -18   -7.20    4.90
  -1  -5 -18    1.20    8.10
  -1   5 -18   -0.20    6.30
  -1   5 -18    2.00    7.00
   2  -5  18  485.15   37.60
  -2  -5 -18  520.35   51.39
  -2  -5 -18  507.45   48.80
  -2   5 -18  481.05   38.60
  -2   5 -18  375.46   41.80
  -3  -5 -18  141.29   33.40
   3  -5  18  155.08   21.20
  -3   5 -18  148.59   32.10
  -3   5 -18  156.48   21.60
   4  -5  18   62.29   15.70
  -4  -5 -18   34.50   17.40
  -4   5 -18   72.89   22.00
  -5  -5 -18   48.10   19.30
   5  -5  18   52.39   21.80
  -5   5 -18   62.79   22.50
   6  -5  18    1.20    5.30
  -6  -5 -18   -0.10    6.40
   6  -5  18    8.90    6.30
  -6   5 -18   23.50   14.10
  -7  -5 -18   -5.60    5.60
   7  -5  18    7.70    5.70
  -7   5 -18    2.50    7.40
   7   5  18   -1.50    7.70
   8  -5  18   16.30    7.00
  -8  -5 -18   38.00   23.10
   8   5  18   22.00   14.60
  -8   5 -18   42.00   16.80
   9  -6 -18   -7.70    7.60
   9  -6 -18   -4.50    6.20
   9   6 -18    0.20   10.10
   9   6 -18    4.30    8.90
   8  -6 -18   15.40   11.30
   8  -6 -18    7.70    9.80
   8   6 -18   22.60   18.40
   8   6 -18   34.20   20.60
   7  -6 -18   71.39   23.90
   7  -6 -18   82.09   24.90
   7   6 -18   60.89   23.50
   7   6 -18   73.59   24.90
   6  -6 -18   18.60   14.30
   6  -6 -18   -4.10    7.50
   6   6 -18    4.00    8.20
   6   6 -18   11.20   13.30
   5  -6 -18    9.50   11.90
   5  -6 -18  -10.80    4.90
   5   6 -18   15.70   16.30
   5   6 -18    4.20   12.10
   4  -6 -18   -4.50    5.20
   4  -6 -18   -3.50    5.30
   4   6 -18   31.90   15.80
   4   6 -18   -2.40    6.50
   3  -6 -18  160.58   34.10
   3  -6 -18  141.19   34.60
   3   6 -18  120.69   30.30
   3   6 -18  188.18   37.40
   2  -6 -18   44.80   20.00
   2  -6 -18   68.99   24.40
   2   6 -18   68.29   22.60
   2   6 -18   95.09   38.10
   1  -6 -18  271.17   36.70
   1  -6 -18  248.88   35.20
   1   6 -18  170.98   26.00
   1   6 -18  171.28   34.20
   0  -6 -18   25.60   15.60
   0  -6 -18   33.80   17.50
   0   6 -18   54.39   21.30
   0   6 -18   53.19   17.10
  -1  -6 -18   79.19   29.40
  -1  -6 -18  132.29   34.00
   1  -6  18   30.10   16.40
  -1   6 -18  102.79   23.10
  -1   6 -18   68.39   25.10
  -2  -6 -18  164.48   36.20
   2  -6  18  118.49   18.80
  -2   6 -18  136.09   20.80
  -2   6 -18   77.39   24.40
   3  -6  18   42.00   14.80
  -3  -6 -18   29.40   17.70
  -3   6 -18   73.89   23.20
  -3   6 -18   39.10   13.60
  -4  -6 -18   -7.20    5.30
   4  -6  18    3.60    6.50
  -4   6 -18    9.40    8.70
  -5  -6 -18   12.00   11.20
   5  -6  18   42.20   12.40
  -5   6 -18   64.89   22.90
   6  -6  18    4.60    6.10
  -6  -6 -18    6.00    8.10
   6  -6  18    1.10    3.90
  -6   6 -18    4.80    9.80
   7  -6  18  172.98   14.00
  -7  -6 -18  102.29   31.50
   7   6  18  110.39   32.00
  -7   6 -18  231.38   31.60
  -8   6 -18    1.60    6.80
   8   6  18   28.00   15.90
   8   6  18   11.50   11.10
   8  -7 -18    6.00    9.50
   8  -7 -18    3.30    8.80
   8   7 -18   25.30   18.40
   8   7 -18   -0.10    9.80
   7  -7 -18   20.80   17.40
   7  -7 -18    2.00    6.60
   7   7 -18    5.40    9.90
   7   7 -18   24.50   18.00
   6  -7 -18  132.79   33.00
   6  -7 -18  201.38   30.70
   6   7 -18  173.48   37.00
   6   7 -18  184.18   41.10
   5  -7 -18   41.20   19.50
   5  -7 -18   36.40   17.90
   5   7 -18   20.00   15.70
   5   7 -18   12.50   12.40
   4  -7 -18  319.17   39.40
   4  -7 -18  279.57   39.00
   4   7 -18  359.66   58.79
   4   7 -18  288.77   41.20
   3  -7 -18    2.80   10.30
   3  -7 -18   20.80   15.70
   3   7 -18   21.30   16.60
   3   7 -18    9.10    8.50
   2  -7 -18  341.37   42.40
   2  -7 -18  313.57   39.80
   2   7 -18  387.16   39.70
   2   7 -18  380.26   44.90
   1  -7 -18   -1.80    7.20
   1  -7 -18    8.30    9.30
   1   7 -18   -3.90    6.50
   1   7 -18   -3.60    5.90
   0  -7 -18  155.58   33.60
   0  -7 -18  200.88   63.79
   0   7 -18  173.48   25.30
   0   7 -18  239.58   35.30
   1  -7  18   17.30   12.10
  -1  -7 -18    5.90    7.00
  -1  -7 -18    9.70   13.40
  -1   7 -18   30.00   13.30
  -1   7 -18   33.70   16.80
   2  -7  18  143.89   19.70
  -2  -7 -18  170.18   35.80
  -2   7 -18  184.08   23.10
  -2   7 -18  192.78   30.60
   3  -7  18   -2.50    5.20
  -3  -7 -18   11.00   10.90
  -3   7 -18   -4.00    5.00
  -3   7 -18   -2.00    3.60
  -4  -7 -18    9.70   11.80
   4  -7  18   51.39   12.90
  -4   7 -18   71.29   22.80
  -5  -7 -18    4.30   11.20
   5  -7  18    4.60    5.60
  -5   7 -18   -0.40    6.70
   6  -7  18    4.70    3.60
  -6  -7 -18   -4.40    5.70
  -6   7 -18   12.50   10.40
  -7  -7 -18   -3.90    6.60
   7   7  18   -2.10    7.80
  -7   7 -18   20.70   14.00
   7   7  18   -4.60    5.20
  -8   7 -18  212.48   30.10
   8   7  18  190.68   45.90
   8  -8 -18   31.70   18.40
   8  -8 -18   92.89   25.60
   8   8 -18   48.30   30.70
   7  -8 -18   61.09   25.00
   7  -8 -18   93.19   25.40
   7   8 -18   47.60   25.00
   7   8 -18   27.20   17.90
   6  -8 -18   -1.60    8.00
   6  -8 -18    4.50    8.40
   6   8 -18   -0.40    9.00
   6   8 -18    9.20   11.90
   5  -8 -18   18.40   12.90
   5  -8 -18   23.70   15.10
   5   8 -18    7.10   12.70
   5   8 -18   14.30   12.60
   4  -8 -18    7.30   11.60
   4  -8 -18   31.00   18.60
   4   8 -18   12.90   12.70
   4   8 -18   42.60   20.80
   3  -8 -18   -2.80    6.30
   3  -8 -18   -6.60    5.20
   3   8 -18    7.00   10.90
   3   8 -18    8.70    9.40
   2  -8 -18   36.50   16.70
   2   8 -18   34.90   19.20
   2   8 -18   64.19   20.60
   1  -8 -18  151.68   34.50
   1  -8 -18  179.08   37.10
   1   8 -18  128.19   34.00
   1   8 -18  160.38   25.30
   0  -8 -18   -9.60    5.70
   0  -8 -18    6.40    8.60
   0   8 -18   -3.40    6.00
   0   8 -18    0.40    4.90
  -1  -8 -18   22.50   14.10
   1  -8  18   74.19   19.20
  -1   8 -18   71.79   18.80
  -1   8 -18   40.30   28.00
   2  -8  18   13.20   12.00
  -2  -8 -18    4.90    8.60
  -2   8 -18    3.60    6.20
  -2   8 -18    5.70    8.60
   3  -8  18    4.20    5.70
  -3  -8 -18   14.50   13.50
  -3   8 -18   10.40   12.00
  -3   8 -18   13.00    7.60
   4  -8  18   11.70    5.90
  -4  -8 -18   22.80   18.10
  -4   8 -18   33.60   17.50
  -5  -8 -18  118.39   31.50
  -5   8 -18  138.19   31.80
  -6  -8 -18   36.60   20.80
  -6   8 -18    8.50    8.60
   6   8  18   29.90   17.80
   7   8  18   18.50   14.30
   7   8  18   54.19   23.90
  -7   8 -18   22.50   14.60
   7  -9 -18   14.60   11.40
   7  -9 -18    0.30    7.30
   7   9 -18   38.80   24.40
   6  -9 -18   69.69   23.20
   6  -9 -18   77.39   26.90
   6   9 -18   50.09   25.20
   6   9 -18   80.49   26.60
   5  -9 -18   25.70   15.80
   5   9 -18   79.29   27.00
   5   9 -18   88.69   30.30
   4  -9 -18  154.28   33.90
   4  -9 -18  121.39   33.70
   4   9 -18   78.89   27.20
   4   9 -18  136.09   31.50
   3  -9 -18    3.10    8.00
   3  -9 -18   -5.30    5.20
   3   9 -18    0.50    8.80
   3   9 -18    0.50    9.20
   2  -9 -18   97.09   28.50
   2  -9 -18   79.59   26.60
   2   9 -18   35.20   15.80
   2   9 -18   17.70   12.90
   1  -9 -18   -1.10    6.20
   1  -9 -18   10.20   12.50
   1   9 -18   -6.40    4.40
   1   9 -18    8.50   12.20
   0  -9 -18   21.60   16.20
   0  -9 -18   49.40   21.60
   0   9 -18   15.20   10.00
   0   9 -18   71.79   25.60
   1  -9  18   18.30   10.30
  -1  -9 -18   40.20   18.90
  -1   9 -18   31.90   13.60
  -1   9 -18   42.00   18.00
  -2  -9 -18  230.08   38.10
   2  -9  18  222.38   21.80
  -2   9 -18  238.18   34.50
  -2   9 -18  273.37   37.60
   3  -9  18   65.99   13.00
  -3  -9 -18   44.90   21.40
  -3   9 -18   41.60   19.40
  -3   9 -18   66.49   14.30
  -4  -9 -18  115.49   35.90
   4  -9  18  107.79    8.10
  -5  -9 -18   -5.90    6.70
  -5   9 -18    7.40   10.10
  -6   9 -18   -0.70    7.30
   6   9  18   -0.50    7.70
   6   9  18    5.90    9.60
   6 -10 -18   31.90   17.10
   6 -10 -18   87.49   31.40
   6  10 -18   36.60   21.70
   5 -10 -18    8.50   13.10
   5 -10 -18   18.20   14.00
   5  10 -18   15.10   15.10
   5  10 -18   -2.00    9.90
   4 -10 -18    2.30    7.40
   4 -10 -18    6.80   10.30
   4  10 -18  -11.60    6.80
   4  10 -18   27.50   17.10
   3 -10 -18   21.70   16.70
   3 -10 -18   17.50   13.40
   3  10 -18   -4.20    5.20
   3  10 -18   28.60   20.20
   2 -10 -18   49.20   23.10
   2 -10 -18   26.50   17.70
   2  10 -18   49.10   18.30
   2  10 -18   26.80   20.40
   1 -10 -18   19.90   14.40
   1 -10 -18    6.70   10.00
   1  10 -18   -5.00    6.80
   1  10 -18    6.50    9.00
   0 -10 -18   74.29   28.00
   0  10 -18   30.30   17.60
   0  10 -18   10.30   10.10
  -1 -10 -18   -3.90    6.10
   1 -10  18   12.20    7.80
  -1  10 -18   10.90   13.90
  -1  10 -18    4.30    6.60
  -2 -10 -18   11.40   10.70
  -2  10 -18   23.80   17.30
  -2  10 -18   12.10    7.10
  -3 -10 -18   11.20   13.00
  -3  10 -18   -3.40    5.00
  -4 -10 -18   37.30   18.60
   4  10  18   50.29   21.30
  -4  10 -18   58.89   20.70
  -5  10 -18   15.10   12.10
   5  10  18    2.80    8.80
   6  10  18   99.29   31.70
   6  10  18   84.49   29.30
   5 -11 -18  124.19   31.90
   5 -11 -18   94.09   29.10
   5  11 -18  151.48   36.40
   5  11 -18   90.09   31.00
   4 -11 -18   82.39   27.70
   4 -11 -18   73.19   26.10
   4  11 -18   70.49   24.30
   4  11 -18  108.49   32.90
   3 -11 -18   97.99   32.50
   3 -11 -18   55.49   23.20
   3  11 -18   42.60   19.60
   3  11 -18   89.09   27.10
   2 -11 -18    0.10    7.40
   2 -11 -18   -4.40    5.80
   2  11 -18    0.40   10.10
   2  11 -18    1.20    7.10
   1 -11 -18    7.30   14.00
   1  11 -18   -1.80    7.40
   1  11 -18    2.30    6.10
   0 -11 -18    9.00   14.00
   0  11 -18   -4.20    7.80
   0  11 -18   22.50   12.70
  -1 -11 -18   52.69   22.80
  -1  11 -18   77.89   27.70
  -1  11 -18  101.19   21.30
  -2 -11 -18   43.20   25.00
  -2  11 -18   57.69   22.80
  -2  11 -18   37.20   10.90
  -3  11 -18    3.10   10.30
   3  11  18   38.80   18.40
  -4  11 -18   -0.80    7.00
   4  11  18   37.80   27.80
   5  11  18    7.30   11.10
   5  11  18    6.10   12.60
  -5  11 -18   20.60   13.70
   4 -12 -18   30.00   17.50
   4 -12 -18   12.40   11.30
   4  12 -18    0.30    7.80
   4  12 -18   -4.30    9.20
   3 -12 -18   -4.20    6.90
   3  12 -18    7.90   18.10
   3  12 -18    2.20    9.40
   2 -12 -18   15.50   10.70
   2  12 -18    4.30   13.60
   1 -12 -18    7.60   11.90
   1  12 -18   12.60   12.00
   1  12 -18   32.30   19.30
   0 -12 -18   47.90   21.40
   0  12 -18   31.50   13.20
   0  12 -18   35.70   18.70
   1  12  18   15.00   16.20
  -1  12 -18    1.70    8.00
  -1  12 -18    2.20    5.50
   2  12  18   34.50   19.90
  -2  12 -18   29.50   18.30
   3  12  18   15.20   11.70
  -3  12 -18   23.30   16.40
   1  13 -18    6.90   15.50
   1  13 -18   14.60   10.90
  -1  13  18   16.90   13.80
   0  13  18    0.70    9.40
   0  13 -18   -1.60    6.60
   0  13 -18    8.40    8.90
  10   0 -19   19.00   12.20
  10   0 -19    3.70   10.50
   9   0 -19  348.37   48.80
   9   0 -19  263.47   37.80
   8   0 -19   -1.00    8.00
   8   0 -19   13.20   14.80
   7   0 -19  617.34   56.19
   7   0 -19  575.84   58.69
   6   0 -19   -8.50    5.20
   6   0 -19   -4.90    5.00
   5   0 -19   34.60   17.40
   5   0 -19   63.09   23.20
   4   0 -19    6.60   10.50
   4   0 -19   -5.20    5.50
   3   0 -19   38.80   18.40
   3   0 -19    8.70   11.10
   2   0 -19    8.60    9.30
   2   0 -19   -0.30    6.50
   1   0 -19   84.29   23.20
   1   0 -19  188.98   36.90
   0   0 -19   -0.20    7.20
   0   0 -19   12.10    9.60
  -1   0 -19  129.59   27.10
  -1   0 -19  187.68   30.00
  -2   0 -19    3.20    7.00
  -2   0 -19   -4.20    5.50
  -3   0 -19  101.59   24.10
  -3   0 -19   83.89   24.30
  -4   0 -19   27.60   15.30
  -5   0 -19   -3.80    4.90
  -6   0 -19    2.90    9.60
  -7   0 -19   84.29   25.50
   7   0  19   84.19   22.00
  -8   0 -19    2.50   10.10
   9   0  19    1.40    8.60
  -9   0 -19    6.90   10.10
   9  -1 -19    0.80    8.10
   9  -1 -19   19.70   15.20
   9   1 -19   -7.90    6.30
   9   1 -19    5.60    9.20
   8  -1 -19   33.40   20.20
   8  -1 -19   52.19   21.40
   8   1 -19   46.50   24.10
   8   1 -19   53.39   21.70
   7  -1 -19   33.80   18.10
   7  -1 -19   43.50   21.90
   7   1 -19   28.90   17.70
   7   1 -19   47.80   21.80
   6  -1 -19   -5.80    4.30
   6  -1 -19   -1.30    8.30
   6   1 -19   -0.10    6.40
   6   1 -19   -2.20    6.50
   5  -1 -19   -7.70    4.90
   5  -1 -19   14.70   13.30
   5   1 -19   15.60   12.70
   5   1 -19   34.40   17.30
   4  -1 -19  166.08   35.90
   4  -1 -19  209.28   43.00
   4   1 -19  208.08   32.20
   4   1 -19  220.38   33.50
   3  -1 -19   22.50   14.20
   3  -1 -19   -8.80    4.30
   3   1 -19    2.40    7.60
   3   1 -19    6.60   10.10
   2  -1 -19  464.05   46.80
   2  -1 -19  439.56   44.70
   2   1 -19  508.95   46.90
   2   1 -19  385.36   43.50
   1  -1 -19   13.10   10.30
   1  -1 -19    0.00    6.00
   1   1 -19    0.30    8.30
   1   1 -19   -1.10    7.00
   0  -1 -19  289.97   35.80
   0  -1 -19  201.68   31.90
   0   1 -19  261.17   35.70
   0   1 -19  250.87   32.30
  -1  -1 -19    5.40    8.40
  -1  -1 -19   16.40   12.20
  -1   1 -19   17.60   12.80
  -1   1 -19   23.40   12.80
  -2  -1 -19  304.67   36.70
  -2  -1 -19  364.86   42.30
  -2   1 -19  359.36   40.90
  -2   1 -19  420.86   40.70
  -3  -1 -19   10.60   10.80
  -3  -1 -19   24.00   14.00
  -3   1 -19   20.90   12.10
  -3   1 -19   20.40   14.60
  -4  -1 -19  643.24   56.59
  -4   1 -19  561.24   51.99
  -5  -1 -19    6.40    9.60
  -5   1 -19   16.80   12.30
  -6  -1 -19  189.28   39.40
   7  -1  19    1.90    5.50
  -7  -1 -19   -4.30    5.60
  -7   1 -19    4.20    8.40
   8  -1  19   -0.40    7.00
  -8  -1 -19   -3.40    5.70
   8   1  19    8.00    8.90
  -8   1 -19    2.20    8.40
  -9  -1 -19   -3.40    6.40
  -9   1 -19   24.40   15.70
   9   1  19    4.20   10.30
   9  -2 -19  158.38   40.70
   9  -2 -19  128.59   31.00
   9   2 -19  163.78   38.30
   9   2 -19  202.48   42.70
   8  -2 -19   69.69   22.60
   8  -2 -19   93.39   27.90
   8   2 -19   39.60   20.80
   8   2 -19  101.29   30.70
   7  -2 -19  261.57   50.99
   7  -2 -19  413.16   49.00
   7   2 -19  343.57   43.70
   7   2 -19  247.88   39.50
   6  -2 -19   52.09   23.30
   6  -2 -19   27.40   14.70
   6   2 -19   34.00   18.50
   6   2 -19   42.60   21.10
   5  -2 -19  260.57   35.70
   5  -2 -19  305.27   40.40
   5   2 -19  304.87   48.30
   5   2 -19  278.67   38.20
   4  -2 -19   29.30   15.50
   4   2 -19   62.79   24.50
   4   2 -19   69.19   25.90
   3  -2 -19   19.80   13.10
   3  -2 -19   25.60   13.70
   3   2 -19    6.30   10.00
   3   2 -19    2.80   11.30
   2  -2 -19   16.80   13.20
   2  -2 -19   27.60   14.80
   2   2 -19   31.60   14.80
   2   2 -19   47.20   19.40
   1  -2 -19  359.96   40.70
   1  -2 -19  330.97   39.60
   1   2 -19  329.57   36.80
   1   2 -19  382.56   43.10
   0  -2 -19   15.70   12.30
   0  -2 -19   19.90   11.90
   0   2 -19   24.70   12.80
   0   2 -19    3.90    8.90
  -1  -2 -19  120.49   28.80
  -1  -2 -19  140.99   31.80
  -1   2 -19   96.49   25.70
  -1   2 -19  161.68   31.90
  -2  -2 -19   -7.60    4.30
  -2  -2 -19   12.30   10.60
  -2   2 -19   -4.20    5.20
  -2   2 -19   -3.50    4.20
  -3  -2 -19   27.70   19.90
  -3  -2 -19   18.10   12.70
  -3   2 -19    5.70    7.20
  -3   2 -19    1.20    7.10
  -4   2 -19   -2.20    6.70
  -5  -2 -19   21.40   13.60
  -5   2 -19   28.80   16.10
  -6  -2 -19    9.40   11.60
  -6   2 -19    0.60    6.90
  -7  -2 -19   20.40   14.40
   7  -2  19   31.80   14.60
  -7   2 -19   25.50   16.40
  -8  -2 -19   38.90   19.30
   8  -2  19   11.30    8.40
   8   2  19    4.80    9.20
  -8   2 -19   24.60   15.00
  -9  -2 -19   13.70   12.10
   9  -2  19   15.00   10.20
   9   2  19    4.70    9.20
  -9   2 -19   42.80   18.70
   9  -3 -19    9.20   12.10
   9  -3 -19   51.99   22.20
   9   3 -19   27.90   18.60
   9   3 -19   -4.10    8.90
   8  -3 -19    8.40   11.60
   8  -3 -19    8.80   12.90
   8   3 -19   10.80   13.60
   8   3 -19   15.40   13.50
   7  -3 -19   -5.20    7.70
   7  -3 -19    5.90    9.20
   7   3 -19   -6.00    5.90
   7   3 -19   -5.80    6.10
   6  -3 -19    3.70    9.90
   6  -3 -19   22.20   13.90
   6   3 -19    8.40   12.70
   6   3 -19    9.40   13.20
   5  -3 -19    5.90   10.10
   5  -3 -19   -0.90    6.20
   5   3 -19   14.50   14.10
   5   3 -19   -4.40    6.50
   4  -3 -19   85.29   25.20
   4  -3 -19   89.59   27.30
   4   3 -19   66.79   32.60
   4   3 -19  123.79   31.20
   3  -3 -19   64.89   21.20
   3  -3 -19  141.89   33.30
   3   3 -19  123.09   32.20
   3   3 -19  136.39   29.80
   2  -3 -19   82.49   25.60
   2  -3 -19   90.09   23.60
   2   3 -19   49.70   19.80
   2   3 -19   43.90   16.50
   1  -3 -19   19.30   13.70
   1  -3 -19   -3.80    5.80
   1   3 -19    2.40    8.40
   1   3 -19   33.00   15.50
   0  -3 -19   71.09   22.00
   0  -3 -19  133.79   32.10
   0   3 -19   99.89   26.20
   0   3 -19   74.19   24.40
  -1  -3 -19   23.40   14.10
  -1  -3 -19   40.00   17.20
  -1   3 -19   40.00   17.50
  -1   3 -19   73.59   22.20
  -2  -3 -19   52.49   21.20
  -2  -3 -19   27.00   15.10
  -2   3 -19   42.20   15.40
  -2   3 -19   33.10   18.70
  -3  -3 -19  190.18   39.00
  -3  -3 -19  126.99   50.59
  -3   3 -19  162.28   34.70
  -3   3 -19  149.29   23.30
  -4  -3 -19  105.39   30.20
  -4   3 -19  151.58   22.80
  -4   3 -19  109.89   26.90
  -5  -3 -19  127.09   33.00
  -5   3 -19  100.49   29.00
  -6  -3 -19   -0.20    6.60
  -6   3 -19    7.90   10.60
   7  -3  19   40.30   12.50
  -7  -3 -19   27.60   16.40
   7   3  19   44.90   18.30
   8  -3  19    2.60    5.80
  -8  -3 -19   -0.10    8.20
  -8   3 -19    0.60    6.70
   8   3  19   -7.20    5.20
   9  -4 -19    2.80    8.30
   9  -4 -19    4.20    9.70
   9   4 -19    1.40    8.40
   9   4 -19    3.80   10.50
   8  -4 -19   85.19   36.90
   8  -4 -19   95.89   31.90
   8   4 -19   63.29   24.90
   8   4 -19   41.50   24.30
   7  -4 -19  238.78   33.70
   7  -4 -19  178.18   38.20
   7   4 -19  260.47   51.69
   7   4 -19  162.68   35.30
   6  -4 -19   24.90   14.30
   6  -4 -19   -0.90    6.50
   6   4 -19   26.70   18.80
   6   4 -19   -0.10    8.30
   5  -4 -19   28.90   14.30
   5  -4 -19   12.60   14.30
   5   4 -19   16.40   14.10
   5   4 -19   48.50   20.60
   4  -4 -19   14.10   12.70
   4  -4 -19   21.30   13.40
   4   4 -19   35.90   19.40
   4   4 -19   55.19   27.90
   3  -4 -19    3.30   11.40
   3  -4 -19    2.80   12.50
   3   4 -19   56.09   21.50
   3   4 -19   38.60   27.40
   2  -4 -19  186.58   38.20
   2  -4 -19  149.79   31.00
   2   4 -19  118.79   30.30
   2   4 -19   82.69   22.80
   1  -4 -19   -0.70    7.80
   1  -4 -19    5.20    9.00
   1   4 -19   12.80   13.90
   1   4 -19    0.90    6.20
   0  -4 -19  177.58   38.80
   0  -4 -19  193.88   31.70
   0   4 -19  105.19   26.90
   0   4 -19  201.08   28.00
  -1  -4 -19  417.16   45.60
  -1  -4 -19  413.76   44.10
  -1   4 -19  396.86   43.90
  -1   4 -19  296.47   33.30
  -2  -4 -19  183.48   30.00
  -2   4 -19  169.38   36.90
  -2   4 -19  191.38   25.90
  -3  -4 -19   -3.80    5.60
  -3   4 -19   -4.00    5.10
  -3   4 -19   -2.90    4.60
  -4  -4 -19   12.50   12.70
  -4   4 -19   -0.50    3.90
  -4   4 -19   -3.90    5.10
  -5  -4 -19   40.10   19.60
  -5   4 -19   34.50   18.00
  -6  -4 -19   66.79   25.00
  -6   4 -19   72.09   24.30
  -7  -4 -19   38.00   19.40
   7  -4  19   17.60    9.00
   7   4  19   28.00   15.90
  -7   4 -19   13.30   14.80
   8  -4  19   12.50    8.40
  -8  -4 -19    5.90   11.40
   8   4  19   10.00   11.70
  -8   4 -19    5.20    9.30
   9  -5 -19  135.19   47.10
   9  -5 -19  166.48   43.40
   9   5 -19  108.29   33.20
   9   5 -19   73.79   26.30
   8  -5 -19   42.00   19.80
   8  -5 -19   24.10   15.80
   8   5 -19   47.40   22.90
   8   5 -19   18.60   16.80
   7  -5 -19   21.70   15.00
   7  -5 -19    4.50   11.00
   7   5 -19    0.20   11.40
   7   5 -19   19.20   15.50
   6  -5 -19    6.00    9.80
   6  -5 -19    6.70   11.40
   6   5 -19   16.80   15.30
   6   5 -19    5.70   12.90
   5  -5 -19   86.79   26.30
   5  -5 -19   81.29   23.90
   5   5 -19   18.70   13.60
   4  -5 -19   46.00   20.00
   4  -5 -19    6.00   10.80
   4   5 -19   10.20   13.40
   4   5 -19   19.40   14.50
   3  -5 -19  264.57   37.60
   3  -5 -19  202.48   40.50
   3   5 -19  202.18   42.10
   3   5 -19  260.77   34.80
   2  -5 -19   98.89   30.70
   2  -5 -19   43.90   18.80
   2   5 -19   95.69   25.40
   2   5 -19   58.99   24.80
   1  -5 -19   68.29   23.90
   1   5 -19  102.39   32.10
   1   5 -19   91.09   25.90
   0  -5 -19   28.70   15.50
   0  -5 -19    8.50   17.90
   0   5 -19   37.00   17.10
   0   5 -19   29.00   14.10
  -1  -5 -19   61.09   36.30
  -1  -5 -19   35.60   24.00
  -1   5 -19   53.09   18.60
  -1   5 -19   77.49   23.00
  -2  -5 -19  102.09   30.30
  -2  -5 -19   37.70   19.70
  -2   5 -19   47.70   16.20
  -2   5 -19   31.40   17.60
  -3  -5 -19  211.38   34.40
   3  -5  19  189.38   24.80
  -3   5 -19  200.58   32.10
  -3   5 -19  204.38   25.60
   4  -5  19   82.99   19.20
  -4  -5 -19  117.89   33.20
  -4   5 -19  140.69   31.70
   5  -5  19  135.69   19.70
  -5  -5 -19  135.19   32.00
  -5   5 -19  138.19   32.90
  -6  -5 -19   12.30   13.10
  -6   5 -19   35.10   17.80
  -7  -5 -19   17.00   17.10
   7  -5  19    8.40    9.90
  -7   5 -19   12.10   10.50
   7   5  19   -0.70    7.80
  -8  -5 -19   13.40   15.40
   8   5  19    1.10    6.50
   8  -6 -19   34.40   19.60
   8  -6 -19   63.09   25.60
   8   6 -19  135.49   38.40
   8   6 -19   76.49   28.90
   7  -6 -19   23.20   13.60
   7  -6 -19    9.20    9.50
   7   6 -19    6.20   11.00
   7   6 -19    1.90    9.60
   6  -6 -19  216.28   32.90
   6  -6 -19  194.98   39.80
   6   6 -19  156.58   38.40
   6   6 -19  201.48   41.10
   5  -6 -19    1.20    7.10
   5  -6 -19   12.10   13.60
   5   6 -19    1.30    7.40
   5   6 -19   -6.30    5.50
   4  -6 -19   11.20   12.60
   4  -6 -19    2.20   10.10
   4   6 -19   17.70   13.80
   4   6 -19   15.60   14.40
   3  -6 -19   -4.20    8.90
   3  -6 -19    1.50    6.60
   3   6 -19   16.90   13.10
   3   6 -19   -4.90    5.90
   2  -6 -19   36.80   18.00
   2  -6 -19   29.60   15.40
   2   6 -19   34.00   17.20
   2   6 -19   60.89   23.60
   1  -6 -19   12.50   14.10
   1   6 -19   40.30   19.90
   1   6 -19    6.20   10.00
   0  -6 -19  158.18   34.70
   0  -6 -19  110.79   29.80
   0   6 -19   77.39   22.00
   0   6 -19  149.88   50.39
  -1  -6 -19   30.50   16.20
  -1   6 -19   -8.40    4.90
  -1   6 -19   17.40   10.90
  -2  -6 -19    5.60   11.60
  -2   6 -19    1.50    5.70
  -2   6 -19   -5.00    6.20
  -3  -6 -19   58.59   23.60
   3  -6  19   58.99   16.90
  -3   6 -19   44.60   19.10
  -3   6 -19   34.00   14.80
   4  -6  19    0.20    6.20
  -4  -6 -19    5.60   11.30
  -4   6 -19   -7.40    4.40
  -5  -6 -19   -0.50    7.80
   5  -6  19   -0.40    5.40
  -5   6 -19    1.50    7.20
  -6  -6 -19   10.90   13.40
   6  -6  19   33.50    9.70
  -6   6 -19   16.90   13.00
  -7  -6 -19   69.79   26.30
   7  -6  19   50.19   12.90
   7   6  19   29.40   17.30
  -7   6 -19   35.80   16.50
   8   6  19   43.20   20.60
   8   6  19   27.00   17.10
   8  -7 -19   16.90   15.50
   8  -7 -19   -3.40    8.40
   8   7 -19   27.20   19.60
   8   7 -19  -11.40    9.00
   7  -7 -19   15.60   21.30
   7  -7 -19    6.20   11.00
   7   7 -19    4.40   14.70
   7   7 -19    3.50   11.00
   6  -7 -19   11.80   12.60
   6  -7 -19   36.20   23.80
   6   7 -19   39.90   19.70
   6   7 -19   31.20   19.20
   5  -7 -19  137.39   36.80
   5  -7 -19  128.49   47.00
   5   7 -19   83.49   27.70
   5   7 -19  117.39   33.00
   4  -7 -19   84.59   27.50
   4   7 -19   34.50   17.90
   4   7 -19   17.20   13.00
   3  -7 -19  131.29   36.50
   3  -7 -19  167.48   39.80
   3   7 -19  174.18   41.30
   3   7 -19  137.29   29.10
   2  -7 -19   11.20   10.70
   2  -7 -19   31.70   15.30
   2   7 -19   12.60   11.00
   2   7 -19   -7.10    5.00
   1  -7 -19  175.28   38.10
   1  -7 -19  163.08   37.70
   1   7 -19  150.88   33.40
   1   7 -19  147.99   30.80
   0  -7 -19   11.40   10.90
   0  -7 -19    7.80    8.80
   0   7 -19    0.70    5.50
   0   7 -19   14.00   13.30
  -1  -7 -19   19.90   13.90
  -1  -7 -19   32.40   17.00
  -1   7 -19   32.60   14.50
  -1   7 -19   26.80   16.30
   2  -7  19   39.10   14.50
  -2  -7 -19   10.60   14.60
  -2   7 -19    4.00   12.80
  -2   7 -19   43.80   15.70
  -3  -7 -19  267.57   40.40
   3  -7  19  257.77   25.60
  -3   7 -19  308.87   28.50
  -3   7 -19  296.57   73.89
   4  -7  19    2.20    6.50
  -4  -7 -19   -7.40    6.80
  -5  -7 -19  128.59   37.50
  -5   7 -19  233.48   65.99
   6  -7  19    1.80    3.90
  -6  -7 -19    7.60   12.30
  -6   7 -19   11.50   12.50
  -7  -7 -19   -4.60    7.60
   7   7  19   16.60   14.30
   7   7  19    9.10   10.60
  -7   7 -19   19.70   15.40
   7  -8 -19   50.29   20.30
   7  -8 -19   85.29   28.50
   7   8 -19   65.79   31.50
   7   8 -19   12.10   16.20
   6  -8 -19  116.49   35.20
   6  -8 -19  162.68   34.80
   6   8 -19  100.59   30.10
   6   8 -19   46.00   21.60
   5  -8 -19   11.70   11.50
   5  -8 -19    1.10    6.10
   5   8 -19   16.70   16.00
   5   8 -19   38.70   22.20
   4  -8 -19   31.00   19.00
   4  -8 -19   12.30   14.90
   4   8 -19   19.00   13.30
   4   8 -19   37.90   21.70
   3  -8 -19   10.90   11.70
   3  -8 -19   -3.20    8.60
   3   8 -19   20.20   15.50
   2  -8 -19  260.27   38.10
   2  -8 -19  225.38   35.30
   2   8 -19  226.78   31.30
   2   8 -19  246.28   38.40
   1  -8 -19   27.30   16.50
   1  -8 -19    4.70    8.30
   1   8 -19   24.60   12.80
   1   8 -19   16.20   12.80
   0  -8 -19   73.09   26.50
   0  -8 -19   94.69   28.20
   0   8 -19   41.20   20.50
   0   8 -19   54.69   17.70
  -1  -8 -19    5.90   11.20
  -1   8 -19   30.80   17.50
  -1   8 -19   17.80   10.60
   2  -8  19   43.90   14.00
  -2  -8 -19   11.40   10.30
  -2   8 -19  102.59   21.60
  -2   8 -19  102.09   29.40
  -3  -8 -19   38.10   18.40
   3  -8  19   54.59   14.30
  -3   8 -19   32.20   12.80
  -3   8 -19   44.10   18.50
  -4  -8 -19   -2.90    6.90
  -4   8 -19   13.80   11.30
   5  -8  19   11.90    5.40
  -5  -8 -19   27.80   17.90
  -5   8 -19   19.40   13.80
  -6  -8 -19   69.19   30.60
  -6   8 -19   29.10   17.50
   7  -9 -19   15.60   17.10
   7  -9 -19   48.00   19.30
   7   9 -19   10.00   15.00
   6  -9 -19    5.80   10.90
   6  -9 -19    1.60   11.60
   6   9 -19   -5.80    8.20
   6   9 -19   -1.60    7.90
   5  -9 -19   53.39   23.60
   5  -9 -19   28.00   17.10
   5   9 -19   16.00   15.10
   5   9 -19   39.50   19.90
   4  -9 -19   34.10   17.30
   4  -9 -19    7.10   10.20
   4   9 -19   25.00   14.80
   4   9 -19    7.90   11.30
   3  -9 -19   39.30   18.80
   3  -9 -19   41.40   19.90
   3   9 -19   43.00   19.40
   3   9 -19   80.89   25.60
   2  -9 -19   21.60   15.30
   2  -9 -19    3.50   10.40
   2   9 -19   -3.90    6.40
   2   9 -19    2.50    6.20
   1  -9 -19   94.79   28.70
   1  -9 -19  161.78   38.20
   1   9 -19  160.88   25.70
   1   9 -19   87.09   26.30
   0  -9 -19    0.20    8.30
   0  -9 -19   47.20   20.60
   0   9 -19   32.90   17.70
   0   9 -19   53.19   17.70
  -1  -9 -19    3.20    9.80
  -1   9 -19   17.10   10.40
  -1   9 -19   33.00   18.40
  -2  -9 -19   22.70   16.80
   2  -9  19   14.20   10.10
  -2   9 -19    3.00    6.00
  -2   9 -19    3.10   10.90
  -3  -9 -19  105.99   31.20
  -3   9 -19   54.19   13.60
  -3   9 -19   50.89   21.10
  -4  -9 -19    5.10   12.20
  -4   9 -19   25.00   14.50
  -5  -9 -19   58.09   22.20
  -5   9 -19  108.99   28.00
  -6   9 -19   -0.30    7.90
   6   9  19   -3.70    5.70
   6   9  19    9.40   12.90
   6 -10 -19  166.58   35.40
   6 -10 -19  128.69   36.00
   6  10 -19  101.49   31.50
   6  10 -19  125.69   34.50
   5 -10 -19    0.30    9.30
   5 -10 -19   -5.80    6.20
   5  10 -19   10.40   32.50
   5  10 -19    2.50    8.70
   4 -10 -19   10.50   12.60
   4 -10 -19   25.30   15.30
   4  10 -19   24.90   18.50
   4  10 -19    7.50   13.10
   3 -10 -19    5.80   10.90
   3 -10 -19   25.50   15.60
   3  10 -19   -3.60    6.10
   3  10 -19   -0.10    9.20
   2 -10 -19   51.09   23.10
   2 -10 -19   54.99   22.80
   2  10 -19   65.59   27.90
   2  10 -19   35.70   18.00
   1 -10 -19    1.80    9.00
   1 -10 -19   -6.00    7.30
   1  10 -19   -3.30    7.00
   1  10 -19    3.30    6.40
   0 -10 -19   88.29   28.00
   0  10 -19   99.19   24.80
   0  10 -19   74.99   25.40
  -1 -10 -19    1.30    8.90
  -1  10 -19   16.20    9.90
  -1  10 -19   24.10   17.80
  -2 -10 -19   11.60   14.40
  -2  10 -19   28.30   16.70
  -3 -10 -19    5.90   12.50
  -3  10 -19   -0.10    7.40
  -4 -10 -19   15.10   13.80
  -4  10 -19    5.10    9.00
  -5  10 -19   14.00   12.10
   5  10  19   16.80   14.00
   4 -11 -19   69.99   26.70
   4 -11 -19   25.10   16.90
   4  11 -19   29.10   20.70
   4  11 -19   74.59   25.80
   3 -11 -19   16.20   15.30
   3 -11 -19   15.10   12.40
   3  11 -19   -4.60    7.30
   3  11 -19   17.40   13.20
   2 -11 -19   85.79   28.40
   2 -11 -19  104.89   30.40
   2  11 -19  147.89   40.30
   2  11 -19   72.19   28.40
   1 -11 -19   27.30   20.00
   1  11 -19   42.00   20.30
   1  11 -19   41.40   18.30
   0 -11 -19   -4.70    6.10
   0  11 -19    1.80    8.90
   0  11 -19   17.70    9.00
  -1 -11 -19   19.40   17.50
  -1  11 -19   29.30   14.00
  -1  11 -19   -4.10    8.80
  -2 -11 -19  130.89   34.80
  -2  11 -19  132.69   17.70
  -2  11 -19  129.99   33.20
  -3 -11 -19    7.40   18.30
  -3  11 -19   12.90   13.40
   3  11  19    8.50   15.70
   4  11  19   72.99   26.50
  -4  11 -19   97.59   30.20
   3 -12 -19    6.10   11.20
   3  12 -19   22.10   21.00
   3  12 -19   17.70   14.00
   2 -12 -19   -4.00    8.30
   2  12 -19   -2.20    6.70
   1 -12 -19   82.39   30.70
   1  12 -19   22.00   13.50
   1  12 -19  110.99   35.70
   0 -12 -19   48.40   25.60
   0  12 -19   24.60   16.60
   0  12 -19   30.00   14.30
  -1 -12 -19    1.90   11.10
  -1  12 -19    7.10    8.70
  -1  12 -19    7.30   11.20
   1  12  19   14.90   14.40
   2  12  19    6.00   11.90
  -2  12 -19   -0.10    8.70
   9   0 -20   -2.40    7.20
   8   0 -20  102.19   29.00
   8   0 -20   93.99   30.90
   7   0 -20   -5.80    6.40
   7   0 -20   -0.10    7.00
   6   0 -20  255.07   51.29
   6   0 -20  178.68   41.00
   5   0 -20   -5.90    4.90
   5   0 -20   -3.30    7.50
   4   0 -20  127.79   30.20
   3   0 -20    2.80    8.60
   3   0 -20   -0.50    7.00
   2   0 -20   31.50   18.80
   2   0 -20   48.80   21.60
   1   0 -20   -4.10    6.30
   1   0 -20   -1.10    7.40
   0   0 -20  751.32   58.39
   0   0 -20  689.73   58.99
  -1   0 -20   -9.50    4.00
  -1   0 -20    9.00   10.40
  -2   0 -20  497.75   46.80
  -2   0 -20  424.86   46.70
  -3   0 -20   -3.10    9.50
  -3   0 -20   -4.20    5.90
  -4   0 -20   20.90   14.70
  -5   0 -20   -3.90    7.30
  -6   0 -20   47.40   19.60
  -7   0 -20    1.80    7.20
  -8   0 -20  517.35   53.49
   8   0  20  421.46   40.70
   9  -1 -20   20.50   15.10
   9  -1 -20  109.49   53.99
   9   1 -20   57.19   23.00
   9   1 -20   17.60   21.30
   8  -1 -20   -4.00    8.00
   8  -1 -20    4.00    8.70
   8   1 -20    7.80   12.70
   8   1 -20    2.80    9.40
   7  -1 -20   38.20   19.00
   7  -1 -20    2.70    9.80
   7   1 -20    0.80    8.60
   7   1 -20   -2.90    6.10
   6  -1 -20   20.60   13.20
   6  -1 -20    6.20   10.70
   6   1 -20   11.90   14.40
   6   1 -20    3.10   10.30
   5  -1 -20   62.49   23.80
   5  -1 -20   55.89   22.10
   5   1 -20   28.00   16.50
   5   1 -20   22.30   13.60
   4  -1 -20    9.50   11.30
   4  -1 -20    2.30    9.20
   4   1 -20    6.10    9.80
   4   1 -20    5.10    9.30
   3  -1 -20  250.57   36.20
   3   1 -20  340.27   49.20
   3   1 -20  294.17   38.70
   2  -1 -20    4.00   10.20
   2  -1 -20   20.40   13.50
   2   1 -20    3.30    8.10
   2   1 -20    7.30   12.50
   1  -1 -20  118.99   32.00
   1  -1 -20   73.49   24.90
   1   1 -20  106.79   25.40
   1   1 -20   88.19   25.90
   0  -1 -20    4.70    9.80
   0  -1 -20   -0.60    8.60
   0   1 -20   -3.10    5.90
   0   1 -20   -5.40    4.70
  -1  -1 -20   47.40   20.90
  -1  -1 -20   64.19   22.80
  -1   1 -20   56.59   20.10
  -1   1 -20   35.90   19.40
  -2  -1 -20   25.30   16.90
  -2  -1 -20    9.70   11.30
  -2   1 -20    8.40   11.00
  -2   1 -20   50.29   19.30
  -3  -1 -20   75.89   24.30
  -3  -1 -20   47.40   21.30
  -3   1 -20   79.59   22.40
  -3   1 -20   64.09   21.80
  -4  -1 -20   38.60   19.80
  -5  -1 -20   18.30   15.20
  -5   1 -20   38.60   18.10
  -6  -1 -20   -7.30    5.30
  -6   1 -20    1.10    7.20
   7  -1  20   29.00   12.80
  -7  -1 -20   40.80   19.10
  -7   1 -20   46.00   19.50
  -8  -1 -20   -3.20    6.80
   8  -1  20    1.80    7.70
   8   1  20   21.40   14.50
  -8   1 -20    6.80   11.40
   9  -2 -20    5.10    9.00
   9  -2 -20   -9.90   10.90
   9   2 -20    4.00   13.20
   9   2 -20   -5.20    6.30
   8  -2 -20  136.79   34.10
   8  -2 -20   77.99   27.30
   8   2 -20  127.19   36.00
   8   2 -20   80.49   28.60
   7  -2 -20    3.10    8.70
   7  -2 -20    3.40   10.90
   7   2 -20   -8.60    5.90
   7   2 -20    2.90    9.10
   6  -2 -20  341.67   41.70
   6   2 -20  258.37   39.40
   6   2 -20  240.78   38.50
   5  -2 -20   29.40   16.30
   5  -2 -20   97.79   37.70
   5   2 -20   90.49   29.70
   5   2 -20   71.29   25.50
   4  -2 -20  473.85   50.39
   4  -2 -20  395.66   45.90
   4   2 -20  382.96   45.70
   4   2 -20  420.66   46.80
   3  -2 -20   11.90   12.70
   3  -2 -20   36.20   17.40
   3   2 -20   -1.80    8.10
   3   2 -20   17.70   13.10
   2  -2 -20   14.30   14.40
   2  -2 -20   30.30   16.30
   2   2 -20   17.10   13.10
   2   2 -20   10.90   11.20
   1  -2 -20    9.50   11.90
   1  -2 -20   -3.60    5.30
   1   2 -20    7.50   10.10
   1   2 -20    5.60    9.70
   0  -2 -20  718.83   58.19
   0  -2 -20  667.83   58.69
   0   2 -20  696.13   59.99
   0   2 -20  702.23   54.79
  -1  -2 -20   20.40   13.60
  -1  -2 -20   18.80   12.80
  -1   2 -20   15.50   12.50
  -1   2 -20   17.30   15.00
  -2  -2 -20   56.19   22.10
  -2  -2 -20   85.69   26.70
  -2   2 -20   66.09   23.60
  -2   2 -20   70.29   20.70
  -3  -2 -20   15.90   12.30
  -3  -2 -20    1.70    8.50
  -3   2 -20   -0.60    5.70
  -3   2 -20    7.00   10.10
  -4  -2 -20   12.10   12.10
  -5  -2 -20   -5.40    4.80
  -5   2 -20    3.50    8.70
  -6  -2 -20  239.38   37.20
  -6   2 -20  176.78   38.10
  -7  -2 -20   59.29   23.70
   7  -2  20   48.10   17.00
  -7   2 -20   29.60   18.80
   8  -2  20   86.49   21.20
  -8  -2 -20  103.59   29.10
  -8   2 -20  133.49   33.10
   8   2  20  246.68   33.20
   9  -3 -20   36.40   20.60
   9  -3 -20   72.79   35.60
   9   3 -20   48.20   25.20
   9   3 -20   62.79   26.10
   8  -3 -20   11.70   11.50
   8  -3 -20   51.49   21.60
   8   3 -20   14.90   14.70
   8   3 -20   46.60   21.70
   7  -3 -20  128.79   35.10
   7  -3 -20  138.79   32.40
   7   3 -20  145.29   35.90
   7   3 -20   61.89   24.60
   6  -3 -20   -5.10    7.80
   6  -3 -20   13.70   13.40
   6   3 -20   31.40   20.80
   6   3 -20   23.80   16.90
   5  -3 -20   60.29   35.50
   5  -3 -20   46.50   20.50
   5   3 -20   16.80   14.80
   5   3 -20   30.80   18.80
   4  -3 -20   -2.10    7.20
   4  -3 -20   10.80   13.50
   4   3 -20    7.30   10.40
   4   3 -20   14.80   16.50
   3  -3 -20   96.29   27.00
   3  -3 -20   61.39   22.30
   3   3 -20   78.19   26.90
   3   3 -20   63.49   24.70
   2  -3 -20   27.30   15.60
   2  -3 -20   -5.70    9.00
   2   3 -20   25.10   15.00
   2   3 -20   14.90   12.00
   1  -3 -20   -5.80    4.30
   1  -3 -20   -2.80    6.50
   1   3 -20   14.40   12.80
   1   3 -20    3.40   10.40
   0  -3 -20   -0.40    7.50
   0  -3 -20   -8.40    5.60
   0   3 -20   -0.20    8.10
   0   3 -20   -1.50    7.10
  -1  -3 -20   41.30   18.10
  -1  -3 -20   80.29   28.40
  -1   3 -20   52.49   19.00
  -1   3 -20   35.80   16.50
  -2  -3 -20   36.40   16.30
  -2  -3 -20  148.59   36.10
  -2   3 -20  117.99   32.30
  -2   3 -20   92.39   23.90
  -3  -3 -20   21.70   17.90
  -3  -3 -20   -4.30    5.90
  -3   3 -20   -2.60    4.30
  -3   3 -20   20.40   15.80
  -4  -3 -20   56.59   22.90
  -4   3 -20   69.09   19.50
  -5  -3 -20  107.19   29.60
  -5   3 -20  132.19   33.40
  -6  -3 -20   36.20   20.10
  -6   3 -20   17.80   13.20
   7  -3  20   83.09   20.40
  -7  -3 -20   38.80   21.70
  -7   3 -20   69.99   25.30
   8  -3  20   16.50   10.40
  -8  -3 -20    7.60   10.10
  -8   3 -20    5.30    8.40
   8   3  20    8.20   11.00
   9  -4 -20   13.60   12.30
   9  -4 -20    3.50   10.50
   9   4 -20   23.80   17.20
   9   4 -20    8.80   15.20
   8  -4 -20   -4.70    6.50
   8  -4 -20    6.40    9.40
   8   4 -20   13.50   12.60
   8   4 -20   17.20   15.70
   7  -4 -20   87.89   30.80
   7  -4 -20  108.39   29.60
   7   4 -20   95.89   30.30
   7   4 -20  112.59   32.00
   6  -4 -20  271.67   37.20
   6  -4 -20  257.77   39.40
   6   4 -20  193.48   43.20
   6   4 -20  334.07   45.10
   5  -4 -20   77.39   27.90
   5  -4 -20   23.00   20.00
   5   4 -20   56.09   21.40
   5   4 -20   58.39   22.30
   4  -4 -20   93.29   31.20
   4   4 -20   33.30   19.60
   4   4 -20   24.10   15.40
   3  -4 -20    0.00    7.30
   3  -4 -20   -4.50    5.70
   3   4 -20   -4.00    4.70
   3   4 -20    2.20    8.50
   2  -4 -20    4.10    8.80
   2   4 -20   -0.80    8.30
   2   4 -20    1.30    7.10
   1  -4 -20  164.08   54.99
   1  -4 -20   78.49   26.30
   1   4 -20  185.68   28.20
   1   4 -20  165.58   36.00
   0  -4 -20    8.40   11.10
   0  -4 -20    9.80   12.60
   0   4 -20   51.89   30.30
   0   4 -20   24.40   13.30
  -1  -4 -20   74.09   23.60
  -1  -4 -20   93.09   27.20
  -1   4 -20   77.59   34.80
  -1   4 -20  104.99   24.70
  -2  -4 -20  152.88   35.30
  -2  -4 -20  113.29   31.40
  -2   4 -20  144.89   54.39
  -2   4 -20  139.39   23.10
  -3  -4 -20   27.80   16.70
  -3   4 -20   74.39   20.30
  -4  -4 -20   24.40   16.50
  -4   4 -20   16.90   16.60
  -4   4 -20   19.40   11.40
  -5  -4 -20   10.10   12.20
  -5   4 -20   -3.20    4.90
  -6  -4 -20   36.40   22.70
  -6   4 -20   45.10   20.30
  -7  -4 -20   60.79   23.40
   7  -4  20   86.69   18.30
   7   4  20   75.29   24.00
  -7   4 -20  127.89   33.80
   8  -4  20   46.90   14.50
  -8  -4 -20   61.09   25.20
  -8   4 -20   94.09   28.70
   8   4  20   40.10   19.50
   8  -5 -20   34.20   20.60
   8  -5 -20   90.69   26.20
   8   5 -20   95.09   32.80
   8   5 -20   65.29   34.00
   7  -5 -20   32.90   16.90
   7  -5 -20   46.90   24.90
   7   5 -20    3.80   10.50
   7   5 -20   17.70   14.80
   6  -5 -20   -6.30    6.70
   6  -5 -20   12.00   14.80
   6   5 -20   15.60   14.10
   6   5 -20    1.00    7.20
   5  -5 -20   73.99   26.30
   5  -5 -20   48.60   21.10
   5   5 -20   96.49   31.20
   5   5 -20   33.20   16.50
   4  -5 -20   50.09   22.90
   4  -5 -20   41.10   17.70
   4   5 -20   59.39   23.90
   4   5 -20   18.60   15.50
   3  -5 -20    3.70    9.00
   3  -5 -20    3.40    8.10
   3   5 -20    1.10   18.40
   3   5 -20   23.30   16.40
   2  -5 -20   11.20   12.20
   2  -5 -20   27.00   15.50
   2   5 -20   -0.20    7.60
   2   5 -20    7.90    9.00
   1  -5 -20    4.10    8.70
   1  -5 -20   34.80   19.80
   1   5 -20   30.70   18.00
   0  -5 -20   94.69   27.10
   0  -5 -20  116.39   33.60
   0   5 -20  101.79   27.30
   0   5 -20  180.58   34.60
  -1  -5 -20   25.00   15.70
  -1  -5 -20    9.90   12.50
  -1   5 -20    8.70   11.80
  -1   5 -20   -4.40    3.90
  -2  -5 -20   -1.20    6.30
  -2  -5 -20   13.40   11.20
  -2   5 -20    6.50    9.90
  -2   5 -20    6.10    9.40
  -3  -5 -20   -1.50    7.00
  -3   5 -20   21.90   14.50
  -3   5 -20   15.20   10.70
  -4  -5 -20   17.00   14.30
  -4   5 -20   38.50   20.00
  -5  -5 -20   20.30   17.70
   5  -5  20    6.30    9.00
  -5   5 -20   23.70   13.00
  -6  -5 -20   34.70   20.50
  -6   5 -20    6.80   10.30
  -7  -5 -20   -4.10    6.40
   7  -5  20    6.90    6.20
   7   5  20    3.40    8.00
  -7   5 -20   24.50   17.70
   8  -6 -20   19.60   13.90
   8  -6 -20   97.99   27.10
   8   6 -20    9.00   16.80
   8   6 -20   35.10   20.20
   7  -6 -20  133.49   30.70
   7  -6 -20   84.19   30.10
   7   6 -20  139.49   38.00
   7   6 -20   36.00   18.30
   6  -6 -20   20.90   17.60
   6  -6 -20   10.00   13.90
   6   6 -20   -7.60    7.30
   6   6 -20   -0.10    7.10
   5  -6 -20  107.89   29.30
   5  -6 -20  141.59   31.60
   5   6 -20   99.39   28.40
   5   6 -20   83.99   26.30
   4  -6 -20    3.10    8.40
   4  -6 -20   -6.60    4.70
   4   6 -20   -2.80    7.20
   4   6 -20    4.80   12.80
   3  -6 -20    5.00   10.10
   3  -6 -20   -4.80    7.40
   3   6 -20   -1.10    7.20
   3   6 -20   -7.00    5.60
   2  -6 -20    0.20    6.30
   2  -6 -20   20.50   14.30
   2   6 -20   10.10    9.50
   2   6 -20    8.60   12.80
   1  -6 -20  249.48   37.40
   1  -6 -20  214.58   35.40
   1   6 -20  211.68   30.60
   1   6 -20  248.38   38.10
   0  -6 -20   54.49   21.30
   0  -6 -20   84.79   27.80
   0   6 -20  112.19   29.30
   0   6 -20   72.69   21.20
  -1  -6 -20  648.84   60.79
  -1  -6 -20  669.93   60.29
  -1   6 -20  698.23   51.09
  -1   6 -20  650.43   58.89
  -2  -6 -20   -4.00    6.50
  -2   6 -20   -5.70    6.60
  -2   6 -20   -1.00    4.10
  -3  -6 -20   -7.20    9.10
  -3   6 -20    7.10    8.10
  -3   6 -20   -2.30    7.20
  -4  -6 -20   10.10   13.80
   4  -6  20    0.80    7.00
  -4   6 -20   -2.30    5.30
  -5  -6 -20   37.30   21.40
  -5   6 -20  114.29   32.00
   6  -6  20   17.50    8.00
  -6  -6 -20   34.40   22.60
  -6   6 -20    4.20    7.90
  -7  -6 -20  131.19   39.70
   7   6  20  129.89   33.90
  -7   6 -20   75.69   22.30
   7  -7 -20    1.60    7.60
   7  -7 -20    2.50    9.40
   7   7 -20   16.80   15.90
   7   7 -20   -0.60    8.40
   6  -7 -20   42.50   20.10
   6  -7 -20   27.60   18.90
   6   7 -20   56.19   23.90
   6   7 -20   43.70   22.80
   5  -7 -20   10.50   11.40
   5  -7 -20   24.90   16.30
   5   7 -20   18.30   14.90
   5   7 -20   -1.10    8.60
   4  -7 -20    6.80   10.50
   4  -7 -20   -6.60    5.20
   4   7 -20   11.10   10.70
   4   7 -20   27.20   17.50
   3  -7 -20   16.50   13.90
   3  -7 -20    1.00    7.90
   3   7 -20    5.60   12.00
   3   7 -20   28.00   16.80
   2  -7 -20  214.48   35.00
   2  -7 -20  114.99   29.10
   2   7 -20  182.18   40.50
   2   7 -20  134.79   30.20
   1  -7 -20    1.50    8.30
   1  -7 -20   15.60   14.80
   1   7 -20   -8.40    4.90
   1   7 -20   -0.80    5.90
   0  -7 -20    3.50    8.70
   0  -7 -20    2.30    8.70
   0   7 -20   -3.80    6.60
   0   7 -20   -1.00    6.20
  -1  -7 -20   53.39   25.60
  -1  -7 -20   27.80   18.80
  -1   7 -20   27.00   12.70
  -1   7 -20   28.00   15.80
  -2  -7 -20   -9.00    6.70
  -2   7 -20    5.60    9.10
  -2   7 -20   10.30    9.20
   3  -7  20   -2.50    6.20
  -3  -7 -20   -6.80    5.00
  -3   7 -20    2.30    7.60
  -3   7 -20   10.60    7.90
  -4  -7 -20   55.29   24.20
  -4   7 -20   33.00   17.50
  -5  -7 -20   -7.40    6.10
  -5   7 -20    3.20    8.80
  -6  -7 -20   21.50   15.20
  -6   7 -20   98.99   28.80
   7  -8 -20  244.98   35.90
   7  -8 -20  245.78   40.60
   7   8 -20  279.17   54.29
   6  -8 -20   48.00   19.60
   6  -8 -20   19.30   13.90
   6   8 -20   47.40   22.70
   6   8 -20   47.90   21.00
   5  -8 -20  109.49   30.90
   5  -8 -20  100.29   29.70
   5   8 -20  160.98   39.10
   5   8 -20  160.58   37.20
   4  -8 -20    1.90   10.20
   4  -8 -20   -1.50    9.50
   4   8 -20   13.10   15.20
   4   8 -20   18.20   13.50
   3  -8 -20  116.19   34.50
   3  -8 -20  141.69   37.00
   3   8 -20  113.49   28.30
   3   8 -20   64.19   25.70
   2  -8 -20   18.50   13.90
   2  -8 -20   -3.10    5.40
   2   8 -20   -0.60   10.20
   2   8 -20    6.60    8.70
   1  -8 -20   74.29   25.70
   1  -8 -20   56.99   24.00
   1   8 -20    9.40    9.40
   1   8 -20   38.00   20.00
   0  -8 -20   14.80   13.30
   0  -8 -20   -7.10    5.20
   0   8 -20   25.50   15.80
   0   8 -20   34.90   16.40
  -1  -8 -20  187.28   40.80
  -1   8 -20  166.78   24.60
  -1   8 -20  148.89   33.00
  -2  -8 -20   43.80   18.80
  -2   8 -20   61.39   21.70
  -2   8 -20   54.49   16.30
  -3  -8 -20  185.08   41.70
  -3   8 -20  148.49   20.20
  -3   8 -20  145.39   36.50
  -4  -8 -20   21.60   16.20
  -4   8 -20   11.40   13.50
  -5  -8 -20   48.10   24.90
  -5   8 -20   91.99   28.60
  -6  -8 -20    3.10   10.10
  -6   8 -20   -3.50    6.60
   6  -9 -20   32.30   19.90
   6  -9 -20   28.00   16.80
   6   9 -20   57.69   25.00
   6   9 -20   19.00   17.80
   5  -9 -20   20.30   15.00
   5  -9 -20   21.30   16.10
   5   9 -20   22.10   16.90
   5   9 -20   11.60   14.30
   4  -9 -20    8.70   11.30
   4  -9 -20   10.10   11.80
   4   9 -20   35.50   20.80
   4   9 -20   31.40   17.70
   3  -9 -20   10.40    9.40
   3  -9 -20    9.70   11.70
   3   9 -20    9.40    9.00
   3   9 -20   40.10   19.50
   2  -9 -20   29.30   15.40
   2  -9 -20   54.99   23.20
   2   9 -20   95.29   30.60
   1  -9 -20    1.70    9.00
   1  -9 -20   -0.90    7.70
   1   9 -20   13.30    8.90
   1   9 -20    9.90   14.10
   0  -9 -20   16.20   15.10
   0  -9 -20   -3.50    5.20
   0   9 -20   -5.10    4.90
   0   9 -20   -1.90    7.30
  -1  -9 -20   13.60   14.50
  -1   9 -20   31.20   18.30
  -1   9 -20    8.20    8.90
  -2  -9 -20   -4.50    5.90
  -2   9 -20    9.00    7.90
  -2   9 -20    8.60   10.90
  -3  -9 -20   -4.00    7.10
  -3   9 -20    5.10   10.00
  -3   9 -20    0.90    4.60
  -4  -9 -20   15.70   16.10
  -4   9 -20   35.10   17.20
  -5  -9 -20   21.90   18.60
  -5   9 -20   11.90   12.50
   5 -10 -20   96.19   28.00
   5 -10 -20  153.68   41.30
   5  10 -20   78.09   29.40
   5  10 -20  140.69   36.40
   4 -10 -20   -2.00    6.40
   4 -10 -20   -4.00    6.70
   4  10 -20    2.40   10.80
   4  10 -20    8.40   18.80
   3 -10 -20   12.60   13.00
   3 -10 -20   -2.10    7.30
   3  10 -20    9.50   16.80
   3  10 -20   12.10   10.20
   2 -10 -20   44.00   21.30
   2 -10 -20   38.00   21.20
   2  10 -20   46.50   22.50
   2  10 -20   65.99   23.30
   1 -10 -20   -6.30    6.80
   1 -10 -20   19.50   14.00
   1  10 -20   -1.10    7.70
   1  10 -20   -2.30    6.20
   0 -10 -20   68.49   28.30
   0  10 -20   54.49   25.00
   0  10 -20   56.89   18.80
  -1 -10 -20  111.19   33.80
  -1  10 -20  142.09   22.30
  -1  10 -20  131.29   34.70
  -2 -10 -20   31.10   17.80
  -2  10 -20    4.70    5.30
  -2  10 -20   -1.20    6.30
  -3 -10 -20    5.40   22.70
  -3  10 -20   23.60   15.50
  -4 -10 -20   17.90   18.80
  -4  10 -20   24.40   16.50
   3 -11 -20   12.10   14.80
   3 -11 -20   34.00   19.70
   3  11 -20   23.40   19.60
   3  11 -20   11.70   13.30
   2 -11 -20   -4.20    7.60
   2 -11 -20    8.20   14.50
   2  11 -20   20.90   12.50
   2  11 -20   -3.60    8.10
   1 -11 -20   62.39   24.30
   1  11 -20   83.59   28.60
   1  11 -20   57.39   19.70
   0 -11 -20    2.10    9.90
   0  11 -20    1.40    6.00
   0  11 -20    4.60   10.50
  -1 -11 -20    4.00   12.90
  -1  11 -20    4.40    7.80
  -1  11 -20   21.20   15.50
  -2 -11 -20   15.40   17.20
  -2  11 -20    5.60    9.30
   9   0 -21   23.30   16.90
   9   0 -21   46.40   23.90
   8   0 -21   -7.10    6.40
   8   0 -21   -5.00    6.10
   7   0 -21   96.59   29.50
   7   0 -21   60.59   25.10
   6   0 -21   -4.20    5.40
   6   0 -21    4.80   10.70
   5   0 -21   14.80   12.70
   5   0 -21   74.49   27.80
   4   0 -21    2.50    8.20
   4   0 -21   -0.60    9.10
   3   0 -21   27.60   18.30
   3   0 -21    9.70   12.80
   2   0 -21   -2.20    9.30
   2   0 -21   -2.80    6.30
   1   0 -21    3.40   10.20
   1   0 -21   -8.50    4.70
   0   0 -21    0.40    5.70
   0   0 -21    0.90    8.30
  -1   0 -21  154.38   34.40
  -1   0 -21  127.09   28.70
  -2   0 -21   -6.50    5.50
  -2   0 -21   -7.60    4.40
  -3   0 -21  282.27   36.40
  -3   0 -21  344.37   43.10
  -4   0 -21   -3.00    8.10
  -5   0 -21   17.70   14.30
  -6   0 -21    4.30   10.20
  -7   0 -21  125.39   35.60
   8   0  21    1.00    6.60
  -8   0 -21    3.50    8.60
   8  -1 -21   91.89   31.10
   8  -1 -21   94.29   29.40
   8   1 -21   82.09   28.70
   8   1 -21  138.29   36.80
   7  -1 -21   57.09   21.70
   7  -1 -21   69.59   25.40
   7   1 -21   82.39   29.70
   7   1 -21   91.49   27.60
   6  -1 -21    6.20   13.30
   6  -1 -21    5.10   11.70
   6   1 -21   -5.10    6.40
   6   1 -21   14.40   15.70
   5  -1 -21    6.50    9.70
   5  -1 -21   27.90   17.50
   5   1 -21    2.50    8.70
   5   1 -21    4.00    8.10
   4  -1 -21  274.17   38.90
   4  -1 -21  290.97   40.20
   4   1 -21  376.46   45.90
   4   1 -21  299.77   41.30
   3  -1 -21    5.20    9.00
   3  -1 -21    5.00    9.30
   3   1 -21    0.00    7.30
   3   1 -21   -4.70    6.20
   2  -1 -21  517.35   51.39
   2  -1 -21  493.65   51.69
   2   1 -21  685.43   80.99
   2   1 -21  539.35   54.19
   1  -1 -21   -6.50    5.00
   1  -1 -21  -16.10    8.50
   1   1 -21   -0.90    5.50
   1   1 -21    9.50   12.60
   0  -1 -21   32.90   16.90
   0  -1 -21   61.29   20.80
   0   1 -21   22.80   14.50
   0   1 -21   48.10   17.70
  -1  -1 -21   20.70   13.10
  -1  -1 -21   -4.40    4.80
  -1   1 -21   -7.70    4.50
  -1   1 -21    8.00   11.30
  -2  -1 -21   92.39   26.20
  -2  -1 -21   70.39   22.90
  -2   1 -21  125.89   29.50
  -2   1 -21   66.59   25.30
  -3  -1 -21   33.10   17.00
  -3  -1 -21    2.00   10.70
  -3   1 -21   17.90   12.50
  -3   1 -21   42.30   19.90
  -4  -1 -21   67.49   23.60
  -4   1 -21   60.79   23.50
  -5  -1 -21    2.70    9.00
  -5   1 -21   -3.80    5.40
  -6  -1 -21  149.29   38.20
  -6   1 -21  120.99   31.40
  -7  -1 -21    5.00    8.50
  -7   1 -21    5.80    9.50
  -8  -1 -21   18.00   15.10
   8  -1  21    6.80    8.90
  -8   1 -21    2.80    8.40
   8   1  21   21.80   14.40
   8  -2 -21   99.99   34.10
   8  -2 -21   70.69   26.00
   8   2 -21   70.69   27.20
   8   2 -21   34.10   20.90
   7  -2 -21   -2.90    7.50
   7  -2 -21    7.90    9.90
   7   2 -21   12.70   11.70
   7   2 -21   -0.50    7.60
   6  -2 -21   21.00   17.10
   6  -2 -21    2.50   10.00
   6   2 -21   -0.30    9.10
   6   2 -21    0.40    7.30
   5  -2 -21   71.99   23.60
   5  -2 -21    4.20   10.60
   5   2 -21   60.49   24.10
   5   2 -21   25.80   17.10
   4  -2 -21   42.30   19.20
   4  -2 -21   73.19   24.00
   4   2 -21   53.59   18.60
   4   2 -21   43.70   17.90
   3  -2 -21  166.48   40.40
   3  -2 -21   93.99   28.80
   3   2 -21   96.39   25.80
   3   2 -21   89.09   29.50
   2  -2 -21   11.80   13.50
   2  -2 -21   12.30   13.30
   2   2 -21   -2.40    7.30
   2   2 -21   -2.60    7.50
   1  -2 -21    0.60    7.70
   1  -2 -21   -0.30    8.10
   1   2 -21    2.20    9.50
   1   2 -21   -7.70    4.40
   0  -2 -21   34.70   16.30
   0  -2 -21    5.50   12.60
   0   2 -21   -1.90    7.70
   0   2 -21    9.80   11.70
  -1  -2 -21  170.08   36.40
  -1   2 -21  251.87   33.10
  -1   2 -21  172.08   37.00
  -2  -2 -21    2.30    8.20
  -2  -2 -21   -2.10    5.60
  -2   2 -21   -0.80    6.40
  -2   2 -21    0.20    5.10
  -3  -2 -21   76.89   28.50
  -3  -2 -21  107.29   29.10
  -3   2 -21   67.19   26.30
  -3   2 -21   74.79   22.50
  -4  -2 -21   -0.70    6.30
  -4   2 -21   15.70   11.60
  -5  -2 -21   35.00   18.90
  -5   2 -21   46.10   20.20
  -6  -2 -21    4.30    9.10
  -6   2 -21    1.20    9.20
   7  -2  21  107.49   23.00
  -7  -2 -21  179.48   42.20
  -7   2 -21  103.49   30.50
   8  -3 -21  147.59   41.10
   8  -3 -21  199.48   40.70
   8   3 -21  121.49   35.30
   7  -3 -21   92.89   32.30
   7  -3 -21   18.50   14.20
   7   3 -21   21.80   16.90
   7   3 -21   61.19   25.90
   6  -3 -21   -2.60    7.00
   6  -3 -21    8.60   10.40
   6   3 -21    4.90   10.70
   6   3 -21   27.80   20.60
   5  -3 -21   -6.40    4.60
   5  -3 -21    3.40    9.40
   5   3 -21   11.60   12.60
   5   3 -21   -3.50    6.30
   4  -3 -21  224.68   35.40
   4  -3 -21  248.68   38.30
   4   3 -21  230.08   37.50
   4   3 -21  187.58   39.70
   3  -3 -21  214.38   34.80
   3  -3 -21  228.08   45.30
   3   3 -21  233.58   37.10
   3   3 -21  283.47   38.10
   2  -3 -21  110.59   28.10
   2  -3 -21  240.58   36.20
   2   3 -21  241.78   47.70
   2   3 -21  221.28   34.00
   1  -3 -21   -4.50    4.60
   1  -3 -21   16.00   14.60
   1   3 -21   19.10   14.90
   1   3 -21   -3.30    5.60
   0  -3 -21   66.19   23.50
   0  -3 -21   53.79   20.30
   0   3 -21   59.99   23.60
   0   3 -21   67.19   21.10
  -1  -3 -21   22.00   12.30
  -1  -3 -21    9.80   11.50
  -1   3 -21    6.60   10.50
  -1   3 -21   17.10   11.90
  -2  -3 -21   57.09   23.50
  -2  -3 -21   72.09   24.20
  -2   3 -21   63.89   21.30
  -2   3 -21   69.49   21.00
  -3  -3 -21   99.49   30.90
  -3  -3 -21   94.79   25.40
  -3   3 -21  125.89   27.70
  -3   3 -21  136.29   34.10
  -4  -3 -21   31.80   17.60
  -4   3 -21   50.69   20.20
  -5  -3 -21   26.50   16.00
  -5   3 -21   38.00   18.00
  -6  -3 -21   10.60   10.50
  -6   3 -21   12.30   10.80
  -7  -3 -21    8.00   10.50
   7  -3  21    2.70    6.80
  -7   3 -21   -3.40    6.00
   8  -4 -21    2.40    8.00
   8  -4 -21    4.70   19.10
   8   4 -21    3.80   12.20
   8   4 -21    2.10    9.80
   7  -4 -21   63.29   24.00
   7  -4 -21   24.60   17.70
   7   4 -21   51.79   23.60
   7   4 -21   79.59   29.60
   6  -4 -21    3.20    9.40
   6  -4 -21   -0.40   11.80
   6   4 -21    4.10   12.90
   6   4 -21    9.60   11.30
   5  -4 -21   27.40   18.80
   5  -4 -21   31.40   16.80
   5   4 -21   29.80   19.00
   5   4 -21   18.00   14.80
   4  -4 -21   18.30   16.20
   4  -4 -21   67.39   25.10
   4   4 -21   28.30   17.10
   4   4 -21   17.30   13.80
   3  -4 -21   20.70   15.40
   3  -4 -21   -1.20    8.50
   3   4 -21   11.70   11.50
   3   4 -21   -5.20    5.90
   2  -4 -21   30.50   16.50
   2  -4 -21   10.60   12.60
   2   4 -21   13.10   14.50
   2   4 -21    4.30    9.60
   1  -4 -21  124.49   29.50
   1  -4 -21   82.79   25.50
   1   4 -21   84.99   23.30
   1   4 -21  154.88   34.10
   0  -4 -21   86.99   28.10
   0  -4 -21   56.69   21.20
   0   4 -21   42.60   18.00
   0   4 -21   63.69   21.30
  -1  -4 -21   13.80   11.70
  -1  -4 -21   -4.60    4.50
  -1   4 -21   17.90   11.40
  -1   4 -21    6.60   10.20
  -2  -4 -21  137.89   37.10
  -2  -4 -21  157.08   34.50
  -2   4 -21   97.59   28.80
  -2   4 -21  133.19   27.50
  -3  -4 -21    0.80   10.20
  -3   4 -21   21.50   13.80
  -3   4 -21   10.90    9.60
  -4  -4 -21   69.09   27.90
  -5  -4 -21   11.90   12.90
  -5   4 -21   -1.40    7.00
  -6  -4 -21    6.10   10.00
  -6   4 -21   33.70   19.30
   7  -4  21   63.39   16.10
  -7  -4 -21   86.79   33.00
  -7   4 -21   72.09   25.60
   8  -5 -21   15.10   19.20
   8  -5 -21   -4.30    8.10
   8   5 -21    9.40   20.40
   8   5 -21   20.60   21.00
   7  -5 -21   24.30   18.30
   7  -5 -21   24.20   16.30
   7   5 -21   68.19   29.00
   7   5 -21   52.79   24.10
   6  -5 -21   17.70   14.10
   6  -5 -21   -1.70    9.30
   6   5 -21   11.60   13.50
   6   5 -21    0.60   10.30
   5  -5 -21   -5.10    6.60
   5  -5 -21    3.80    8.50
   5   5 -21    4.20    9.60
   5   5 -21   22.80   18.50
   4  -5 -21   22.90   14.90
   4  -5 -21   50.69   23.20
   4   5 -21   65.69   26.90
   4   5 -21   45.70   21.60
   3  -5 -21  122.49   34.30
   3  -5 -21  110.59   29.70
   3   5 -21  128.39   34.30
   3   5 -21  126.19   31.60
   2  -5 -21   88.69   28.40
   2  -5 -21   84.99   27.10
   2   5 -21  117.59   36.80
   2   5 -21   80.09   26.70
   1  -5 -21  223.08   35.60
   1  -5 -21  138.19   35.30
   1   5 -21  150.48   34.50
   1   5 -21  141.19   31.40
   0  -5 -21   30.30   19.50
   0  -5 -21   18.50   15.60
   0   5 -21    9.60   10.30
   0   5 -21    2.20    8.70
  -1  -5 -21   -4.00    5.80
  -1  -5 -21   -3.70    5.90
  -1   5 -21   13.10   12.20
  -1   5 -21   -3.90    4.30
  -2  -5 -21   -3.00    6.50
  -2  -5 -21    2.70    6.90
  -2   5 -21   -7.50    5.10
  -2   5 -21    1.70    6.80
  -3  -5 -21   -2.10    6.10
  -3   5 -21   20.80   12.40
  -3   5 -21    8.40   10.60
  -4  -5 -21   83.59   29.10
  -4   5 -21   29.50   16.10
  -5  -5 -21   46.00   22.80
  -5   5 -21   22.00   14.20
  -6  -5 -21   -5.40    6.20
  -6   5 -21    4.20    9.10
  -7  -5 -21    2.70   12.40
   7  -5  21    4.10    6.70
  -7   5 -21   -3.20    6.50
   7   5  21   30.10   17.60
   7  -6 -21   12.90   16.20
   7  -6 -21   -5.10    6.20
   7   6 -21   24.30   19.10
   7   6 -21    0.10   10.30
   6  -6 -21   78.69   29.60
   6  -6 -21   72.59   25.00
   6   6 -21   68.49   25.60
   6   6 -21   53.49   23.40
   5  -6 -21   16.90   14.90
   5  -6 -21    6.30   12.30
   5   6 -21    0.60    8.20
   5   6 -21   -7.00    6.90
   4  -6 -21   90.89   27.20
   4  -6 -21   68.39   26.90
   4   6 -21   62.99   22.90
   4   6 -21   66.59   25.60
   3  -6 -21   26.40   16.10
   3  -6 -21   -2.70    5.00
   3   6 -21    5.30    9.10
   3   6 -21   -2.10    8.70
   2  -6 -21  106.09   29.20
   2  -6 -21  137.39   33.70
   2   6 -21   83.99   27.10
   1  -6 -21   21.50   17.60
   1  -6 -21    8.60   12.00
   1   6 -21   -6.10    4.60
   1   6 -21   13.50   13.60
   0  -6 -21   98.19   30.60
   0  -6 -21  128.39   32.50
   0   6 -21   85.89   26.60
   0   6 -21   57.69   19.00
  -1  -6 -21    7.20    9.10
  -1  -6 -21   -1.20    6.20
  -1   6 -21    0.40    6.00
  -1   6 -21    2.60   10.00
  -2  -6 -21  242.48   39.20
  -2   6 -21  227.18   36.20
  -2   6 -21  248.88   30.30
  -3  -6 -21   -3.30    8.00
  -3   6 -21   18.40   15.90
  -3   6 -21   10.70    9.70
  -4  -6 -21    0.80    9.30
  -4   6 -21    1.60    7.10
  -5  -6 -21    0.10    7.70
  -5   6 -21   -3.00    5.50
  -6  -6 -21    1.50    7.20
  -6   6 -21   21.50   16.40
   7  -7 -21   38.40   19.00
   7  -7 -21  130.89   54.39
   7   7 -21   16.00   16.30
   7   7 -21   69.39   28.80
   6  -7 -21   -0.80    7.10
   6  -7 -21    0.60    9.00
   6   7 -21   11.40   13.40
   6   7 -21   22.50   16.70
   5  -7 -21   28.70   18.10
   5  -7 -21   -1.70    7.90
   5   7 -21    4.30   12.80
   5   7 -21   -2.30    7.80
   4  -7 -21   -4.00    5.50
   4  -7 -21   13.30   15.80
   4   7 -21   17.40   15.50
   4   7 -21   -2.10    7.40
   3  -7 -21   99.59   30.80
   3  -7 -21   38.20   19.10
   3   7 -21   50.69   20.30
   3   7 -21   87.59   31.30
   2  -7 -21   16.70   15.10
   2  -7 -21   -3.50    5.20
   2   7 -21    7.80   11.10
   2   7 -21   11.70   13.80
   1  -7 -21  172.78   37.90
   1  -7 -21  213.88   45.60
   1   7 -21  203.48   45.00
   1   7 -21  129.29   30.40
   0  -7 -21   16.00   16.20
   0  -7 -21    2.00    9.60
   0   7 -21   33.30   18.10
   0   7 -21   34.90   16.70
  -1  -7 -21    4.20   11.20
  -1  -7 -21   -8.40    5.80
  -1   7 -21   -2.20    5.30
  -1   7 -21   18.00   14.50
  -2  -7 -21   -3.60    6.70
  -2   7 -21   10.80   11.20
  -2   7 -21   -3.40    4.90
  -3  -7 -21  139.59   37.80
  -3   7 -21  142.39   34.10
  -3   7 -21  103.79   22.30
  -4  -7 -21   -3.70    6.40
  -4   7 -21   -1.30    5.70
  -5  -7 -21   58.59   26.10
  -5   7 -21   97.19   29.40
  -6  -7 -21   12.20   13.90
  -6   7 -21   12.80   12.10
   6  -8 -21   49.30   23.30
   6  -8 -21   27.90   18.00
   6   8 -21   27.90   15.50
   6   8 -21   49.20   27.70
   5  -8 -21  121.69   36.00
   5  -8 -21   56.19   22.70
   5   8 -21   71.59   27.10
   5   8 -21   88.49   28.90
   4  -8 -21    3.70    9.50
   4  -8 -21    0.80    8.30
   4   8 -21   -5.90    6.40
   4   8 -21   30.50   21.40
   3  -8 -21   18.70   13.50
   3  -8 -21   22.30   15.00
   3   8 -21   17.10   14.60
   3   8 -21    1.90    7.60
   2  -8 -21   30.10   18.10
   2  -8 -21   47.70   24.70
   2   8 -21   28.60   18.70
   2   8 -21    4.30    8.60
   1  -8 -21   -2.10    9.00
   1  -8 -21   -0.90    8.20
   1   8 -21   34.50   17.70
   1   8 -21    6.20   11.50
   0  -8 -21    7.40   12.90
   0  -8 -21   -0.90    7.40
   0   8 -21   12.60   10.70
   0   8 -21   18.90   15.70
  -1  -8 -21   -7.40    5.90
  -1   8 -21    1.10    5.90
  -1   8 -21   -5.50    5.40
  -2  -8 -21   64.19   27.60
  -2   8 -21   40.60   19.00
  -2   8 -21  109.69   24.00
  -3  -8 -21   35.30   21.60
  -3   8 -21   28.90   17.40
  -3   8 -21   16.10    9.10
  -4  -8 -21  146.09   37.80
  -4   8 -21  129.09   34.90
  -5  -8 -21    1.60   10.10
  -5   8 -21    6.90   12.60
   5  -9 -21   75.09   27.90
   5  -9 -21  108.19   30.90
   5   9 -21   40.90   20.90
   5   9 -21   72.69   28.00
   4  -9 -21   -1.50    8.30
   4  -9 -21   -2.70    9.10
   4   9 -21   -6.70    7.50
   4   9 -21    6.40    8.60
   3  -9 -21   79.79   27.70
   3  -9 -21  161.88   41.40
   3   9 -21  129.69   36.20
   3   9 -21  109.49   29.80
   2  -9 -21   45.00   21.30
   2  -9 -21   63.69   26.20
   2   9 -21   70.39   24.80
   2   9 -21   63.89   26.90
   1  -9 -21  173.18   41.20
   1  -9 -21  235.58   47.20
   1   9 -21  143.79   31.50
   1   9 -21  126.79   34.20
   0  -9 -21    1.40    9.40
   0  -9 -21    2.90    8.30
   0   9 -21   -6.40    6.50
   0   9 -21    2.60    7.20
  -1  -9 -21   33.40   20.70
  -1   9 -21   53.79   24.60
  -1   9 -21   26.90   14.40
  -2  -9 -21    2.00   11.50
  -2   9 -21   -4.70    6.10
  -2   9 -21    1.20    7.00
  -3  -9 -21   16.60   17.30
  -3   9 -21   17.10    9.00
  -3   9 -21   54.99   25.10
  -4  -9 -21   -1.80    7.50
  -4   9 -21   11.80   13.50
   4 -10 -21   15.20   14.40
   4  10 -21   34.70   19.90
   4  10 -21   12.80   17.50
   3 -10 -21   -6.50    6.40
   3 -10 -21   25.80   17.80
   3  10 -21   22.60   19.00
   3  10 -21   24.40   16.40
   2 -10 -21    5.30   10.10
   2 -10 -21   18.80   15.20
   2  10 -21   16.40   11.70
   2  10 -21   22.90   17.10
   1 -10 -21   -0.40    8.80
   1 -10 -21    2.60   10.20
   1  10 -21   -1.60    7.50
   1  10 -21   -5.70   10.10
   0 -10 -21    1.20    9.70
   0  10 -21   14.80   16.30
   0  10 -21    3.90    7.80
  -1 -10 -21    3.50   10.40
  -1  10 -21   11.00    9.50
  -1  10 -21   27.50   18.10
  -2 -10 -21   82.79   42.30
  -2  10 -21   85.79   31.40
  -2  10 -21  164.28   22.00
  -3 -10 -21   19.00   16.70
  -3  10 -21   32.10   18.10
   1 -11 -21   32.70   18.80
   1  11 -21   32.80   15.40
   1  11 -21   57.39   36.10
   0  11 -21    0.60    9.50
   0  11 -21   31.50   16.40
   8   0 -22    8.90   11.70
   8   0 -22    5.40   10.30
   7   0 -22   15.30   15.30
   7   0 -22    3.90    8.30
   6   0 -22  102.09   31.10
   6   0 -22   90.59   27.70
   5   0 -22    0.10    7.40
   5   0 -22   -3.90    7.80
   4   0 -22  184.98   40.50
   4   0 -22  115.39   32.90
   3   0 -22   -4.80    6.80
   3   0 -22    0.60    7.50
   2   0 -22   -1.30    9.40
   2   0 -22   34.50   17.40
   1   0 -22   -0.90    7.10
   1   0 -22    4.90    7.30
   0   0 -22  163.28   32.80
   0   0 -22  141.39   33.00
  -1   0 -22   -1.30    6.90
  -1   0 -22   -2.40   10.20
  -2   0 -22   76.39   27.20
  -3   0 -22   -4.10    6.40
  -3   0 -22   -2.80    5.70
  -4   0 -22  233.28   37.70
  -5   0 -22   -2.50    5.60
  -6   0 -22   36.30   22.10
  -7   0 -22   11.60   12.40
   8  -1 -22   11.60   12.40
   8  -1 -22   21.10   14.50
   8   1 -22   17.30   15.10
   8   1 -22   37.40   20.70
   7  -1 -22  153.78   43.40
   7  -1 -22   91.39   26.30
   7   1 -22  186.88   40.60
   7   1 -22  154.88   39.80
   6  -1 -22    1.70   10.60
   6  -1 -22   -0.40    6.80
   6   1 -22   32.40   21.30
   6   1 -22    1.30    9.00
   5  -1 -22   31.00   18.80
   5  -1 -22    6.90   11.70
   5   1 -22    9.10   12.50
   5   1 -22   39.20   21.80
   4  -1 -22    4.90   13.00
   4  -1 -22    7.50   10.40
   4   1 -22   16.70   16.60
   4   1 -22    9.80   13.00
   3  -1 -22   48.40   20.30
   3  -1 -22   60.09   22.00
   3   1 -22   75.89   26.20
   3   1 -22  120.19   36.20
   2  -1 -22   26.00   16.60
   2  -1 -22   11.10   10.90
   2   1 -22    6.90   10.50
   2   1 -22   49.40   22.90
   1  -1 -22  285.17   40.50
   1  -1 -22  282.17   39.10
   1   1 -22  288.47   41.10
   1   1 -22  249.78   35.60
   0  -1 -22    1.50    9.20
   0  -1 -22   13.20   10.30
   0   1 -22    1.50    9.80
   0   1 -22   30.90   26.60
  -1  -1 -22  253.27   50.19
  -1  -1 -22  197.18   32.70
  -1   1 -22  266.27   35.00
  -1   1 -22  212.08   35.50
  -2  -1 -22   31.40   16.00
  -2  -1 -22   12.40   13.10
  -2   1 -22   25.00   17.10
  -2   1 -22   18.40   14.00
  -3  -1 -22  203.48   41.10
  -3  -1 -22   63.79   22.90
  -3   1 -22  146.09   36.40
  -3   1 -22  107.29   26.60
  -4  -1 -22   -4.80    4.70
  -4   1 -22    3.20    8.30
  -5  -1 -22  122.59   34.70
  -5   1 -22  178.18   39.00
  -6  -1 -22   29.70   19.50
  -6   1 -22   20.00   15.30
  -7  -1 -22   85.29   29.10
  -7   1 -22   89.49   27.20
   8  -2 -22   70.29   27.50
   8  -2 -22   69.19   26.80
   8   2 -22   73.19   28.30
   8   2 -22   86.29   31.00
   7  -2 -22   -0.50    8.00
   7  -2 -22   -0.90    7.80
   7   2 -22    3.90    8.90
   7   2 -22   10.70   13.10
   6  -2 -22   28.10   15.70
   6  -2 -22   20.40   16.50
   6   2 -22   32.40   16.40
   6   2 -22   65.59   24.90
   5  -2 -22    5.30   12.00
   5  -2 -22   -3.50    6.00
   5   2 -22    0.10    8.00
   5   2 -22   12.90   14.80
   4  -2 -22   45.70   18.90
   4  -2 -22   25.20   18.40
   4   2 -22   59.99   24.90
   4   2 -22   34.80   18.90
   3  -2 -22   23.90   15.60
   3  -2 -22   40.70   19.50
   3   2 -22   11.00   11.60
   3   2 -22   34.20   17.10
   2  -2 -22   15.40   12.00
   2  -2 -22    4.20    9.80
   2   2 -22    5.30    9.60
   2   2 -22    6.90   11.10
   1  -2 -22    9.10   13.00
   1  -2 -22   21.40   16.90
   1   2 -22   -3.40    8.40
   1   2 -22    9.40   12.50
   0  -2 -22   45.70   19.00
   0  -2 -22    6.70    8.50
   0   2 -22   34.50   16.90
   0   2 -22   17.10   15.10
  -1  -2 -22   -3.40    5.20
  -1  -2 -22    1.80    8.80
  -1   2 -22   -2.20    5.20
  -1   2 -22   -8.30    4.60
  -2  -2 -22   29.10   15.20
  -2  -2 -22   46.40   21.00
  -2   2 -22   42.60   20.10
  -2   2 -22   16.80   11.50
  -3  -2 -22   22.10   15.90
  -3  -2 -22    6.70   12.10
  -3   2 -22   -0.50    6.10
  -3   2 -22   -1.20    8.70
  -4  -2 -22   37.30   18.20
  -4   2 -22   34.90   20.10
  -5  -2 -22    2.00    8.40
  -5   2 -22    5.10    9.90
  -6  -2 -22    9.00   13.20
  -6   2 -22   41.60   21.10
   7  -2  22    2.20    7.00
  -7  -2 -22   -0.80    7.00
  -7   2 -22    5.40    9.20
   8  -3 -22   26.10   16.50
   8  -3 -22   37.30   24.30
   8   3 -22   29.10   19.40
   8   3 -22  108.09   36.50
   7  -3 -22   51.89   22.90
   7  -3 -22   64.69   28.20
   7   3 -22   56.09   25.80
   7   3 -22   11.20   13.10
   6  -3 -22   21.00   19.20
   6  -3 -22    2.50    8.40
   6   3 -22   20.00   15.90
   6   3 -22   21.70   14.90
   5  -3 -22   22.40   15.30
   5  -3 -22   24.50   17.00
   5   3 -22   18.40   13.60
   5   3 -22   37.30   17.60
   4  -3 -22    0.20    7.90
   4  -3 -22    6.30    9.90
   4   3 -22   -3.10    6.90
   4   3 -22    4.70    9.50
   3  -3 -22   49.99   20.90
   3  -3 -22  100.49   29.60
   3   3 -22   97.69   30.20
   3   3 -22   48.60   18.50
   2  -3 -22  255.57   38.60
   2  -3 -22  232.78   36.80
   2   3 -22  292.07   41.50
   2   3 -22  231.88   34.60
   1  -3 -22  127.39   34.50
   1  -3 -22  105.19   28.70
   1   3 -22   88.59   27.90
   0  -3 -22   69.69   24.90
   0  -3 -22   57.59   23.20
   0   3 -22   76.19   22.70
   0   3 -22   77.59   26.60
  -1  -3 -22   23.30   14.90
  -1  -3 -22   31.00   17.80
  -1   3 -22   29.80   16.20
  -1   3 -22   25.10   15.70
  -2  -3 -22   13.80   13.00
  -2  -3 -22   16.10   15.40
  -2   3 -22   32.80   17.90
  -2   3 -22   -1.80    6.30
  -3  -3 -22    3.80   10.20
  -3  -3 -22    3.20    8.90
  -3   3 -22   -7.70    5.10
  -3   3 -22   -5.00    4.20
  -4  -3 -22  113.29   33.10
  -4   3 -22   46.70   21.40
  -5  -3 -22  214.18   43.20
  -5   3 -22  198.78   39.80
  -6  -3 -22  158.28   37.50
  -6   3 -22  144.59   33.80
  -7  -3 -22  123.99   35.50
   7  -3  22  136.39   22.30
  -7   3 -22   81.89   25.20
   7  -4 -22   85.99   29.40
   7  -4 -22   77.69   30.50
   7   4 -22   75.69   31.40
   7   4 -22   88.09   31.40
   6  -4 -22  206.08   41.70
   6  -4 -22  221.08   47.90
   6   4 -22  154.78   39.80
   6   4 -22  101.79   31.70
   5  -4 -22  229.28   37.40
   5  -4 -22  218.58   44.60
   5   4 -22  268.77   41.20
   5   4 -22  187.18   42.90
   4  -4 -22   67.49   27.00
   4  -4 -22   -0.50    5.70
   4   4 -22   28.00   16.10
   4   4 -22   19.60   16.90
   3  -4 -22   44.00   21.90
   3  -4 -22   59.99   24.90
   3   4 -22   42.90   23.00
   3   4 -22   61.79   22.80
   2  -4 -22   12.70   13.90
   2  -4 -22   24.20   15.10
   2   4 -22   10.10   13.10
   2   4 -22   15.00   13.20
   1  -4 -22    3.60    8.30
   1  -4 -22    1.30    8.80
   1   4 -22   15.60   14.10
   1   4 -22   -5.70   10.20
   0  -4 -22  113.89   33.50
   0  -4 -22  189.18   45.40
   0   4 -22  181.38   36.90
   0   4 -22  192.68   43.70
  -1  -4 -22   72.89   23.20
  -1  -4 -22   76.99   24.40
  -1   4 -22  184.48   41.10
  -1   4 -22   92.49   25.40
  -2  -4 -22   -2.20    7.00
  -2  -4 -22    0.80    8.40
  -2   4 -22   -3.10    5.50
  -2   4 -22   15.10   13.70
  -3  -4 -22   18.10   15.50
  -3   4 -22   16.80   12.50
  -3   4 -22    2.70    8.80
  -4  -4 -22   -5.00    6.70
  -4   4 -22   19.50   13.70
  -5  -4 -22   52.79   25.30
  -5   4 -22   23.70   16.40
  -6  -4 -22   12.10   13.70
  -6   4 -22   -5.70    6.40
   7  -5 -22   10.90   22.30
   7  -5 -22   14.60   13.50
   7   5 -22    6.10   15.70
   7   5 -22   14.70   16.80
   6  -5 -22   92.19   32.70
   6  -5 -22   79.29   27.70
   6   5 -22   36.50   20.70
   6   5 -22   33.70   21.90
   5  -5 -22    7.50   12.10
   5  -5 -22    6.10   11.30
   5   5 -22   11.50   13.70
   5   5 -22   10.30   14.50
   4  -5 -22   -3.20    7.20
   4  -5 -22   27.60   19.30
   4   5 -22   16.80   15.70
   4   5 -22    9.90   10.10
   3  -5 -22   87.69   29.90
   3  -5 -22   41.60   19.50
   3   5 -22   48.10   20.80
   3   5 -22   57.39   24.80
   2  -5 -22   49.10   22.40
   2  -5 -22   38.90   20.60
   2   5 -22   30.10   17.40
   2   5 -22   50.19   20.00
   1  -5 -22  115.99   30.30
   1  -5 -22   77.69   27.00
   1   5 -22   92.79   31.70
   1   5 -22   77.09   41.60
   0  -5 -22  187.78   42.50
   0  -5 -22  279.27   40.30
   0   5 -22  204.08   30.60
   0   5 -22  194.58   43.80
  -1  -5 -22   11.80   14.10
  -1  -5 -22    2.20    8.60
  -1   5 -22   11.90    9.50
  -1   5 -22   14.40   13.40
  -2  -5 -22    9.20   12.90
  -2  -5 -22   -6.30    6.20
  -2   5 -22    3.10    9.70
  -2   5 -22    7.30   10.70
  -3  -5 -22   30.40   18.00
  -3   5 -22   19.50   12.30
  -3   5 -22   18.60   14.80
  -4  -5 -22   -0.90    7.30
  -4   5 -22   -1.30    6.00
  -5  -5 -22   40.00   23.00
  -5   5 -22    7.00   10.50
  -6  -5 -22   23.50   18.70
  -6   5 -22   48.60   23.10
   6  -6 -22   63.09   23.10
   6  -6 -22   43.30   24.10
   6   6 -22   41.50   22.20
   6   6 -22  102.49   35.10
   5  -6 -22   86.59   28.30
   5  -6 -22   56.69   26.30
   5   6 -22   55.19   25.80
   5   6 -22   49.90   24.00
   4  -6 -22   -4.90    5.70
   4  -6 -22    4.00   10.10
   4   6 -22    5.40   12.60
   4   6 -22   -5.60    6.20
   3  -6 -22    0.60    7.10
   3  -6 -22   -6.30    5.70
   3   6 -22   27.00   15.60
   3   6 -22   26.80   19.60
   2  -6 -22   -7.80    5.90
   2  -6 -22    1.60    8.30
   2   6 -22   -3.40    8.00
   2   6 -22    1.10    6.80
   1  -6 -22   -0.30    8.80
   1  -6 -22    8.80   11.40
   1   6 -22   15.60   13.50
   0  -6 -22   80.39   27.70
   0  -6 -22   52.09   21.90
   0   6 -22   83.59   27.20
   0   6 -22   75.79   22.80
  -1  -6 -22  132.99   35.30
  -1  -6 -22   70.09   27.90
  -1   6 -22   93.49   23.40
  -1   6 -22  131.59   36.50
  -2  -6 -22    1.30   11.60
  -2   6 -22    2.80    7.70
  -2   6 -22    4.00    7.80
  -3  -6 -22  184.18   45.90
  -3   6 -22  163.08   24.60
  -3   6 -22  111.59   30.80
  -4  -6 -22    2.50    9.60
  -4   6 -22    6.80    9.90
  -5  -6 -22   -0.80    9.60
  -5   6 -22    1.10    7.90
   6  -7 -22   81.29   25.70
   6   7 -22   90.59   32.60
   6   7 -22   81.09   28.10
   5  -7 -22   -5.30    7.10
   5  -7 -22   16.10   14.40
   5   7 -22    8.60   11.00
   5   7 -22    4.50   14.60
   4  -7 -22    1.50    9.10
   4  -7 -22   46.10   22.20
   4   7 -22   28.30   20.00
   3  -7 -22   14.70   14.90
   3  -7 -22   88.09   30.20
   3   7 -22   38.50   20.50
   3   7 -22    1.50   11.20
   2  -7 -22  180.58   42.00
   2  -7 -22  185.48   40.70
   2   7 -22  191.78   31.70
   2   7 -22  211.28   45.30
   1  -7 -22   13.00   13.70
   1  -7 -22   -2.80    6.40
   1   7 -22   17.20   15.60
   1   7 -22   12.20   11.80
   0  -7 -22  111.19   29.10
   0  -7 -22  159.98   37.10
   0   7 -22  119.59   34.90
   0   7 -22  118.79   28.80
  -1  -7 -22   54.19   22.60
  -1  -7 -22   20.00   15.60
  -1   7 -22   14.50   12.00
  -1   7 -22   -0.80    8.50
  -2  -7 -22   14.70   16.00
  -2   7 -22   -0.30    5.80
  -2   7 -22    0.10    8.10
  -3  -7 -22    0.80    6.90
  -3   7 -22   -4.90    6.30
  -3   7 -22    8.00    8.00
  -4  -7 -22   86.29   31.00
  -4   7 -22  180.68   39.30
  -5  -7 -22   13.90   16.30
  -5   7 -22   -2.50    7.00
   5  -8 -22   61.19   23.10
   5  -8 -22   79.79   49.99
   5   8 -22   52.09   23.40
   5   8 -22   61.69   23.10
   4  -8 -22    4.90   11.00
   4  -8 -22   25.80   20.10
   4   8 -22   15.40   13.40
   4   8 -22   -2.50    9.50
   3  -8 -22   15.80   13.50
   3  -8 -22   12.70   13.70
   3   8 -22   57.39   24.40
   3   8 -22   35.90   20.70
   2  -8 -22   15.40   14.60
   2  -8 -22    1.50    8.70
   2   8 -22    8.40    9.30
   2   8 -22   16.20   17.60
   1  -8 -22    4.20   13.40
   1  -8 -22    2.50    8.90
   1   8 -22   12.80   12.50
   1   8 -22    1.00    9.40
   0  -8 -22   15.50   17.30
   0  -8 -22   12.80   12.90
   0   8 -22    6.90   13.30
   0   8 -22   14.60   12.40
  -1  -8 -22   10.70   17.50
  -1   8 -22   25.30   12.90
  -1   8 -22   38.60   20.00
  -2  -8 -22    3.20    9.00
  -2   8 -22   14.80   11.40
  -2   8 -22   13.50   12.10
  -3  -8 -22   20.40   18.00
  -3   8 -22    1.20    7.30
  -3   8 -22   25.30   11.70
  -4  -8 -22   -3.60    7.00
  -4   8 -22   -1.90    7.00
   4  -9 -22   10.30   14.20
   4  -9 -22    4.30   13.70
   4   9 -22    4.90    8.50
   4   9 -22    6.00   11.70
   3  -9 -22   38.20   23.20
   3  -9 -22  129.99   36.50
   3   9 -22   61.99   23.30
   3   9 -22   43.80   26.70
   2  -9 -22  193.08   45.80
   2  -9 -22   97.19   29.50
   2   9 -22  127.29   37.90
   2   9 -22  130.89   31.80
   1  -9 -22   87.99   27.40
   1  -9 -22   93.19   30.80
   1   9 -22   55.89   19.40
   1   9 -22   82.29   27.80
   0  -9 -22  166.08   41.60
   0  -9 -22  152.58   35.40
   0   9 -22  195.38   29.10
   0   9 -22   87.29   29.70
  -1  -9 -22    9.00   10.80
  -1   9 -22   17.10   16.90
  -1   9 -22    4.20    7.50
  -2  -9 -22    0.40   10.90
  -2   9 -22    7.10   10.40
  -2   9 -22    7.20   10.80
  -3  -9 -22   31.70   21.00
  -3   9 -22    9.40   12.00
   2 -10 -22   14.30   14.70
   2 -10 -22   18.20   14.80
   2  10 -22   42.00   23.80
   2  10 -22   13.80   13.40
   1 -10 -22   11.60   16.40
   1 -10 -22    1.20    8.40
   1  10 -22   13.50   11.90
   1  10 -22   22.20   23.40
   0  10 -22   -2.70    6.20
   0  10 -22    8.20   13.00
  -1 -10 -22   66.29   29.80
  -1  10 -22   16.80   11.90
  -1  10 -22   -0.60    8.00
   7   0 -23   -6.50    8.90
   7   0 -23    6.40   11.80
   6   0 -23    9.20   12.80
   6   0 -23   -4.60    6.10
   5   0 -23  165.68   42.00
   5   0 -23  238.08   39.40
   4   0 -23    6.00   13.90
   4   0 -23   -0.70    8.30
   3   0 -23  399.86   47.90
   3   0 -23  311.27   43.90
   2   0 -23    1.00    9.40
   2   0 -23   -4.00    6.20
   1   0 -23    4.20    9.60
   1   0 -23   39.70   19.90
   0   0 -23   -2.30    6.40
   0   0 -23    5.50   11.00
  -1   0 -23   53.49   24.50
  -1   0 -23   36.40   17.40
  -2   0 -23    5.20    9.60
  -2   0 -23    4.90    9.20
  -3   0 -23  141.29   35.40
  -3   0 -23  134.39   33.00
  -4   0 -23   -5.00    5.60
  -5   0 -23   45.60   21.50
  -6   0 -23    3.40    9.80
   7  -1 -23   50.89   27.90
   7  -1 -23   17.10   15.70
   7   1 -23    6.60   16.00
   7   1 -23   19.60   14.90
   6  -1 -23   -0.80    6.90
   6  -1 -23   14.90   14.50
   6   1 -23   -2.10    8.00
   6   1 -23   20.50   18.50
   5  -1 -23   44.00   22.70
   5  -1 -23   -1.20    7.40
   5   1 -23   -9.00    6.30
   5   1 -23    3.00    9.10
   4  -1 -23   -8.40    5.50
   4  -1 -23   16.80   15.20
   4   1 -23   -8.40    6.50
   4   1 -23    6.00    9.20
   3  -1 -23   10.30   13.00
   3  -1 -23   43.60   19.60
   3   1 -23   65.39   26.70
   3   1 -23    4.40   10.20
   2  -1 -23   23.30   17.40
   2  -1 -23   26.70   17.70
   2   1 -23   -3.00    5.30
   2   1 -23    2.00   11.20
   1  -1 -23    6.20    9.40
   1  -1 -23   15.60   12.70
   1   1 -23   41.60   20.20
   1   1 -23    6.10   10.90
   0  -1 -23   11.00   11.20
   0  -1 -23   14.90   13.30
   0   1 -23   28.30   18.40
   0   1 -23   39.60   19.40
  -1  -1 -23    1.00    6.90
  -1  -1 -23   20.00   14.70
  -1   1 -23   -4.60    5.10
  -1   1 -23   17.10   15.00
  -2  -1 -23   67.29   23.70
  -2   1 -23   62.49   24.00
  -2   1 -23   56.29   23.10
  -3  -1 -23   25.30   16.00
  -3  -1 -23   25.00   15.20
  -3   1 -23   -0.20    7.30
  -3   1 -23   25.20   14.10
  -4  -1 -23    6.80   12.80
  -4   1 -23   43.00   19.90
  -5  -1 -23    1.30    9.30
  -5   1 -23    8.60   13.70
  -6  -1 -23   91.09   30.20
  -6   1 -23  126.49   34.50
   7  -2 -23    8.10   15.20
   7  -2 -23   39.90   20.50
   7   2 -23   36.60   20.10
   7   2 -23   32.20   24.10
   6  -2 -23   44.30   20.80
   6  -2 -23   38.10   19.70
   6   2 -23   39.30   20.90
   6   2 -23   23.40   16.90
   5  -2 -23   80.89   26.60
   5  -2 -23   92.89   30.70
   5   2 -23  120.29   33.20
   5   2 -23  160.48   40.00
   4  -2 -23  145.59   34.20
   4  -2 -23  100.39   29.60
   4   2 -23   95.29   29.20
   4   2 -23   84.59   25.90
   3  -2 -23  153.38   36.80
   3  -2 -23   76.39   26.40
   3   2 -23  101.29   32.10
   3   2 -23  155.48   37.00
   2  -2 -23   58.59   22.40
   2  -2 -23   14.60   14.60
   2   2 -23   16.40   16.30
   2   2 -23   22.60   14.90
   1  -2 -23    8.00   11.40
   1  -2 -23    5.10    8.00
   1   2 -23    7.70   12.50
   1   2 -23   -3.80    6.80
   0  -2 -23    5.10   12.20
   0  -2 -23   19.60   14.30
   0   2 -23   14.90   13.90
   0   2 -23   30.20   16.50
  -1  -2 -23   59.19   22.70
  -1  -2 -23   67.09   25.30
  -1   2 -23   54.59   23.50
  -1   2 -23   70.89   23.50
  -2  -2 -23  114.59   32.20
  -2  -2 -23   56.49   20.50
  -2   2 -23   55.19   23.60
  -2   2 -23   32.70   18.90
  -3  -2 -23  205.38   33.70
  -3  -2 -23  255.97   40.00
  -3   2 -23  151.18   38.80
  -4  -2 -23  151.78   39.20
  -4   2 -23  119.69   31.70
  -5  -2 -23    0.20   10.90
  -5   2 -23   13.90   15.50
  -6  -2 -23   38.10   19.80
  -6   2 -23    4.50    9.00
   7  -3 -23   21.20   19.10
   7  -3 -23    1.30    8.20
   7   3 -23    5.50   14.10
   7   3 -23    0.80    9.00
   6  -3 -23   44.40   24.30
   6  -3 -23   91.09   28.80
   6   3 -23   95.59   31.40
   6   3 -23   88.99   31.60
   5  -3 -23    0.90    7.40
   5  -3 -23   19.30   16.30
   5   3 -23   10.40   15.30
   5   3 -23   12.50   11.60
   4  -3 -23   23.50   17.10
   4  -3 -23   -4.50    7.50
   4   3 -23   10.10   14.00
   4   3 -23    8.20   12.10
   3  -3 -23   49.99   23.80
   3  -3 -23   12.70   10.20
   3   3 -23   63.19   27.60
   3   3 -23   24.80   13.80
   2  -3 -23   13.30   14.30
   2  -3 -23   19.40   14.40
   2   3 -23   25.00   19.00
   2   3 -23   22.40   15.10
   1  -3 -23   17.50   15.90
   1  -3 -23   38.10   21.30
   1   3 -23   38.00   18.60
   1   3 -23   24.90   14.00
   0  -3 -23   60.59   24.80
   0  -3 -23   23.70   16.80
   0   3 -23   16.60   14.60
   0   3 -23   76.79   27.80
  -1  -3 -23   -1.50    7.30
  -1  -3 -23   23.80   15.50
  -1   3 -23    4.00   10.10
  -2  -3 -23   52.49   23.50
  -2  -3 -23   23.60   16.10
  -2   3 -23   52.09   20.40
  -2   3 -23   42.70   17.90
  -3  -3 -23   -5.20    5.20
  -3   3 -23    4.50    6.80
  -3   3 -23   -7.50    5.60
  -4  -3 -23    1.20    8.20
  -4   3 -23    8.80   11.50
  -5  -3 -23    4.20   10.10
  -5   3 -23    3.50   10.30
  -6  -3 -23   40.10   21.40
  -6   3 -23   85.79   27.60
   7  -4 -23   25.20   20.50
   7  -4 -23   51.19   24.80
   7   4 -23   37.60   21.30
   7   4 -23   31.70   24.70
   6  -4 -23   16.40   14.40
   6  -4 -23   17.80   18.80
   6   4 -23    6.90   13.20
   6   4 -23    4.00   10.80
   5  -4 -23   76.79   28.00
   5  -4 -23   42.80   18.80
   5   4 -23  107.79   34.30
   5   4 -23   35.20   17.20
   4  -4 -23  438.16   51.79
   4  -4 -23  493.55   56.39
   4   4 -23  459.65   52.19
   4   4 -23  349.27   48.70
   3  -4 -23  143.39   34.50
   3  -4 -23  150.68   34.20
   3   4 -23  130.39   34.90
   3   4 -23  190.78   45.10
   2  -4 -23   -1.90    7.10
   2  -4 -23    5.20   11.60
   2   4 -23   13.50   14.30
   2   4 -23   -6.50    5.50
   1  -4 -23   -9.50    6.00
   1  -4 -23   20.10   16.40
   1   4 -23    9.60   10.90
   1   4 -23   -8.70    5.50
   0  -4 -23   25.70   17.10
   0  -4 -23    5.80   10.20
   0   4 -23   20.60   15.60
   0   4 -23   29.60   16.20
  -1  -4 -23  267.47   41.30
  -1  -4 -23  284.97   41.20
  -1   4 -23  203.78   46.70
  -1   4 -23  202.58   33.60
  -2  -4 -23   96.69   29.70
  -2  -4 -23  108.19   33.60
  -2   4 -23  104.29   30.60
  -2   4 -23  113.79   28.10
  -3  -4 -23   31.40   18.30
  -3   4 -23   17.80   14.10
  -3   4 -23   24.00   13.40
  -4  -4 -23   70.19   27.60
  -4   4 -23   21.20   14.40
  -5  -4 -23   12.60   12.80
  -5   4 -23   -0.30    8.70
  -6  -4 -23   -6.60    7.10
  -6   4 -23   32.30   17.70
   6  -5 -23   -1.30   15.50
   6  -5 -23    2.10    9.40
   6   5 -23   -0.20   11.70
   5  -5 -23  -10.80    6.70
   5  -5 -23   -5.40    6.30
   5   5 -23    8.20   12.20
   5   5 -23    0.10    7.50
   4  -5 -23    7.80   14.10
   4  -5 -23   -3.70    7.30
   4   5 -23    3.80   12.80
   4   5 -23   30.50   18.80
   3  -5 -23   22.40   16.90
   3  -5 -23   -1.20    8.10
   3   5 -23   52.79   23.30
   3   5 -23   38.00   20.70
   2  -5 -23   -3.20    7.30
   2  -5 -23    2.80    8.20
   2   5 -23   27.30   20.30
   2   5 -23   16.10   14.40
   1  -5 -23    4.50   10.60
   1  -5 -23   29.40   18.40
   1   5 -23   50.59   18.50
   1   5 -23   86.59   29.50
   0  -5 -23   11.40   12.40
   0  -5 -23    5.20   10.50
   0   5 -23   -2.00    5.10
   0   5 -23   11.80   12.50
  -1  -5 -23   39.90   21.20
  -1  -5 -23   55.99   25.80
  -1   5 -23  123.39   37.40
  -1   5 -23   68.69   22.00
  -2  -5 -23   -1.80    6.90
  -2  -5 -23    3.70    9.60
  -2   5 -23    4.50    7.90
  -2   5 -23   11.00   11.80
  -3  -5 -23   23.10   18.60
  -3   5 -23   -2.30    6.80
  -3   5 -23    4.60    6.90
  -4  -5 -23   -5.00    6.50
  -4   5 -23   19.70   16.30
  -5  -5 -23    6.20   20.10
  -5   5 -23   11.10   11.70
   6  -6 -23   90.99   29.40
   6  -6 -23  141.59   34.80
   6   6 -23  140.09   39.80
   6   6 -23   71.59   30.00
   5  -6 -23   83.99   29.10
   5  -6 -23   54.69   26.90
   5   6 -23    9.70   12.40
   5   6 -23   53.49   41.80
   4  -6 -23  264.47   54.69
   4  -6 -23  212.38   45.40
   4   6 -23  298.37   46.90
   4   6 -23  184.08   39.50
   3  -6 -23   60.49   25.80
   3   6 -23   87.29   32.20
   3   6 -23   37.40   20.30
   2  -6 -23  133.19   37.00
   2  -6 -23  144.69   34.70
   2   6 -23  154.18   33.50
   2   6 -23  197.68   41.40
   1  -6 -23    0.60    8.10
   1  -6 -23    1.40    7.50
   1   6 -23   -6.80    5.90
   1   6 -23    7.40   12.30
   0  -6 -23   47.30   20.50
   0  -6 -23    3.10   14.10
   0   6 -23   29.60   18.30
   0   6 -23   28.00   19.00
  -1  -6 -23    4.00   10.20
  -1  -6 -23   25.70   18.90
  -1   6 -23    7.30    9.50
  -1   6 -23    6.90    9.50
  -2  -6 -23  108.99   32.70
  -2   6 -23  107.69   26.40
  -2   6 -23  107.89   33.70
  -3  -6 -23   45.90   23.10
  -3   6 -23   68.49   25.10
  -3   6 -23   44.00   17.40
  -4  -6 -23  126.69   59.49
  -4   6 -23  160.68   40.00
  -5  -6 -23    4.70    9.10
  -5   6 -23    0.30    6.50
   5  -7 -23   42.20   23.10
   5  -7 -23   26.40   18.80
   5   7 -23   23.30   17.70
   5   7 -23   36.20   23.00
   4  -7 -23  118.49   37.60
   4  -7 -23   75.39   27.10
   4   7 -23  141.39   36.60
   4   7 -23  152.08   64.19
   3  -7 -23   -0.30    8.80
   3  -7 -23   -3.60    7.50
   3   7 -23    0.80    9.50
   3   7 -23   -6.20    6.70
   2  -7 -23    5.30   10.60
   2  -7 -23   10.00   11.20
   2   7 -23   16.50   16.30
   2   7 -23    3.30    7.00
   1  -7 -23    2.60    7.10
   1  -7 -23    9.70   13.40
   1   7 -23   14.10   13.90
   1   7 -23   10.10    9.30
   0  -7 -23   10.00   14.60
   0  -7 -23    7.00   13.10
   0   7 -23   11.50   12.30
   0   7 -23   23.90   16.90
  -1  -7 -23    5.70   11.30
  -1  -7 -23   36.70   22.90
  -1   7 -23   53.29   23.60
  -1   7 -23   11.80   12.80
  -2  -7 -23    7.40   14.10
  -2   7 -23    1.40    6.60
  -2   7 -23    8.40   12.70
  -3   7 -23   14.30   11.80
  -3   7 -23   42.20   16.50
  -4  -7 -23   35.70   20.00
  -4   7 -23   26.30   17.10
   4  -8 -23  139.29   36.80
   4  -8 -23  152.08   38.30
   4   8 -23  200.48   45.80
   4   8 -23  129.59   35.70
   3  -8 -23    4.90   11.60
   3   8 -23    6.00   11.00
   3   8 -23   -2.50   10.70
   2  -8 -23   30.00   19.20
   2  -8 -23   19.90   15.90
   2   8 -23   13.70   13.40
   2   8 -23   43.20   19.10
   1  -8 -23    2.40   12.50
   1  -8 -23    4.70   10.00
   1   8 -23   -3.80    5.60
   1   8 -23    0.10    8.30
   0  -8 -23   39.20   22.20
   0  -8 -23   28.40   19.30
   0   8 -23   59.59   23.20
   0   8 -23    0.60    7.40
  -1  -8 -23   -3.10    8.40
  -1   8 -23   18.80   13.30
  -1   8 -23   12.90   14.80
  -2  -8 -23   74.09   30.60
  -2   8 -23   45.60   21.80
  -2   8 -23  115.89   26.40
  -3  -8 -23   -6.60    7.50
  -3   8 -23    5.70    6.90
  -3   8 -23   16.80   14.70
   2  -9 -23   45.00   23.30
   2  -9 -23   25.60   17.20
   2   9 -23   26.50   16.40
   2   9 -23   60.09   26.60
   1  -9 -23   11.70   14.80
   1  -9 -23   -5.90    7.00
   1   9 -23   -8.10    9.20
   1   9 -23   12.20   13.50
   0  -9 -23   12.90   18.50
   0   9 -23   46.60   28.80
   0   9 -23   15.10   12.30
  -1  -9 -23   16.10   18.80
  -1   9 -23   13.40   10.80
  -1   9 -23    7.90   12.00
   6   0 -24   21.20   17.20
   5   0 -24    0.20    8.20
   5   0 -24   11.20   12.70
   4   0 -24   78.19   27.00
   4   0 -24  145.59   37.60
   3   0 -24    8.40   12.90
   3   0 -24    6.10   11.40
   2   0 -24  297.47   41.90
   2   0 -24  268.57   42.00
   1   0 -24   -3.80    5.20
   1   0 -24    6.00   13.20
   0   0 -24   61.19   24.50
   0   0 -24   50.19   21.00
  -1   0 -24   10.40   12.10
  -1   0 -24   -4.80    6.20
  -2   0 -24   77.39   29.40
  -2   0 -24  122.59   30.80
  -3   0 -24    3.50    7.90
  -3   0 -24   -3.70    5.60
  -4   0 -24   76.19   31.10
  -5   0 -24   -4.80    6.90
   6  -1 -24    5.50   11.20
   6  -1 -24   16.80   15.90
   6   1 -24   19.20   13.90
   5  -1 -24    4.90   10.90
   5  -1 -24   20.80   17.50
   5   1 -24    1.00   10.20
   5   1 -24   -2.80    7.20
   4  -1 -24   -4.20    5.50
   4  -1 -24   18.90   17.30
   4   1 -24   11.20   10.70
   4   1 -24    6.00   12.20
   3  -1 -24   50.39   22.50
   3  -1 -24    7.40   11.40
   3   1 -24   40.40   21.50
   3   1 -24   27.20   18.70
   2  -1 -24    7.20   10.40
   2  -1 -24   25.30   18.60
   2   1 -24   47.00   23.10
   2   1 -24   13.20   11.60
   1  -1 -24  150.98   38.30
   1  -1 -24   90.99   28.60
   1   1 -24   75.99   26.90
   1   1 -24  107.39   31.70
   0  -1 -24   18.00   18.70
   0  -1 -24    6.90   10.40
   0   1 -24    6.80    9.50
   0   1 -24    5.00   11.90
  -1  -1 -24   80.59   27.40
  -1  -1 -24   11.10   13.40
  -1   1 -24   52.59   20.70
  -1   1 -24   47.30   22.60
  -2  -1 -24   -0.40    7.60
  -2  -1 -24   27.80   19.50
  -2   1 -24   -2.80    6.70
  -2   1 -24   -0.50    7.20
  -3  -1 -24    6.80    9.60
  -3  -1 -24   10.10   14.70
  -3   1 -24   18.00   15.30
  -3   1 -24   -0.90    6.70
  -4  -1 -24    2.00   12.90
  -4   1 -24    9.10   11.60
  -5  -1 -24   17.00   15.80
  -5   1 -24   -5.00    6.50
   6  -2 -24   24.30   20.90
   6  -2 -24    0.60    9.00
   6   2 -24   -3.90    9.70
   6   2 -24   33.20   18.60
   5  -2 -24   28.80   20.80
   5  -2 -24    3.70   10.20
   5   2 -24   10.10   12.70
   5   2 -24   10.20   14.50
   4  -2 -24   86.29   29.30
   4  -2 -24   42.40   22.50
   4   2 -24   71.79   27.20
   4   2 -24   47.80   22.10
   3  -2 -24    5.40   12.40
   3  -2 -24   22.70   17.20
   3   2 -24   25.90   21.30
   3   2 -24   12.20   16.30
   2  -2 -24   -1.70    7.50
   2  -2 -24    3.30    8.90
   2   2 -24   10.30   11.40
   2   2 -24   11.10   17.30
   1  -2 -24   14.10   11.70
   1  -2 -24    7.50   12.30
   1   2 -24    2.80    7.90
   1   2 -24    4.80    9.40
   0  -2 -24   35.40   18.00
   0  -2 -24   31.40   17.40
   0   2 -24   28.70   16.20
   0   2 -24   46.90   22.40
  -1  -2 -24    7.20   10.00
  -1  -2 -24    4.20   10.10
  -1   2 -24    2.10   10.00
  -1   2 -24    2.70    8.50
  -2  -2 -24    4.10   11.00
  -2  -2 -24   -5.10    5.40
  -2   2 -24   -1.40    6.30
  -2   2 -24   -2.00    8.30
  -3  -2 -24   67.99   24.60
  -3  -2 -24   56.89   24.10
  -3   2 -24   83.09   23.90
  -3   2 -24   94.99   32.20
  -4  -2 -24  185.18   44.20
  -4   2 -24  154.48   37.10
  -5  -2 -24   35.20   18.10
  -5   2 -24   46.40   22.70
   6  -3 -24   41.30   21.30
   6  -3 -24   58.59   30.10
   6   3 -24   60.99   33.10
   6   3 -24   13.80   24.00
   5  -3 -24   22.00   16.20
   5  -3 -24   37.00   21.20
   5   3 -24   17.20   14.40
   5   3 -24   24.90   17.80
   4  -3 -24    5.80   10.10
   4  -3 -24   19.20   15.10
   4   3 -24   24.20   17.90
   4   3 -24   12.10   13.60
   3  -3 -24   22.10   16.40
   3  -3 -24   -0.80    8.90
   3   3 -24    0.20    8.70
   3   3 -24   16.60   14.70
   2  -3 -24   68.49   25.00
   2  -3 -24   68.99   26.80
   2   3 -24   97.09   31.60
   2   3 -24  133.09   35.00
   1  -3 -24   15.30   11.80
   1  -3 -24   32.60   19.30
   1   3 -24   57.89   24.20
   1   3 -24  109.29   34.90
   0  -3 -24   59.39   24.40
   0  -3 -24   52.69   21.60
   0   3 -24   15.20   12.30
   0   3 -24   37.60   21.50
  -1  -3 -24   39.20   20.80
  -1  -3 -24   22.30   17.00
  -1   3 -24   31.40   18.90
  -1   3 -24   55.19   23.10
  -2  -3 -24    3.00    8.60
  -2  -3 -24    0.00    6.80
  -2   3 -24    3.30    8.40
  -2   3 -24   10.90   10.50
  -3  -3 -24   -8.20    6.20
  -3   3 -24   -1.00    5.70
  -3   3 -24    0.10    9.40
  -4  -3 -24   -0.10    9.10
  -4   3 -24   -3.00    7.20
  -5  -3 -24    8.80   18.90
  -5   3 -24   35.90   19.90
   6  -4 -24    9.90   11.50
   6  -4 -24    7.10   12.10
   6   4 -24   19.60   16.70
   6   4 -24    4.70   12.80
   5  -4 -24   14.80   17.40
   5  -4 -24    4.60   16.80
   5   4 -24   -5.10    7.20
   5   4 -24   -1.80    7.80
   4  -4 -24   -3.80    6.20
   4  -4 -24   20.10   18.00
   4   4 -24   23.00   15.90
   4   4 -24   11.60   14.30
   3  -4 -24  268.07   42.50
   3  -4 -24  285.87   43.00
   3   4 -24  244.78   38.30
   3   4 -24  252.57   42.30
   2  -4 -24   81.69   29.30
   2  -4 -24   47.20   19.20
   2   4 -24   10.10   14.20
   2   4 -24   36.50   20.30
   1  -4 -24   10.20   13.10
   1  -4 -24   17.20   13.70
   1   4 -24   11.70   12.30
   1   4 -24   37.30   20.40
   0  -4 -24   -1.20    8.50
   0  -4 -24    9.80   14.50
   0   4 -24    9.70   11.80
   0   4 -24   -0.20    8.70
  -1  -4 -24    3.00    9.40
  -1  -4 -24   -0.10    8.80
  -1   4 -24   12.90   11.80
  -1   4 -24   -0.40    6.50
  -2  -4 -24   42.90   23.60
  -2  -4 -24   52.89   25.50
  -2   4 -24   18.50   17.30
  -2   4 -24   39.20   18.80
  -3  -4 -24   55.79   25.90
  -3   4 -24   87.89   30.70
  -3   4 -24   78.09   27.00
  -4  -4 -24   -3.80    8.00
  -4   4 -24   25.10   13.40
  -5  -4 -24  130.79   35.80
  -5   4 -24  153.58   38.50
   5  -5 -24    5.40   13.40
   5  -5 -24   12.90   17.30
   5   5 -24    4.60   11.30
   5   5 -24   -1.10    9.90
   4  -5 -24    2.30   10.30
   4  -5 -24   -0.30    7.90
   4   5 -24   -2.80    8.90
   4   5 -24   -1.30    8.20
   3  -5 -24   29.70   19.60
   3  -5 -24   35.30   20.50
   3   5 -24   30.70   17.90
   3   5 -24   -0.30    7.60
   2  -5 -24   14.80   14.50
   2  -5 -24   51.19   23.60
   2   5 -24    9.70    9.90
   2   5 -24   -2.70    8.10
   1  -5 -24   93.89   32.90
   1  -5 -24   89.39   29.70
   1   5 -24   97.19   26.10
   1   5 -24   75.09   26.20
   0  -5 -24   53.39   21.70
   0  -5 -24   37.30   22.10
   0   5 -24    9.70   12.50
   0   5 -24    8.60    9.90
  -1  -5 -24   26.10   16.70
  -1  -5 -24   25.40   18.60
  -1   5 -24   51.99   21.70
  -1   5 -24   55.49   24.40
  -2  -5 -24   13.10   15.30
  -2  -5 -24   41.20   22.20
  -2   5 -24    4.60    9.40
  -2   5 -24   57.19   25.60
  -3  -5 -24   15.20   16.10
  -3   5 -24   -3.70    6.00
  -3   5 -24   17.20   10.50
  -4  -5 -24   -5.50    7.80
  -4   5 -24   21.00   15.00
   4  -6 -24   16.20   16.90
   4  -6 -24   -4.70    7.90
   4   6 -24   15.60   15.20
   4   6 -24   10.50   16.30
   3  -6 -24   -3.70    8.40
   3  -6 -24   -1.10    8.10
   3   6 -24   16.50   14.90
   3   6 -24   -3.50    9.60
   2  -6 -24   13.60   13.90
   2  -6 -24    9.40   15.70
   2   6 -24   32.40   18.00
   2   6 -24   24.80   17.00
   1  -6 -24   45.70   24.20
   1  -6 -24   50.79   25.40
   1   6 -24   26.30   18.90
   1   6 -24   85.89   27.30
   0  -6 -24    9.10   11.60
   0  -6 -24    2.40   10.50
   0   6 -24   12.90   15.00
   0   6 -24   -4.80    5.90
  -1  -6 -24    7.80   10.60
  -1  -6 -24    5.10    9.50
  -1   6 -24    8.90   10.80
  -1   6 -24    0.60    7.20
  -2  -6 -24    5.30   11.70
  -2   6 -24   21.90   17.20
  -2   6 -24   25.90   16.10
  -3  -6 -24   54.69   24.80
  -3   6 -24   43.50   18.90
  -3   6 -24   10.70   11.80
   4  -7 -24    8.10   11.30
   4  -7 -24   -6.50    9.40
   4   7 -24    7.10   10.00
   4   7 -24    4.00    9.30
   3  -7 -24   97.79   31.90
   3  -7 -24   37.50   22.00
   3   7 -24   49.70   22.30
   3   7 -24   78.99   28.70
   2  -7 -24   70.59   27.60
   2  -7 -24   31.80   24.50
   2   7 -24   28.00   16.50
   1  -7 -24   -4.90    7.10
   1  -7 -24    0.60   11.00
   1   7 -24   -3.90    7.10
   1   7 -24   20.50   16.10
   0  -7 -24   -3.20    9.50
   0  -7 -24    6.90   12.40
   0   7 -24    9.40   13.30
   0   7 -24   24.20   15.40
  -1  -7 -24   14.40   23.40
  -1   7 -24    8.60   10.00
  -1   7 -24   53.09   23.00
  -2  -7 -24   36.60   21.10
  -2   7 -24   32.90   17.20
  -2   7 -24   34.00   18.80
   2  -8 -24    8.20   13.90
   2  -8 -24    3.00    8.40
   2   8 -24    6.10   10.10
   2   8 -24    1.80    8.80
   1  -8 -24   36.10   19.70
   1  -8 -24   36.70   30.60
   1   8 -24   26.20   17.20
   1   8 -24   36.70   21.40
   0  -8 -24    3.10   10.10
   0  -8 -24   12.20   15.40
   0   8 -24    3.50    8.50
   0   8 -24   13.00   17.90
  -1  -8 -24   22.80   19.60
  -1   8 -24   10.80   13.00
  -1   8 -24    9.40   13.40
   5   0 -25    6.50   11.80
   4   0 -25   -2.80    7.30
   4   0 -25   -0.10   10.90
   3   0 -25    8.10   11.30
   3   0 -25   -2.50    9.90
   2   0 -25   -0.30    8.00
   2   0 -25   -8.60    6.60
   1   0 -25   45.10   21.50
   1   0 -25    9.00   13.40
   0   0 -25   -2.20    6.90
   0   0 -25   -5.60    6.30
  -1   0 -25   44.50   23.00
  -1   0 -25   74.29   29.10
  -2   0 -25    0.50    6.60
  -2   0 -25    7.30   10.40
  -3   0 -25   28.20   16.50
  -3   0 -25   27.00   17.70
  -4   0 -25   19.70   16.00
   5  -1 -25    3.90   10.00
   5  -1 -25    0.00   10.60
   5   1 -25   -0.90    9.50
   4  -1 -25   40.60   21.30
   4  -1 -25   69.89   26.60
   4   1 -25   31.00   19.80
   4   1 -25   35.00   22.40
   3  -1 -25   19.20   16.70
   3  -1 -25   48.40   24.60
   3   1 -25   -1.10    8.30
   3   1 -25   13.70   12.80
   2  -1 -25   15.30   13.10
   2  -1 -25   19.80   14.60
   2   1 -25  -11.70    6.80
   2   1 -25    5.40   10.40
   1  -1 -25   27.60   16.00
   1  -1 -25   -4.10    6.20
   1   1 -25   24.70   17.50
   1   1 -25    0.00    8.10
   0  -1 -25  100.19   28.50
   0  -1 -25   53.39   22.70
   0   1 -25   88.49   28.00
   0   1 -25   85.59   26.00
  -1  -1 -25   -6.50    6.80
  -1  -1 -25   -1.00    8.00
  -1   1 -25    6.70   11.10
  -1   1 -25   14.40   13.00
  -2  -1 -25  181.58   38.70
  -2  -1 -25  109.29   31.30
  -2   1 -25  155.88   40.20
  -2   1 -25  102.49   31.00
  -3  -1 -25    3.70    9.70
  -3  -1 -25    4.70    8.90
  -3   1 -25   -0.80    7.60
  -3   1 -25   -2.90    6.50
  -4  -1 -25   56.89   25.50
   5  -2 -25    4.00   12.70
   5  -2 -25    5.50   11.20
   5   2 -25   -9.40   10.00
   4  -2 -25   78.09   30.20
   4   2 -25   33.20   20.00
   4   2 -25   79.09   27.40
   3  -2 -25   39.40   20.40
   3  -2 -25   48.10   23.70
   3   2 -25   45.30   22.60
   3   2 -25   42.90   21.00
   2  -2 -25   21.90   16.80
   2  -2 -25   48.70   22.70
   2   2 -25   11.10   12.10
   2   2 -25   15.20   15.80
   1  -2 -25   66.09   27.20
   1  -2 -25   28.60   17.20
   1   2 -25   73.49   30.70
   1   2 -25   36.40   20.10
   0  -2 -25   -4.30    6.10
   0  -2 -25    6.80   11.50
   0   2 -25   -7.40    5.70
   0   2 -25    9.80   12.70
  -1  -2 -25    7.30   11.90
  -1  -2 -25   11.60   14.50
  -1   2 -25   -2.20    6.40
  -1   2 -25    1.10    7.30
  -2  -2 -25   -6.00    9.40
  -2  -2 -25   44.90   20.80
  -2   2 -25   53.59   21.80
  -2   2 -25   36.80   20.90
  -3  -2 -25   -4.50    7.40
  -3  -2 -25   -0.20    7.10
  -3   2 -25    9.20   11.70
  -3   2 -25    9.10   10.90
  -4   2 -25   43.40   23.30
   5  -3 -25   67.39   27.70
   5  -3 -25  108.99   33.20
   5   3 -25   70.09   44.50
   5   3 -25  114.09   37.70
   4  -3 -25   15.30   15.70
   4  -3 -25   18.60   16.80
   4   3 -25   53.79   25.50
   4   3 -25   12.80   15.90
   3  -3 -25   -0.60   10.20
   3  -3 -25   13.50   12.40
   3   3 -25   23.80   18.30
   3   3 -25   33.20   18.60
   2  -3 -25   11.10   14.70
   2  -3 -25    9.70   11.30
   2   3 -25    9.70   12.40
   2   3 -25   -5.10    7.10
   1  -3 -25   11.20   11.00
   1  -3 -25    4.20    8.60
   1   3 -25   16.50   15.60
   1   3 -25    4.50   10.80
   0  -3 -25  173.28   38.50
   0  -3 -25  188.38   45.10
   0   3 -25  132.69   37.90
   0   3 -25  157.28   35.20
  -1  -3 -25   44.60   20.10
  -1  -3 -25   48.60   26.30
  -1   3 -25   70.39   27.70
  -1   3 -25   41.80   17.40
  -2  -3 -25   91.09   28.80
  -2  -3 -25   63.79   22.80
  -2   3 -25  125.89   34.50
  -2   3 -25   81.89   27.50
  -3  -3 -25   11.20   14.80
  -3   3 -25    8.00    9.20
  -3   3 -25   13.00   15.70
  -4  -3 -25   -4.20    7.90
  -4   3 -25    6.20   11.70
   5  -4 -25   27.40   20.90
   5  -4 -25   21.60   13.50
   5   4 -25   14.00   15.20
   5   4 -25   12.80   13.30
   4  -4 -25   -0.20   10.10
   4  -4 -25   19.00   13.10
   4   4 -25   11.90   14.10
   4   4 -25   50.19   27.50
   3  -4 -25   14.50   14.50
   3  -4 -25   -4.00    6.00
   3   4 -25   34.70   18.90
   3   4 -25   -9.60    7.10
   2  -4 -25   -0.20    8.60
   2  -4 -25   42.50   24.60
   2   4 -25   -5.30    6.60
   2   4 -25   -0.40    9.50
   1  -4 -25    7.90   10.60
   1  -4 -25    5.50   11.30
   1   4 -25   19.00   15.30
   1   4 -25    2.60   10.10
   0  -4 -25   28.10   17.40
   0  -4 -25   75.79   29.40
   0   4 -25   67.59   28.00
   0   4 -25   52.59   22.80
  -1  -4 -25   20.20   16.20
  -1  -4 -25   36.50   19.10
  -1   4 -25   -0.90    9.50
  -1   4 -25   13.30   13.40
  -2  -4 -25   18.30   18.50
  -2  -4 -25    9.80   12.00
  -2   4 -25    0.20   10.40
  -2   4 -25   -0.40    6.10
  -3  -4 -25   -1.10    9.20
  -3   4 -25   -1.80    6.80
  -3   4 -25   -4.10    5.50
   4  -5 -25   18.90   17.90
   4  -5 -25   28.10   17.10
   4   5 -25   39.40   22.00
   4   5 -25   26.80   19.20
   3  -5 -25    0.00    9.60
   3  -5 -25   -5.30    7.10
   3   5 -25   -8.20    7.50
   3   5 -25    3.20    9.60
   2  -5 -25    2.40    9.80
   2  -5 -25   22.80   15.80
   2   5 -25   10.50   13.80
   2   5 -25   10.70   16.20
   1  -5 -25  187.48   41.80
   1  -5 -25  141.79   38.90
   1   5 -25  134.39   33.30
   1   5 -25  221.08   50.09
   0  -5 -25   11.50   15.50
   0  -5 -25   15.00   13.30
   0   5 -25   13.60   12.60
   0   5 -25   42.40   24.00
  -1  -5 -25  213.98   59.89
  -1  -5 -25  168.78   39.10
  -1   5 -25  171.18   36.70
  -1   5 -25  178.38   39.80
  -2  -5 -25   13.30   18.30
  -2  -5 -25    0.20    9.40
  -2   5 -25    2.80    8.60
  -2   5 -25   -5.80    6.90
  -3  -5 -25   47.30   23.00
  -3   5 -25   20.70   16.70
  -3   5 -25   61.79   21.50
   3  -6 -25   10.60   17.70
   3  -6 -25   23.40   18.40
   3   6 -25   15.00   15.30
   3   6 -25   45.30   19.80
   2  -6 -25   17.80   16.10
   2  -6 -25   -4.20    8.00
   2   6 -25   -6.30    7.00
   2   6 -25   -1.80    6.80
   1  -6 -25    5.20   20.70
   1  -6 -25    5.90   11.90
   1   6 -25    0.80   16.20
   1   6 -25   10.30   12.20
   0  -6 -25   -1.20   10.80
   0  -6 -25   56.79   29.40
   0   6 -25   38.50   17.60
   0   6 -25   45.30   30.50
  -1  -6 -25   -3.30    8.10
  -1  -6 -25   -0.10    8.70
  -1   6 -25    1.10    7.50
  -1   6 -25    2.60   11.60
  -2  -6 -25   -2.40    9.50
  -2   6 -25   -0.40    7.40
  -2   6 -25    5.30   10.80
   1  -7 -25   18.40   16.60
   1  -7 -25   31.20   20.60
   1   7 -25   11.70   10.10
   1   7 -25   40.90   23.60
   0  -7 -25    0.20    8.70
   0  -7 -25   -6.70    6.90
   0   7 -25    4.70   10.30
   0   7 -25    2.60    8.80
   4   0 -26   33.80   21.80
   4   0 -26   91.99   41.90
   3   0 -26    5.10    9.50
   3   0 -26   27.00   20.00
   2   0 -26   99.99   35.50
   2   0 -26   85.19   29.60
   1   0 -26   -0.30    6.10
   1   0 -26   -7.50    7.40
   0   0 -26   26.40   16.40
   0   0 -26   13.20   16.00
  -1   0 -26   -0.40    8.40
  -1   0 -26    8.50   12.90
  -2   0 -26   27.10   16.20
  -2   0 -26   14.10   14.80
  -3   0 -26    5.20    9.70
  -3   0 -26   10.00   12.30
   4  -1 -26    6.60   11.70
   4   1 -26    1.00   12.80
   4   1 -26    0.80    8.70
   3  -1 -26   27.20   17.80
   3  -1 -26   38.10   23.10
   3   1 -26   16.80   14.10
   3   1 -26   25.30   24.00
   2  -1 -26    9.40   11.30
   2  -1 -26    7.90   12.00
   2   1 -26   -5.10    6.20
   2   1 -26   46.70   26.60
   1  -1 -26   -7.50    5.80
   1  -1 -26    0.80   10.40
   1   1 -26   -6.80    6.50
   1   1 -26   10.90   13.90
   0  -1 -26   21.60   18.70
   0  -1 -26   -3.10    7.10
   0   1 -26    5.30   11.80
   0   1 -26    4.40   10.40
  -1  -1 -26   24.20   16.40
  -1  -1 -26   17.70   17.60
  -1   1 -26   44.90   23.70
  -1   1 -26   -5.40    6.60
  -2  -1 -26   12.10   22.70
  -2  -1 -26   28.10   16.40
  -2   1 -26   29.30   18.30
  -2   1 -26   32.10   20.40
  -3  -1 -26   72.39   28.50
  -3  -1 -26   82.49   29.80
  -3   1 -26   57.59   23.60
  -3   1 -26   62.79   35.60
   4  -2 -26   82.19   32.80
   4  -2 -26   65.29   43.70
   4   2 -26   26.20   23.70
   4   2 -26   26.10   19.70
   3  -2 -26   63.99   28.50
   3  -2 -26   49.90   35.10
   3   2 -26   25.60   24.30
   3   2 -26   53.99   22.50
   2  -2 -26   98.59   31.40
   2  -2 -26   43.00   23.40
   2   2 -26   38.50   23.40
   2   2 -26   75.39   26.70
   1  -2 -26   19.30   16.60
   1  -2 -26   28.90   17.10
   1   2 -26   -2.40    7.80
   1   2 -26   30.90   19.20
   0  -2 -26    1.00    9.80
   0  -2 -26   10.80   13.00
   0   2 -26   13.80   11.20
   0   2 -26   -5.10    6.70
  -1  -2 -26    3.40   11.90
  -1  -2 -26    4.60   11.50
  -1   2 -26    3.50    9.00
  -1   2 -26   15.80   13.10
  -2  -2 -26   16.50   20.90
  -2  -2 -26   15.20   15.90
  -2   2 -26   16.10   17.30
  -2   2 -26    0.20    8.50
  -3  -2 -26   58.59   26.70
  -3   2 -26   41.50   21.50
  -3   2 -26   20.20   25.30
   4  -3 -26  109.99   36.90
   4  -3 -26   93.69   48.30
   4   3 -26   36.20   23.20
   4   3 -26   55.89   26.90
   3  -3 -26   -2.30   11.20
   3  -3 -26   13.70   18.70
   3   3 -26   -1.80    7.00
   3   3 -26    0.10   10.90
   2  -3 -26   25.20   18.50
   2  -3 -26    5.30    9.70
   2   3 -26    2.60   16.20
   2   3 -26   -5.30    6.30
   1  -3 -26   -1.20    8.70
   1  -3 -26    6.50   11.10
   1   3 -26    1.80    9.30
   1   3 -26   33.00   26.20
   0  -3 -26    7.20   10.50
   0  -3 -26   -2.60   11.30
   0   3 -26   -3.70    6.60
   0   3 -26   14.40   14.70
  -1  -3 -26   -0.10    8.90
  -1  -3 -26   14.30   19.40
  -1   3 -26    4.70    8.90
  -1   3 -26    0.70   14.80
  -2  -3 -26   68.49   26.70
  -2  -3 -26   41.70   23.70
  -2   3 -26   97.69   53.49
  -2   3 -26   64.39   22.60
   3  -4 -26   91.89   37.90
   3  -4 -26   68.29   24.20
   3   4 -26   72.99   25.60
   3   4 -26   81.49   29.00
   2  -4 -26   33.60   20.50
   2  -4 -26   46.00   38.30
   2   4 -26   72.79   30.70
   2   4 -26   23.70   17.70
   1  -4 -26   75.49   42.80
   1  -4 -26   79.09   44.90
   1   4 -26   68.59   25.40
   1   4 -26  121.09   38.90
   0  -4 -26   66.59   30.80
   0  -4 -26  108.99   48.80
   0   4 -26   41.60   29.40
   0   4 -26   73.09   26.40
  -1  -4 -26   28.40   20.50
  -1   4 -26   12.90   16.50
  -1   4 -26    4.00    9.90
  -2  -4 -26   19.70   17.50
  -2  -4 -26   31.10   20.00
  -2   4 -26   -0.90    8.40
  -2   4 -26    3.80    8.30
   2  -5 -26   41.50   24.50
   2  -5 -26   26.60   19.00
   2   5 -26   67.09   26.00
   2   5 -26   13.50   14.10
   1  -5 -26   32.60   22.20
   1  -5 -26   14.30   11.90
   1   5 -26   26.40   15.90
   1   5 -26   12.00   12.80
   0  -5 -26   22.10   17.40
   0  -5 -26   21.10   17.60
   0   5 -26   23.30   14.80
   0   5 -26   14.10   15.80
  -1  -5 -26    3.80    8.10
  -1  -5 -26   -4.70   10.10
  -1   5 -26    2.30    8.40
  -1   5 -26    6.00   11.10
   2   0 -27   -1.50    8.50
   2   0 -27   13.30   18.40
   1   0 -27   -3.40    6.70
   1   0 -27   -2.40    7.00
   0   0 -27    2.60    9.50
   0   0 -27    4.60    8.90
  -1   0 -27  146.79   38.10
  -1   0 -27  157.98   38.70
   2  -1 -27    7.70   11.30
   2  -1 -27   28.90   22.60
   2   1 -27   32.80   33.00
   2   1 -27   36.90   23.00
   1  -1 -27   41.80   43.00
   1  -1 -27    5.30    9.40
   1   1 -27    5.10   12.90
   1   1 -27   14.80   15.90
   0  -1 -27   -1.00    8.10
   0  -1 -27    4.70   13.70
   0   1 -27   24.00   17.40
   0   1 -27   18.80   14.50
  -1  -1 -27   -3.20    6.50
  -1  -1 -27    6.50   12.70
  -1   1 -27   -5.10    6.90
  -1   1 -27   12.90   13.70
   2  -2 -27   91.19   32.50
   2  -2 -27   85.99   30.30
   2   2 -27   59.79   25.00
   2   2 -27  108.39   37.40
   1  -2 -27  163.98   45.80
   1  -2 -27   84.89   29.90
   1   2 -27  157.08   41.20
   1   2 -27   66.99   28.50
   0  -2 -27   65.79   40.70
   0  -2 -27   87.09   35.10
   0   2 -27   98.99   30.80
   0   2 -27  101.09   31.60
  -1  -2 -27   86.19   52.89
  -1   2 -27   73.19   25.80
   0   0   0    0.00    0.00

_computing_structure_solution     'SHELXT 2018/2 (Sheldrick, 2018)'
;
_shelx_hkl_checksum    4935

